MODEL 1
REMARK VINA RESULT:      -8.0      0.000      0.000
REMARK  Name = 
REMARK  7 active torsions:
REMARK  status: ('A' for Active; 'I' for Inactive)
REMARK    1  A    between atoms: C_1  and  C_2
REMARK    2  A    between atoms: C_2  and  N_3
REMARK    3  A    between atoms: C_2  and  C_24
REMARK    4  A    between atoms: N_7  and  C_8
REMARK    5  A    between atoms: C_8  and  C_9
REMARK    6  A    between atoms: C_8  and  C_10
REMARK    7  A    between atoms: C_15  and  C_16
REMARK                            x       y       z     vdW  Elec       q    Type
REMARK                         _______ _______ _______ _____ _____    ______ ____
ROOT
ATOM      1  N   UNL     1       4.848   6.877  16.582  0.00  0.00    +0.000 N 
ATOM      2  C   UNL     1       3.911   6.803  17.615  0.00  0.00    +0.000 A 
ATOM      3  N   UNL     1       3.098   7.855  17.769  0.00  0.00    +0.000 NA
ATOM      4  C   UNL     1       2.248   7.796  18.786  0.00  0.00    +0.000 A 
ATOM      5  N   UNL     1       1.478   8.880  19.159  0.00  0.00    +0.000 N 
ATOM      6  N   UNL     1       2.100   6.737  19.561  0.00  0.00    +0.000 NA
ATOM      7  C   UNL     1       2.907   5.702  19.296  0.00  0.00    +0.000 A 
ATOM      8  N   UNL     1       3.848   5.705  18.351  0.00  0.00    +0.000 NA
ATOM      9  H   UNL     1       4.308   6.690  15.738  0.00  0.00    +0.000 HD
ATOM     10  H   UNL     1       0.816   8.604  19.874  0.00  0.00    +0.000 HD
ENDROOT
BRANCH   7  11
ATOM     11  C   UNL     1       2.721   4.466  20.102  0.00  0.00    +0.000 A 
ATOM     12  C   UNL     1       1.523   4.210  20.791  0.00  0.00    +0.000 A 
ATOM     13  C   UNL     1       1.383   3.039  21.554  0.00  0.00    +0.000 A 
ATOM     14  C   UNL     1       2.447   2.147  21.592  0.00  0.00    +0.000 A 
ATOM     15  C   UNL     1       3.589   2.465  20.883  0.00  0.00    +0.000 A 
ATOM     16 CL   UNL     1       4.944   1.413  20.890  0.00  0.00    +0.000 Cl
ATOM     17  N   UNL     1       3.756   3.585  20.147  0.00  0.00    +0.000 NA
ENDBRANCH   7  11
BRANCH   1  19
ATOM     18  C   UNL     1       7.257   6.843  16.934  0.00  0.00    +0.000 C 
ATOM     19  C   UNL     1       6.024   5.958  16.679  0.00  0.00    +0.000 C 
BRANCH  19  20
ATOM     20  C   UNL     1       6.272   5.051  15.444  0.00  0.00    +0.000 C 
ATOM     21  F   UNL     1       6.339   3.737  15.788  0.00  0.00    +0.000 F 
ATOM     22  F   UNL     1       5.280   5.161  14.534  0.00  0.00    +0.000 F 
ATOM     23  F   UNL     1       7.443   5.339  14.833  0.00  0.00    +0.000 F 
ENDBRANCH  19  20
ENDBRANCH   1  19
BRANCH   5  24
ATOM     24  C   UNL     1       1.068   9.928  18.206  0.00  0.00    +0.000 C 
ATOM     25  C   UNL     1       1.900  11.183  18.522  0.00  0.00    +0.000 C 
BRANCH  24  26
ATOM     26  C   UNL     1      -0.438  10.309  18.168  0.00  0.00    +0.000 C 
ATOM     27  F   UNL     1      -1.101   9.769  17.122  0.00  0.00    +0.000 F 
ATOM     28  F   UNL     1      -1.090   9.907  19.289  0.00  0.00    +0.000 F 
ATOM     29  F   UNL     1      -0.587  11.654  18.097  0.00  0.00    +0.000 F 
ENDBRANCH  24  26
ENDBRANCH   5  24
TORSDOF 5
ENDMDL
MODEL 2
REMARK VINA RESULT:      -7.9      0.078      1.012
REMARK  Name = 
REMARK  7 active torsions:
REMARK  status: ('A' for Active; 'I' for Inactive)
REMARK    1  A    between atoms: C_1  and  C_2
REMARK    2  A    between atoms: C_2  and  N_3
REMARK    3  A    between atoms: C_2  and  C_24
REMARK    4  A    between atoms: N_7  and  C_8
REMARK    5  A    between atoms: C_8  and  C_9
REMARK    6  A    between atoms: C_8  and  C_10
REMARK    7  A    between atoms: C_15  and  C_16
REMARK                            x       y       z     vdW  Elec       q    Type
REMARK                         _______ _______ _______ _____ _____    ______ ____
ROOT
ATOM      1  N   UNL     1       4.834   6.940  16.621  0.00  0.00    +0.000 N 
ATOM      2  C   UNL     1       3.889   6.854  17.646  0.00  0.00    +0.000 A 
ATOM      3  N   UNL     1       3.073   7.904  17.804  0.00  0.00    +0.000 NA
ATOM      4  C   UNL     1       2.215   7.833  18.814  0.00  0.00    +0.000 A 
ATOM      5  N   UNL     1       1.440   8.912  19.191  0.00  0.00    +0.000 N 
ATOM      6  N   UNL     1       2.064   6.766  19.578  0.00  0.00    +0.000 NA
ATOM      7  C   UNL     1       2.874   5.736  19.309  0.00  0.00    +0.000 A 
ATOM      8  N   UNL     1       3.823   5.750  18.371  0.00  0.00    +0.000 NA
ATOM      9  H   UNL     1       4.301   6.760  15.771  0.00  0.00    +0.000 HD
ATOM     10  H   UNL     1       0.773   8.628  19.898  0.00  0.00    +0.000 HD
ENDROOT
BRANCH   7  11
ATOM     11  C   UNL     1       2.685   4.491  20.101  0.00  0.00    +0.000 A 
ATOM     12  C   UNL     1       1.478   4.222  20.771  0.00  0.00    +0.000 A 
ATOM     13  C   UNL     1       1.335   3.044  21.522  0.00  0.00    +0.000 A 
ATOM     14  C   UNL     1       2.404   2.159  21.568  0.00  0.00    +0.000 A 
ATOM     15  C   UNL     1       3.554   2.490  20.880  0.00  0.00    +0.000 A 
ATOM     16 CL   UNL     1       4.916   1.447  20.898  0.00  0.00    +0.000 Cl
ATOM     17  N   UNL     1       3.724   3.617  20.156  0.00  0.00    +0.000 NA
ENDBRANCH   7  11
BRANCH   1  19
ATOM     18  C   UNL     1       7.248   6.911  16.937  0.00  0.00    +0.000 C 
ATOM     19  C   UNL     1       6.012   6.022  16.719  0.00  0.00    +0.000 C 
BRANCH  19  20
ATOM     20  C   UNL     1       6.239   5.090  15.500  0.00  0.00    +0.000 C 
ATOM     21  F   UNL     1       7.454   5.295  14.927  0.00  0.00    +0.000 F 
ATOM     22  F   UNL     1       6.193   3.786  15.850  0.00  0.00    +0.000 F 
ATOM     23  F   UNL     1       5.325   5.300  14.526  0.00  0.00    +0.000 F 
ENDBRANCH  19  20
ENDBRANCH   1  19
BRANCH   5  24
ATOM     24  C   UNL     1       1.035   9.968  18.245  0.00  0.00    +0.000 C 
ATOM     25  C   UNL     1       1.833  11.234  18.605  0.00  0.00    +0.000 C 
BRANCH  24  26
ATOM     26  C   UNL     1      -0.477  10.320  18.172  0.00  0.00    +0.000 C 
ATOM     27  F   UNL     1      -0.713  11.645  18.053  0.00  0.00    +0.000 F 
ATOM     28  F   UNL     1      -1.084   9.721  17.116  0.00  0.00    +0.000 F 
ATOM     29  F   UNL     1      -1.120   9.888  19.283  0.00  0.00    +0.000 F 
ENDBRANCH  24  26
ENDBRANCH   5  24
TORSDOF 5
ENDMDL
MODEL 3
REMARK VINA RESULT:      -7.9      3.253      5.441
REMARK  Name = 
REMARK  7 active torsions:
REMARK  status: ('A' for Active; 'I' for Inactive)
REMARK    1  A    between atoms: C_1  and  C_2
REMARK    2  A    between atoms: C_2  and  N_3
REMARK    3  A    between atoms: C_2  and  C_24
REMARK    4  A    between atoms: N_7  and  C_8
REMARK    5  A    between atoms: C_8  and  C_9
REMARK    6  A    between atoms: C_8  and  C_10
REMARK    7  A    between atoms: C_15  and  C_16
REMARK                            x       y       z     vdW  Elec       q    Type
REMARK                         _______ _______ _______ _____ _____    ______ ____
ROOT
ATOM      1  N   UNL     1       1.745   5.423  20.382  0.00  0.00    +0.000 N 
ATOM      2  C   UNL     1       2.344   6.197  19.385  0.00  0.00    +0.000 A 
ATOM      3  N   UNL     1       1.867   7.437  19.215  0.00  0.00    +0.000 NA
ATOM      4  C   UNL     1       2.408   8.144  18.231  0.00  0.00    +0.000 A 
ATOM      5  N   UNL     1       1.894   9.364  17.840  0.00  0.00    +0.000 N 
ATOM      6  N   UNL     1       3.432   7.731  17.505  0.00  0.00    +0.000 NA
ATOM      7  C   UNL     1       3.890   6.506  17.785  0.00  0.00    +0.000 A 
ATOM      8  N   UNL     1       3.355   5.692  18.697  0.00  0.00    +0.000 NA
ATOM      9  H   UNL     1       2.137   5.783  21.251  0.00  0.00    +0.000 HD
ATOM     10  H   UNL     1       2.507   9.796  17.160  0.00  0.00    +0.000 HD
ENDROOT
BRANCH   7  11
ATOM     11  C   UNL     1       5.087   6.035  17.038  0.00  0.00    +0.000 A 
ATOM     12  C   UNL     1       6.390   6.322  17.480  0.00  0.00    +0.000 A 
ATOM     13  C   UNL     1       7.500   5.875  16.745  0.00  0.00    +0.000 A 
ATOM     14  C   UNL     1       7.272   5.137  15.592  0.00  0.00    +0.000 A 
ATOM     15  C   UNL     1       5.964   4.890  15.224  0.00  0.00    +0.000 A 
ATOM     16 CL   UNL     1       5.607   3.991  13.808  0.00  0.00    +0.000 Cl
ATOM     17  N   UNL     1       4.877   5.312  15.906  0.00  0.00    +0.000 NA
ENDBRANCH   7  11
BRANCH   1  19
ATOM     18  C   UNL     1       0.685   3.384  19.578  0.00  0.00    +0.000 C 
ATOM     19  C   UNL     1       1.934   3.943  20.282  0.00  0.00    +0.000 C 
BRANCH  19  20
ATOM     20  C   UNL     1       2.157   3.202  21.628  0.00  0.00    +0.000 C 
ATOM     21  F   UNL     1       3.163   2.292  21.543  0.00  0.00    +0.000 F 
ATOM     22  F   UNL     1       2.491   4.055  22.621  0.00  0.00    +0.000 F 
ATOM     23  F   UNL     1       1.058   2.513  22.012  0.00  0.00    +0.000 F 
ENDBRANCH  19  20
ENDBRANCH   1  19
BRANCH   5  24
ATOM     24  C   UNL     1       1.157  10.247  18.762  0.00  0.00    +0.000 C 
ATOM     25  C   UNL     1      -0.332  10.165  18.380  0.00  0.00    +0.000 C 
BRANCH  24  26
ATOM     26  C   UNL     1       1.589  11.738  18.822  0.00  0.00    +0.000 C 
ATOM     27  F   UNL     1       1.851  12.171  20.074  0.00  0.00    +0.000 F 
ATOM     28  F   UNL     1       2.707  11.971  18.089  0.00  0.00    +0.000 F 
ATOM     29  F   UNL     1       0.620  12.535  18.309  0.00  0.00    +0.000 F 
ENDBRANCH  24  26
ENDBRANCH   5  24
TORSDOF 5
ENDMDL
MODEL 4
REMARK VINA RESULT:      -7.9      3.251      5.394
REMARK  Name = 
REMARK  7 active torsions:
REMARK  status: ('A' for Active; 'I' for Inactive)
REMARK    1  A    between atoms: C_1  and  C_2
REMARK    2  A    between atoms: C_2  and  N_3
REMARK    3  A    between atoms: C_2  and  C_24
REMARK    4  A    between atoms: N_7  and  C_8
REMARK    5  A    between atoms: C_8  and  C_9
REMARK    6  A    between atoms: C_8  and  C_10
REMARK    7  A    between atoms: C_15  and  C_16
REMARK                            x       y       z     vdW  Elec       q    Type
REMARK                         _______ _______ _______ _____ _____    ______ ____
ROOT
ATOM      1  N   UNL     1       1.730   5.412  20.365  0.00  0.00    +0.000 N 
ATOM      2  C   UNL     1       2.331   6.187  19.370  0.00  0.00    +0.000 A 
ATOM      3  N   UNL     1       1.852   7.426  19.198  0.00  0.00    +0.000 NA
ATOM      4  C   UNL     1       2.394   8.134  18.216  0.00  0.00    +0.000 A 
ATOM      5  N   UNL     1       1.879   9.352  17.822  0.00  0.00    +0.000 N 
ATOM      6  N   UNL     1       3.423   7.724  17.495  0.00  0.00    +0.000 NA
ATOM      7  C   UNL     1       3.884   6.500  17.778  0.00  0.00    +0.000 A 
ATOM      8  N   UNL     1       3.346   5.685  18.688  0.00  0.00    +0.000 NA
ATOM      9  H   UNL     1       2.117   5.774  21.236  0.00  0.00    +0.000 HD
ATOM     10  H   UNL     1       2.494   9.785  17.145  0.00  0.00    +0.000 HD
ENDROOT
BRANCH   7  11
ATOM     11  C   UNL     1       5.085   6.033  17.036  0.00  0.00    +0.000 A 
ATOM     12  C   UNL     1       6.386   6.325  17.484  0.00  0.00    +0.000 A 
ATOM     13  C   UNL     1       7.501   5.880  16.755  0.00  0.00    +0.000 A 
ATOM     14  C   UNL     1       7.280   5.140  15.601  0.00  0.00    +0.000 A 
ATOM     15  C   UNL     1       5.974   4.888  15.228  0.00  0.00    +0.000 A 
ATOM     16 CL   UNL     1       5.626   3.986  13.811  0.00  0.00    +0.000 Cl
ATOM     17  N   UNL     1       4.883   5.307  15.905  0.00  0.00    +0.000 NA
ENDBRANCH   7  11
BRANCH   1  19
ATOM     18  C   UNL     1       0.671   3.367  19.576  0.00  0.00    +0.000 C 
ATOM     19  C   UNL     1       1.923   3.932  20.267  0.00  0.00    +0.000 C 
BRANCH  19  20
ATOM     20  C   UNL     1       2.162   3.196  21.613  0.00  0.00    +0.000 C 
ATOM     21  F   UNL     1       2.489   4.059  22.610  0.00  0.00    +0.000 F 
ATOM     22  F   UNL     1       1.059   2.531  22.023  0.00  0.00    +0.000 F 
ATOM     23  F   UNL     1       3.183   2.313  21.530  0.00  0.00    +0.000 F 
ENDBRANCH  19  20
ENDBRANCH   1  19
BRANCH   5  24
ATOM     24  C   UNL     1       1.135  10.233  18.740  0.00  0.00    +0.000 C 
ATOM     25  C   UNL     1      -0.350  10.163  18.339  0.00  0.00    +0.000 C 
BRANCH  24  26
ATOM     26  C   UNL     1       1.574  11.722  18.815  0.00  0.00    +0.000 C 
ATOM     27  F   UNL     1       0.646  12.579  18.336  0.00  0.00    +0.000 F 
ATOM     28  F   UNL     1       1.838  12.108  20.088  0.00  0.00    +0.000 F 
ATOM     29  F   UNL     1       2.714  11.917  18.109  0.00  0.00    +0.000 F 
ENDBRANCH  24  26
ENDBRANCH   5  24
TORSDOF 5
ENDMDL
MODEL 5
REMARK VINA RESULT:      -7.9      3.252      5.415
REMARK  Name = 
REMARK  7 active torsions:
REMARK  status: ('A' for Active; 'I' for Inactive)
REMARK    1  A    between atoms: C_1  and  C_2
REMARK    2  A    between atoms: C_2  and  N_3
REMARK    3  A    between atoms: C_2  and  C_24
REMARK    4  A    between atoms: N_7  and  C_8
REMARK    5  A    between atoms: C_8  and  C_9
REMARK    6  A    between atoms: C_8  and  C_10
REMARK    7  A    between atoms: C_15  and  C_16
REMARK                            x       y       z     vdW  Elec       q    Type
REMARK                         _______ _______ _______ _____ _____    ______ ____
ROOT
ATOM      1  N   UNL     1       1.736   5.411  20.369  0.00  0.00    +0.000 N 
ATOM      2  C   UNL     1       2.335   6.186  19.372  0.00  0.00    +0.000 A 
ATOM      3  N   UNL     1       1.853   7.423  19.199  0.00  0.00    +0.000 NA
ATOM      4  C   UNL     1       2.393   8.131  18.215  0.00  0.00    +0.000 A 
ATOM      5  N   UNL     1       1.875   9.347  17.820  0.00  0.00    +0.000 N 
ATOM      6  N   UNL     1       3.422   7.722  17.494  0.00  0.00    +0.000 NA
ATOM      7  C   UNL     1       3.885   6.499  17.778  0.00  0.00    +0.000 A 
ATOM      8  N   UNL     1       3.350   5.685  18.689  0.00  0.00    +0.000 NA
ATOM      9  H   UNL     1       2.123   5.775  21.238  0.00  0.00    +0.000 HD
ATOM     10  H   UNL     1       2.489   9.781  17.142  0.00  0.00    +0.000 HD
ENDROOT
BRANCH   7  11
ATOM     11  C   UNL     1       5.087   6.033  17.036  0.00  0.00    +0.000 A 
ATOM     12  C   UNL     1       6.387   6.324  17.485  0.00  0.00    +0.000 A 
ATOM     13  C   UNL     1       7.502   5.881  16.755  0.00  0.00    +0.000 A 
ATOM     14  C   UNL     1       7.282   5.143  15.599  0.00  0.00    +0.000 A 
ATOM     15  C   UNL     1       5.976   4.892  15.225  0.00  0.00    +0.000 A 
ATOM     16 CL   UNL     1       5.628   3.994  13.806  0.00  0.00    +0.000 Cl
ATOM     17  N   UNL     1       4.884   5.311  15.902  0.00  0.00    +0.000 NA
ENDBRANCH   7  11
BRANCH   1  19
ATOM     18  C   UNL     1       0.683   3.364  19.576  0.00  0.00    +0.000 C 
ATOM     19  C   UNL     1       1.932   3.931  20.273  0.00  0.00    +0.000 C 
BRANCH  19  20
ATOM     20  C   UNL     1       2.165   3.196  21.620  0.00  0.00    +0.000 C 
ATOM     21  F   UNL     1       1.058   2.522  22.026  0.00  0.00    +0.000 F 
ATOM     22  F   UNL     1       3.159   2.286  21.529  0.00  0.00    +0.000 F 
ATOM     23  F   UNL     1       2.468   4.057  22.618  0.00  0.00    +0.000 F 
ENDBRANCH  19  20
ENDBRANCH   1  19
BRANCH   5  24
ATOM     24  C   UNL     1       1.130  10.229  18.738  0.00  0.00    +0.000 C 
ATOM     25  C   UNL     1      -0.353  10.163  18.331  0.00  0.00    +0.000 C 
BRANCH  24  26
ATOM     26  C   UNL     1       1.573  11.716  18.817  0.00  0.00    +0.000 C 
ATOM     27  F   UNL     1       2.705  11.976  18.126  0.00  0.00    +0.000 F 
ATOM     28  F   UNL     1       0.622  12.553  18.332  0.00  0.00    +0.000 F 
ATOM     29  F   UNL     1       1.787  12.081  20.104  0.00  0.00    +0.000 F 
ENDBRANCH  24  26
ENDBRANCH   5  24
TORSDOF 5
ENDMDL
MODEL 6
REMARK VINA RESULT:      -7.8      3.293      6.946
REMARK  Name = 
REMARK  7 active torsions:
REMARK  status: ('A' for Active; 'I' for Inactive)
REMARK    1  A    between atoms: C_1  and  C_2
REMARK    2  A    between atoms: C_2  and  N_3
REMARK    3  A    between atoms: C_2  and  C_24
REMARK    4  A    between atoms: N_7  and  C_8
REMARK    5  A    between atoms: C_8  and  C_9
REMARK    6  A    between atoms: C_8  and  C_10
REMARK    7  A    between atoms: C_15  and  C_16
REMARK                            x       y       z     vdW  Elec       q    Type
REMARK                         _______ _______ _______ _____ _____    ______ ____
ROOT
ATOM      1  N   UNL     1       4.307   2.908  18.677  0.00  0.00    +0.000 N 
ATOM      2  C   UNL     1       4.420   4.180  18.111  0.00  0.00    +0.000 A 
ATOM      3  N   UNL     1       5.301   4.322  17.113  0.00  0.00    +0.000 NA
ATOM      4  C   UNL     1       5.438   5.546  16.620  0.00  0.00    +0.000 A 
ATOM      5  N   UNL     1       6.429   5.862  15.713  0.00  0.00    +0.000 N 
ATOM      6  N   UNL     1       4.692   6.573  16.985  0.00  0.00    +0.000 NA
ATOM      7  C   UNL     1       3.789   6.329  17.942  0.00  0.00    +0.000 A 
ATOM      8  N   UNL     1       3.641   5.153  18.554  0.00  0.00    +0.000 NA
ATOM      9  H   UNL     1       3.756   2.380  18.002  0.00  0.00    +0.000 HD
ATOM     10  H   UNL     1       6.297   6.805  15.370  0.00  0.00    +0.000 HD
ENDROOT
BRANCH   7  11
ATOM     11  C   UNL     1       2.883   7.444  18.328  0.00  0.00    +0.000 A 
ATOM     12  C   UNL     1       2.595   8.498  17.443  0.00  0.00    +0.000 A 
ATOM     13  C   UNL     1       1.745   9.543  17.842  0.00  0.00    +0.000 A 
ATOM     14  C   UNL     1       1.194   9.494  19.115  0.00  0.00    +0.000 A 
ATOM     15  C   UNL     1       1.519   8.422  19.925  0.00  0.00    +0.000 A 
ATOM     16 CL   UNL     1       0.881   8.299  21.512  0.00  0.00    +0.000 Cl
ATOM     17  N   UNL     1       2.337   7.408  19.572  0.00  0.00    +0.000 NA
ENDBRANCH   7  11
BRANCH   1  19
ATOM     18  C   UNL     1       4.512   1.796  20.833  0.00  0.00    +0.000 C 
ATOM     19  C   UNL     1       3.699   2.834  20.041  0.00  0.00    +0.000 C 
BRANCH  19  20
ATOM     20  C   UNL     1       2.191   2.470  20.085  0.00  0.00    +0.000 C 
ATOM     21  F   UNL     1       1.901   1.421  19.271  0.00  0.00    +0.000 F 
ATOM     22  F   UNL     1       1.796   2.115  21.328  0.00  0.00    +0.000 F 
ATOM     23  F   UNL     1       1.412   3.494  19.669  0.00  0.00    +0.000 F 
ENDBRANCH  19  20
ENDBRANCH   1  19
BRANCH   5  24
ATOM     24  C   UNL     1       7.005   4.868  14.789  0.00  0.00    +0.000 C 
ATOM     25  C   UNL     1       7.863   5.637  13.768  0.00  0.00    +0.000 C 
BRANCH  24  26
ATOM     26  C   UNL     1       6.017   3.940  14.030  0.00  0.00    +0.000 C 
ATOM     27  F   UNL     1       4.795   4.490  13.851  0.00  0.00    +0.000 F 
ATOM     28  F   UNL     1       6.478   3.610  12.797  0.00  0.00    +0.000 F 
ATOM     29  F   UNL     1       5.846   2.775  14.702  0.00  0.00    +0.000 F 
ENDBRANCH  24  26
ENDBRANCH   5  24
TORSDOF 5
ENDMDL
MODEL 7
REMARK VINA RESULT:      -7.8      3.290      6.942
REMARK  Name = 
REMARK  7 active torsions:
REMARK  status: ('A' for Active; 'I' for Inactive)
REMARK    1  A    between atoms: C_1  and  C_2
REMARK    2  A    between atoms: C_2  and  N_3
REMARK    3  A    between atoms: C_2  and  C_24
REMARK    4  A    between atoms: N_7  and  C_8
REMARK    5  A    between atoms: C_8  and  C_9
REMARK    6  A    between atoms: C_8  and  C_10
REMARK    7  A    between atoms: C_15  and  C_16
REMARK                            x       y       z     vdW  Elec       q    Type
REMARK                         _______ _______ _______ _____ _____    ______ ____
ROOT
ATOM      1  N   UNL     1       4.323   2.905  18.699  0.00  0.00    +0.000 N 
ATOM      2  C   UNL     1       4.430   4.176  18.129  0.00  0.00    +0.000 A 
ATOM      3  N   UNL     1       5.309   4.317  17.129  0.00  0.00    +0.000 NA
ATOM      4  C   UNL     1       5.441   5.540  16.631  0.00  0.00    +0.000 A 
ATOM      5  N   UNL     1       6.429   5.856  15.721  0.00  0.00    +0.000 N 
ATOM      6  N   UNL     1       4.692   6.566  16.994  0.00  0.00    +0.000 NA
ATOM      7  C   UNL     1       3.792   6.322  17.953  0.00  0.00    +0.000 A 
ATOM      8  N   UNL     1       3.649   5.148  18.570  0.00  0.00    +0.000 NA
ATOM      9  H   UNL     1       3.772   2.373  18.027  0.00  0.00    +0.000 HD
ATOM     10  H   UNL     1       6.293   6.797  15.375  0.00  0.00    +0.000 HD
ENDROOT
BRANCH   7  11
ATOM     11  C   UNL     1       2.883   7.435  18.337  0.00  0.00    +0.000 A 
ATOM     12  C   UNL     1       2.599   8.491  17.454  0.00  0.00    +0.000 A 
ATOM     13  C   UNL     1       1.747   9.535  17.851  0.00  0.00    +0.000 A 
ATOM     14  C   UNL     1       1.189   9.481  19.122  0.00  0.00    +0.000 A 
ATOM     15  C   UNL     1       1.510   8.408  19.930  0.00  0.00    +0.000 A 
ATOM     16 CL   UNL     1       0.863   8.280  21.513  0.00  0.00    +0.000 Cl
ATOM     17  N   UNL     1       2.331   7.395  19.579  0.00  0.00    +0.000 NA
ENDBRANCH   7  11
BRANCH   1  19
ATOM     18  C   UNL     1       4.532   1.797  20.857  0.00  0.00    +0.000 C 
ATOM     19  C   UNL     1       3.718   2.834  20.065  0.00  0.00    +0.000 C 
BRANCH  19  20
ATOM     20  C   UNL     1       2.210   2.469  20.112  0.00  0.00    +0.000 C 
ATOM     21  F   UNL     1       1.423   3.534  19.807  0.00  0.00    +0.000 F 
ATOM     22  F   UNL     1       1.901   1.495  19.229  0.00  0.00    +0.000 F 
ATOM     23  F   UNL     1       1.828   2.061  21.344  0.00  0.00    +0.000 F 
ENDBRANCH  19  20
ENDBRANCH   1  19
BRANCH   5  24
ATOM     24  C   UNL     1       7.007   4.861  14.799  0.00  0.00    +0.000 C 
ATOM     25  C   UNL     1       7.853   5.630  13.769  0.00  0.00    +0.000 C 
BRANCH  24  26
ATOM     26  C   UNL     1       6.020   3.921  14.051  0.00  0.00    +0.000 C 
ATOM     27  F   UNL     1       5.752   2.780  14.724  0.00  0.00    +0.000 F 
ATOM     28  F   UNL     1       4.827   4.524  13.819  0.00  0.00    +0.000 F 
ATOM     29  F   UNL     1       6.519   3.574  12.840  0.00  0.00    +0.000 F 
ENDBRANCH  24  26
ENDBRANCH   5  24
TORSDOF 5
ENDMDL
MODEL 8
REMARK VINA RESULT:      -7.8      3.107      5.303
REMARK  Name = 
REMARK  7 active torsions:
REMARK  status: ('A' for Active; 'I' for Inactive)
REMARK    1  A    between atoms: C_1  and  C_2
REMARK    2  A    between atoms: C_2  and  N_3
REMARK    3  A    between atoms: C_2  and  C_24
REMARK    4  A    between atoms: N_7  and  C_8
REMARK    5  A    between atoms: C_8  and  C_9
REMARK    6  A    between atoms: C_8  and  C_10
REMARK    7  A    between atoms: C_15  and  C_16
REMARK                            x       y       z     vdW  Elec       q    Type
REMARK                         _______ _______ _______ _____ _____    ______ ____
ROOT
ATOM      1  N   UNL     1       1.721   5.413  20.394  0.00  0.00    +0.000 N 
ATOM      2  C   UNL     1       2.329   6.155  19.379  0.00  0.00    +0.000 A 
ATOM      3  N   UNL     1       1.893   7.409  19.203  0.00  0.00    +0.000 NA
ATOM      4  C   UNL     1       2.442   8.086  18.202  0.00  0.00    +0.000 A 
ATOM      5  N   UNL     1       1.964   9.319  17.806  0.00  0.00    +0.000 N 
ATOM      6  N   UNL     1       3.439   7.631  17.466  0.00  0.00    +0.000 NA
ATOM      7  C   UNL     1       3.860   6.393  17.752  0.00  0.00    +0.000 A 
ATOM      8  N   UNL     1       3.311   5.608  18.681  0.00  0.00    +0.000 NA
ATOM      9  H   UNL     1       2.139   5.768  21.252  0.00  0.00    +0.000 HD
ATOM     10  H   UNL     1       2.581   9.722  17.112  0.00  0.00    +0.000 HD
ENDROOT
BRANCH   7  11
ATOM     11  C   UNL     1       5.027   5.874  16.991  0.00  0.00    +0.000 A 
ATOM     12  C   UNL     1       5.056   5.891  15.586  0.00  0.00    +0.000 A 
ATOM     13  C   UNL     1       6.168   5.381  14.896  0.00  0.00    +0.000 A 
ATOM     14  C   UNL     1       7.230   4.881  15.637  0.00  0.00    +0.000 A 
ATOM     15  C   UNL     1       7.132   4.904  17.015  0.00  0.00    +0.000 A 
ATOM     16 CL   UNL     1       8.403   4.297  17.994  0.00  0.00    +0.000 Cl
ATOM     17  N   UNL     1       6.074   5.381  17.706  0.00  0.00    +0.000 NA
ENDBRANCH   7  11
BRANCH   1  19
ATOM     18  C   UNL     1       0.551   3.397  19.689  0.00  0.00    +0.000 C 
ATOM     19  C   UNL     1       1.856   3.926  20.308  0.00  0.00    +0.000 C 
BRANCH  19  20
ATOM     20  C   UNL     1       2.137   3.198  21.650  0.00  0.00    +0.000 C 
ATOM     21  F   UNL     1       2.450   4.072  22.642  0.00  0.00    +0.000 F 
ATOM     22  F   UNL     1       1.062   2.499  22.076  0.00  0.00    +0.000 F 
ATOM     23  F   UNL     1       3.185   2.349  21.554  0.00  0.00    +0.000 F 
ENDBRANCH  19  20
ENDBRANCH   1  19
BRANCH   5  24
ATOM     24  C   UNL     1       1.272  10.236  18.730  0.00  0.00    +0.000 C 
ATOM     25  C   UNL     1      -0.233  10.150  18.418  0.00  0.00    +0.000 C 
BRANCH  24  26
ATOM     26  C   UNL     1       1.712  11.727  18.719  0.00  0.00    +0.000 C 
ATOM     27  F   UNL     1       1.997  12.211  19.948  0.00  0.00    +0.000 F 
ATOM     28  F   UNL     1       2.819  11.922  17.959  0.00  0.00    +0.000 F 
ATOM     29  F   UNL     1       0.738  12.506  18.189  0.00  0.00    +0.000 F 
ENDBRANCH  24  26
ENDBRANCH   5  24
TORSDOF 5
ENDMDL
MODEL 9
REMARK VINA RESULT:      -7.7      3.111      5.279
REMARK  Name = 
REMARK  7 active torsions:
REMARK  status: ('A' for Active; 'I' for Inactive)
REMARK    1  A    between atoms: C_1  and  C_2
REMARK    2  A    between atoms: C_2  and  N_3
REMARK    3  A    between atoms: C_2  and  C_24
REMARK    4  A    between atoms: N_7  and  C_8
REMARK    5  A    between atoms: C_8  and  C_9
REMARK    6  A    between atoms: C_8  and  C_10
REMARK    7  A    between atoms: C_15  and  C_16
REMARK                            x       y       z     vdW  Elec       q    Type
REMARK                         _______ _______ _______ _____ _____    ______ ____
ROOT
ATOM      1  N   UNL     1       1.704   5.407  20.371  0.00  0.00    +0.000 N 
ATOM      2  C   UNL     1       2.323   6.152  19.364  0.00  0.00    +0.000 A 
ATOM      3  N   UNL     1       1.883   7.403  19.182  0.00  0.00    +0.000 NA
ATOM      4  C   UNL     1       2.442   8.083  18.189  0.00  0.00    +0.000 A 
ATOM      5  N   UNL     1       1.964   9.313  17.786  0.00  0.00    +0.000 N 
ATOM      6  N   UNL     1       3.451   7.632  17.465  0.00  0.00    +0.000 NA
ATOM      7  C   UNL     1       3.873   6.396  17.757  0.00  0.00    +0.000 A 
ATOM      8  N   UNL     1       3.315   5.609  18.679  0.00  0.00    +0.000 NA
ATOM      9  H   UNL     1       2.109   5.764  21.235  0.00  0.00    +0.000 HD
ATOM     10  H   UNL     1       2.588   9.719  17.100  0.00  0.00    +0.000 HD
ENDROOT
BRANCH   7  11
ATOM     11  C   UNL     1       5.052   5.881  17.012  0.00  0.00    +0.000 A 
ATOM     12  C   UNL     1       5.101   5.903  15.607  0.00  0.00    +0.000 A 
ATOM     13  C   UNL     1       6.224   5.397  14.931  0.00  0.00    +0.000 A 
ATOM     14  C   UNL     1       7.277   4.897  15.686  0.00  0.00    +0.000 A 
ATOM     15  C   UNL     1       7.158   4.916  17.062  0.00  0.00    +0.000 A 
ATOM     16 CL   UNL     1       8.416   4.308  18.058  0.00  0.00    +0.000 Cl
ATOM     17  N   UNL     1       6.089   5.388  17.739  0.00  0.00    +0.000 NA
ENDBRANCH   7  11
BRANCH   1  19
ATOM     18  C   UNL     1       0.546   3.385  19.665  0.00  0.00    +0.000 C 
ATOM     19  C   UNL     1       1.847   3.920  20.287  0.00  0.00    +0.000 C 
BRANCH  19  20
ATOM     20  C   UNL     1       2.127   3.196  21.631  0.00  0.00    +0.000 C 
ATOM     21  F   UNL     1       1.042   2.505  22.068  0.00  0.00    +0.000 F 
ATOM     22  F   UNL     1       3.134   2.302  21.519  0.00  0.00    +0.000 F 
ATOM     23  F   UNL     1       2.441   4.067  22.617  0.00  0.00    +0.000 F 
ENDBRANCH  19  20
ENDBRANCH   1  19
BRANCH   5  24
ATOM     24  C   UNL     1       1.257  10.228  18.701  0.00  0.00    +0.000 C 
ATOM     25  C   UNL     1      -0.243  10.142  18.364  0.00  0.00    +0.000 C 
BRANCH  24  26
ATOM     26  C   UNL     1       1.696  11.719  18.700  0.00  0.00    +0.000 C 
ATOM     27  F   UNL     1       0.738  12.560  18.252  0.00  0.00    +0.000 F 
ATOM     28  F   UNL     1       2.035  12.146  19.943  0.00  0.00    +0.000 F 
ATOM     29  F   UNL     1       2.790  11.893  17.921  0.00  0.00    +0.000 F 
ENDBRANCH  24  26
ENDBRANCH   5  24
TORSDOF 5
ENDMDL
