MODEL 1
REMARK VINA RESULT:      -7.3      0.000      0.000
REMARK  Name = 
REMARK  6 active torsions:
REMARK  status: ('A' for Active; 'I' for Inactive)
REMARK    1  A    between atoms: C_1  and  O_2
REMARK    2  A    between atoms: O_2  and  C_3
REMARK    3  A    between atoms: C_6  and  S_7
REMARK    4  A    between atoms: S_7  and  N_10
REMARK    5  A    between atoms: C_17  and  C_18
REMARK    6  A    between atoms: N_20  and  O_21
REMARK                            x       y       z     vdW  Elec       q    Type
REMARK                         _______ _______ _______ _____ _____    ______ ____
ROOT
ATOM      1  N   UNL     1       3.241   4.946  17.777  0.00  0.00    +0.000 NA
ATOM      2  C   UNL     1       1.781   4.715  17.854  0.00  0.00    +0.000 C 
ATOM      3  C   UNL     1       1.387   4.149  19.194  0.00  0.00    +0.000 C 
ATOM      4  S   UNL     1       2.299   2.667  19.558  0.00  0.00    +0.000 S 
ATOM      5  O   UNL     1       2.249   2.471  20.993  0.00  0.00    +0.000 OA
ATOM      6  O   UNL     1       1.823   1.635  18.654  0.00  0.00    +0.000 OA
ATOM      7  C   UNL     1       3.988   3.023  19.120  0.00  0.00    +0.000 C 
ATOM      8  C   UNL     1       4.020   3.680  17.759  0.00  0.00    +0.000 C 
ENDROOT
BRANCH   8   9
ATOM      9  C   UNL     1       5.419   3.748  17.171  0.00  0.00    +0.000 C 
ATOM     10  O   UNL     1       5.656   3.711  15.964  0.00  0.00    +0.000 OA
ATOM     11  N   UNL     1       6.401   3.968  18.118  0.00  0.00    +0.000 N 
ATOM     12  H   UNL     1       6.307   3.556  19.044  0.00  0.00    +0.000 HD
BRANCH  11  13
ATOM     13  O   UNL     1       7.725   4.032  17.622  0.00  0.00    +0.000 OA
ATOM     14  H   UNL     1       7.690   4.784  16.993  0.00  0.00    +0.000 HD
ENDBRANCH  11  13
ENDBRANCH   8   9
BRANCH   1  15
ATOM     15  S   UNL     1       3.892   6.451  18.203  0.00  0.00    +0.000 S 
ATOM     16  O   UNL     1       4.489   6.996  17.003  0.00  0.00    +0.000 OA
ATOM     17  O   UNL     1       4.692   6.253  19.392  0.00  0.00    +0.000 OA
BRANCH  15  21
ATOM     18  C   UNL     1       0.695   9.496  19.468  0.00  0.00    +0.000 A 
ATOM     19  C   UNL     1       1.169   8.557  20.383  0.00  0.00    +0.000 A 
ATOM     20  C   UNL     1       2.099   7.582  19.982  0.00  0.00    +0.000 A 
ATOM     21  C   UNL     1       2.539   7.530  18.653  0.00  0.00    +0.000 A 
ATOM     22  C   UNL     1       2.072   8.479  17.737  0.00  0.00    +0.000 A 
ATOM     23  C   UNL     1       1.139   9.442  18.143  0.00  0.00    +0.000 A 
BRANCH  18  25
ATOM     24  C   UNL     1      -0.946  10.997  18.629  0.00  0.00    +0.000 C 
ATOM     25  O   UNL     1      -0.203  10.492  19.736  0.00  0.00    +0.000 OA
ENDBRANCH  18  25
ENDBRANCH  15  21
ENDBRANCH   1  15
TORSDOF 5
ENDMDL
MODEL 2
REMARK VINA RESULT:      -7.0      1.926      3.754
REMARK  Name = 
REMARK  6 active torsions:
REMARK  status: ('A' for Active; 'I' for Inactive)
REMARK    1  A    between atoms: C_1  and  O_2
REMARK    2  A    between atoms: O_2  and  C_3
REMARK    3  A    between atoms: C_6  and  S_7
REMARK    4  A    between atoms: S_7  and  N_10
REMARK    5  A    between atoms: C_17  and  C_18
REMARK    6  A    between atoms: N_20  and  O_21
REMARK                            x       y       z     vdW  Elec       q    Type
REMARK                         _______ _______ _______ _____ _____    ______ ____
ROOT
ATOM      1  N   UNL     1       4.444   5.295  18.772  0.00  0.00    +0.000 NA
ATOM      2  C   UNL     1       5.238   6.533  18.605  0.00  0.00    +0.000 C 
ATOM      3  C   UNL     1       5.434   6.866  17.149  0.00  0.00    +0.000 C 
ATOM      4  S   UNL     1       6.165   5.504  16.272  0.00  0.00    +0.000 S 
ATOM      5  O   UNL     1       5.872   5.688  14.865  0.00  0.00    +0.000 OA
ATOM      6  O   UNL     1       7.537   5.382  16.730  0.00  0.00    +0.000 OA
ATOM      7  C   UNL     1       5.289   4.054  16.820  0.00  0.00    +0.000 C 
ATOM      8  C   UNL     1       5.179   4.081  18.328  0.00  0.00    +0.000 C 
ENDROOT
BRANCH   8   9
ATOM      9  C   UNL     1       4.719   2.755  18.909  0.00  0.00    +0.000 C 
ATOM     10  O   UNL     1       4.881   2.431  20.085  0.00  0.00    +0.000 OA
ATOM     11  N   UNL     1       3.998   1.987  18.016  0.00  0.00    +0.000 N 
ATOM     12  H   UNL     1       4.245   1.999  17.028  0.00  0.00    +0.000 HD
BRANCH  11  13
ATOM     13  O   UNL     1       3.551   0.736  18.506  0.00  0.00    +0.000 OA
ATOM     14  H   UNL     1       4.385   0.229  18.611  0.00  0.00    +0.000 HD
ENDBRANCH  11  13
ENDBRANCH   8   9
BRANCH   1  15
ATOM     15  S   UNL     1       2.759   5.375  18.933  0.00  0.00    +0.000 S 
ATOM     16  O   UNL     1       2.438   4.761  20.202  0.00  0.00    +0.000 OA
ATOM     17  O   UNL     1       2.185   4.864  17.707  0.00  0.00    +0.000 OA
BRANCH  15  21
ATOM     18  C   UNL     1       1.191   9.685  19.164  0.00  0.00    +0.000 A 
ATOM     19  C   UNL     1       1.643   9.168  17.950  0.00  0.00    +0.000 A 
ATOM     20  C   UNL     1       2.184   7.873  17.889  0.00  0.00    +0.000 A 
ATOM     21  C   UNL     1       2.297   7.098  19.051  0.00  0.00    +0.000 A 
ATOM     22  C   UNL     1       1.834   7.613  20.267  0.00  0.00    +0.000 A 
ATOM     23  C   UNL     1       1.304   8.908  20.321  0.00  0.00    +0.000 A 
BRANCH  18  25
ATOM     24  C   UNL     1      -0.672  10.966  19.896  0.00  0.00    +0.000 C 
ATOM     25  O   UNL     1       0.644  10.924  19.351  0.00  0.00    +0.000 OA
ENDBRANCH  18  25
ENDBRANCH  15  21
ENDBRANCH   1  15
TORSDOF 5
ENDMDL
MODEL 3
REMARK VINA RESULT:      -6.7      0.537      1.140
REMARK  Name = 
REMARK  6 active torsions:
REMARK  status: ('A' for Active; 'I' for Inactive)
REMARK    1  A    between atoms: C_1  and  O_2
REMARK    2  A    between atoms: O_2  and  C_3
REMARK    3  A    between atoms: C_6  and  S_7
REMARK    4  A    between atoms: S_7  and  N_10
REMARK    5  A    between atoms: C_17  and  C_18
REMARK    6  A    between atoms: N_20  and  O_21
REMARK                            x       y       z     vdW  Elec       q    Type
REMARK                         _______ _______ _______ _____ _____    ______ ____
ROOT
ATOM      1  N   UNL     1       3.235   5.107  17.581  0.00  0.00    +0.000 NA
ATOM      2  C   UNL     1       1.772   4.960  17.748  0.00  0.00    +0.000 C 
ATOM      3  C   UNL     1       1.439   4.125  18.957  0.00  0.00    +0.000 C 
ATOM      4  S   UNL     1       2.246   2.542  18.885  0.00  0.00    +0.000 S 
ATOM      5  O   UNL     1       2.296   2.020  20.235  0.00  0.00    +0.000 OA
ATOM      6  O   UNL     1       1.611   1.783  17.823  0.00  0.00    +0.000 OA
ATOM      7  C   UNL     1       3.918   2.878  18.374  0.00  0.00    +0.000 C 
ATOM      8  C   UNL     1       3.897   3.831  17.201  0.00  0.00    +0.000 C 
ENDROOT
BRANCH   8   9
ATOM      9  C   UNL     1       5.245   3.942  16.507  0.00  0.00    +0.000 C 
ATOM     10  O   UNL     1       5.384   3.980  15.286  0.00  0.00    +0.000 OA
ATOM     11  N   UNL     1       6.299   4.111  17.384  0.00  0.00    +0.000 N 
ATOM     12  H   UNL     1       6.279   3.643  18.288  0.00  0.00    +0.000 HD
BRANCH  11  13
ATOM     13  O   UNL     1       7.579   4.212  16.789  0.00  0.00    +0.000 OA
ATOM     14  H   UNL     1       7.374   4.478  15.867  0.00  0.00    +0.000 HD
ENDBRANCH  11  13
ENDBRANCH   8   9
BRANCH   1  15
ATOM     15  S   UNL     1       4.047   6.425  18.270  0.00  0.00    +0.000 S 
ATOM     16  O   UNL     1       4.872   6.991  17.226  0.00  0.00    +0.000 OA
ATOM     17  O   UNL     1       4.643   5.965  19.505  0.00  0.00    +0.000 OA
BRANCH  15  21
ATOM     18  C   UNL     1       0.631   9.334  19.254  0.00  0.00    +0.000 A 
ATOM     19  C   UNL     1       1.245   9.372  18.003  0.00  0.00    +0.000 A 
ATOM     20  C   UNL     1       2.333   8.528  17.721  0.00  0.00    +0.000 A 
ATOM     21  C   UNL     1       2.827   7.659  18.702  0.00  0.00    +0.000 A 
ATOM     22  C   UNL     1       2.205   7.613  19.955  0.00  0.00    +0.000 A 
ATOM     23  C   UNL     1       1.126   8.464  20.231  0.00  0.00    +0.000 A 
BRANCH  18  25
ATOM     24  C   UNL     1      -1.236  10.655  18.611  0.00  0.00    +0.000 C 
ATOM     25  O   UNL     1      -0.432  10.098  19.647  0.00  0.00    +0.000 OA
ENDBRANCH  18  25
ENDBRANCH  15  21
ENDBRANCH   1  15
TORSDOF 5
ENDMDL
MODEL 4
REMARK VINA RESULT:      -6.6      1.896      3.613
REMARK  Name = 
REMARK  6 active torsions:
REMARK  status: ('A' for Active; 'I' for Inactive)
REMARK    1  A    between atoms: C_1  and  O_2
REMARK    2  A    between atoms: O_2  and  C_3
REMARK    3  A    between atoms: C_6  and  S_7
REMARK    4  A    between atoms: S_7  and  N_10
REMARK    5  A    between atoms: C_17  and  C_18
REMARK    6  A    between atoms: N_20  and  O_21
REMARK                            x       y       z     vdW  Elec       q    Type
REMARK                         _______ _______ _______ _____ _____    ______ ____
ROOT
ATOM      1  N   UNL     1       4.265   5.297  18.500  0.00  0.00    +0.000 NA
ATOM      2  C   UNL     1       5.050   6.467  18.048  0.00  0.00    +0.000 C 
ATOM      3  C   UNL     1       5.128   6.526  16.545  0.00  0.00    +0.000 C 
ATOM      4  S   UNL     1       5.775   5.012  15.875  0.00  0.00    +0.000 S 
ATOM      5  O   UNL     1       5.368   4.945  14.486  0.00  0.00    +0.000 OA
ATOM      6  O   UNL     1       7.179   4.946  16.237  0.00  0.00    +0.000 OA
ATOM      7  C   UNL     1       4.937   3.704  16.747  0.00  0.00    +0.000 C 
ATOM      8  C   UNL     1       4.952   4.007  18.228  0.00  0.00    +0.000 C 
ENDROOT
BRANCH   8   9
ATOM      9  C   UNL     1       4.533   2.818  19.077  0.00  0.00    +0.000 C 
ATOM     10  O   UNL     1       3.679   2.001  18.734  0.00  0.00    +0.000 OA
ATOM     11  N   UNL     1       5.283   2.676  20.228  0.00  0.00    +0.000 N 
ATOM     12  H   UNL     1       5.610   3.505  20.720  0.00  0.00    +0.000 HD
BRANCH  11  13
ATOM     13  O   UNL     1       4.928   1.587  21.059  0.00  0.00    +0.000 OA
ATOM     14  H   UNL     1       4.251   1.114  20.527  0.00  0.00    +0.000 HD
ENDBRANCH  11  13
ENDBRANCH   8   9
BRANCH   1  15
ATOM     15  S   UNL     1       2.599   5.441  18.778  0.00  0.00    +0.000 S 
ATOM     16  O   UNL     1       2.341   4.825  20.061  0.00  0.00    +0.000 OA
ATOM     17  O   UNL     1       1.922   4.966  17.590  0.00  0.00    +0.000 OA
BRANCH  15  21
ATOM     18  C   UNL     1       1.225   9.808  19.143  0.00  0.00    +0.000 A 
ATOM     19  C   UNL     1       1.605   9.294  17.903  0.00  0.00    +0.000 A 
ATOM     20  C   UNL     1       2.088   7.978  17.798  0.00  0.00    +0.000 A 
ATOM     21  C   UNL     1       2.215   7.179  18.942  0.00  0.00    +0.000 A 
ATOM     22  C   UNL     1       1.825   7.691  20.185  0.00  0.00    +0.000 A 
ATOM     23  C   UNL     1       1.353   9.006  20.281  0.00  0.00    +0.000 A 
BRANCH  18  25
ATOM     24  C   UNL     1      -0.439  11.158  20.169  0.00  0.00    +0.000 C 
ATOM     25  O   UNL     1       0.739  11.065  19.372  0.00  0.00    +0.000 OA
ENDBRANCH  18  25
ENDBRANCH  15  21
ENDBRANCH   1  15
TORSDOF 5
ENDMDL
MODEL 5
REMARK VINA RESULT:      -6.6      2.119      3.737
REMARK  Name = 
REMARK  6 active torsions:
REMARK  status: ('A' for Active; 'I' for Inactive)
REMARK    1  A    between atoms: C_1  and  O_2
REMARK    2  A    between atoms: O_2  and  C_3
REMARK    3  A    between atoms: C_6  and  S_7
REMARK    4  A    between atoms: S_7  and  N_10
REMARK    5  A    between atoms: C_17  and  C_18
REMARK    6  A    between atoms: N_20  and  O_21
REMARK                            x       y       z     vdW  Elec       q    Type
REMARK                         _______ _______ _______ _____ _____    ______ ____
ROOT
ATOM      1  N   UNL     1       4.683   6.028  17.958  0.00  0.00    +0.000 NA
ATOM      2  C   UNL     1       4.988   7.108  16.994  0.00  0.00    +0.000 C 
ATOM      3  C   UNL     1       4.866   6.623  15.572  0.00  0.00    +0.000 C 
ATOM      4  S   UNL     1       5.886   5.195  15.292  0.00  0.00    +0.000 S 
ATOM      5  O   UNL     1       5.364   4.512  14.125  0.00  0.00    +0.000 OA
ATOM      6  O   UNL     1       7.268   5.638  15.330  0.00  0.00    +0.000 OA
ATOM      7  C   UNL     1       5.627   4.135  16.699  0.00  0.00    +0.000 C 
ATOM      8  C   UNL     1       5.716   4.958  17.963  0.00  0.00    +0.000 C 
ENDROOT
BRANCH   8   9
ATOM      9  C   UNL     1       5.807   4.105  19.218  0.00  0.00    +0.000 C 
ATOM     10  O   UNL     1       6.328   4.483  20.265  0.00  0.00    +0.000 OA
ATOM     11  N   UNL     1       5.147   2.896  19.105  0.00  0.00    +0.000 N 
ATOM     12  H   UNL     1       5.140   2.408  18.212  0.00  0.00    +0.000 HD
BRANCH  11  13
ATOM     13  O   UNL     1       5.208   2.058  20.245  0.00  0.00    +0.000 OA
ATOM     14  H   UNL     1       6.129   2.182  20.561  0.00  0.00    +0.000 HD
ENDBRANCH  11  13
ENDBRANCH   8   9
BRANCH   1  15
ATOM     15  S   UNL     1       3.106   5.824  18.543  0.00  0.00    +0.000 S 
ATOM     16  O   UNL     1       3.225   5.180  19.833  0.00  0.00    +0.000 OA
ATOM     17  O   UNL     1       2.333   5.207  17.487  0.00  0.00    +0.000 OA
BRANCH  15  21
ATOM     18  C   UNL     1       0.951   9.827  19.193  0.00  0.00    +0.000 A 
ATOM     19  C   UNL     1       1.448   9.495  17.933  0.00  0.00    +0.000 A 
ATOM     20  C   UNL     1       2.165   8.301  17.745  0.00  0.00    +0.000 A 
ATOM     21  C   UNL     1       2.408   7.445  18.827  0.00  0.00    +0.000 A 
ATOM     22  C   UNL     1       1.901   7.773  20.090  0.00  0.00    +0.000 A 
ATOM     23  C   UNL     1       1.195   8.969  20.270  0.00  0.00    +0.000 A 
BRANCH  18  25
ATOM     24  C   UNL     1       0.849  11.867  20.408  0.00  0.00    +0.000 C 
ATOM     25  O   UNL     1       0.239  10.953  19.501  0.00  0.00    +0.000 OA
ENDBRANCH  18  25
ENDBRANCH  15  21
ENDBRANCH   1  15
TORSDOF 5
ENDMDL
MODEL 6
REMARK VINA RESULT:      -6.5      0.840      1.042
REMARK  Name = 
REMARK  6 active torsions:
REMARK  status: ('A' for Active; 'I' for Inactive)
REMARK    1  A    between atoms: C_1  and  O_2
REMARK    2  A    between atoms: O_2  and  C_3
REMARK    3  A    between atoms: C_6  and  S_7
REMARK    4  A    between atoms: S_7  and  N_10
REMARK    5  A    between atoms: C_17  and  C_18
REMARK    6  A    between atoms: N_20  and  O_21
REMARK                            x       y       z     vdW  Elec       q    Type
REMARK                         _______ _______ _______ _____ _____    ______ ____
ROOT
ATOM      1  N   UNL     1       3.206   5.094  17.591  0.00  0.00    +0.000 NA
ATOM      2  C   UNL     1       1.767   4.811  17.789  0.00  0.00    +0.000 C 
ATOM      3  C   UNL     1       1.524   4.098  19.094  0.00  0.00    +0.000 C 
ATOM      4  S   UNL     1       2.499   2.616  19.207  0.00  0.00    +0.000 S 
ATOM      5  O   UNL     1       2.600   2.271  20.611  0.00  0.00    +0.000 OA
ATOM      6  O   UNL     1       1.954   1.668  18.252  0.00  0.00    +0.000 OA
ATOM      7  C   UNL     1       4.126   3.067  18.643  0.00  0.00    +0.000 C 
ATOM      8  C   UNL     1       4.005   3.861  17.363  0.00  0.00    +0.000 C 
ENDROOT
BRANCH   8   9
ATOM      9  C   UNL     1       5.335   4.032  16.647  0.00  0.00    +0.000 C 
ATOM     10  O   UNL     1       6.417   4.107  17.226  0.00  0.00    +0.000 OA
ATOM     11  N   UNL     1       5.226   3.984  15.271  0.00  0.00    +0.000 N 
ATOM     12  H   UNL     1       4.402   4.375  14.818  0.00  0.00    +0.000 HD
BRANCH  11  13
ATOM     13  O   UNL     1       6.436   4.146  14.556  0.00  0.00    +0.000 OA
ATOM     14  H   UNL     1       6.270   4.950  14.018  0.00  0.00    +0.000 HD
ENDBRANCH  11  13
ENDBRANCH   8   9
BRANCH   1  15
ATOM     15  S   UNL     1       3.867   6.567  18.106  0.00  0.00    +0.000 S 
ATOM     16  O   UNL     1       4.484   7.169  16.945  0.00  0.00    +0.000 OA
ATOM     17  O   UNL     1       4.650   6.296  19.293  0.00  0.00    +0.000 OA
BRANCH  15  21
ATOM     18  C   UNL     1       0.685   9.578  19.484  0.00  0.00    +0.000 A 
ATOM     19  C   UNL     1       1.166   8.613  20.368  0.00  0.00    +0.000 A 
ATOM     20  C   UNL     1       2.091   7.649  19.932  0.00  0.00    +0.000 A 
ATOM     21  C   UNL     1       2.519   7.634  18.598  0.00  0.00    +0.000 A 
ATOM     22  C   UNL     1       2.045   8.608  17.713  0.00  0.00    +0.000 A 
ATOM     23  C   UNL     1       1.117   9.560  18.154  0.00  0.00    +0.000 A 
BRANCH  18  25
ATOM     24  C   UNL     1      -1.359  10.667  18.950  0.00  0.00    +0.000 C 
ATOM     25  O   UNL     1      -0.210  10.566  19.787  0.00  0.00    +0.000 OA
ENDBRANCH  18  25
ENDBRANCH  15  21
ENDBRANCH   1  15
TORSDOF 5
ENDMDL
MODEL 7
REMARK VINA RESULT:      -6.4      1.404      1.463
REMARK  Name = 
REMARK  6 active torsions:
REMARK  status: ('A' for Active; 'I' for Inactive)
REMARK    1  A    between atoms: C_1  and  O_2
REMARK    2  A    between atoms: O_2  and  C_3
REMARK    3  A    between atoms: C_6  and  S_7
REMARK    4  A    between atoms: S_7  and  N_10
REMARK    5  A    between atoms: C_17  and  C_18
REMARK    6  A    between atoms: N_20  and  O_21
REMARK                            x       y       z     vdW  Elec       q    Type
REMARK                         _______ _______ _______ _____ _____    ______ ____
ROOT
ATOM      1  N   UNL     1       3.632   5.037  17.288  0.00  0.00    +0.000 NA
ATOM      2  C   UNL     1       2.416   4.509  17.945  0.00  0.00    +0.000 C 
ATOM      3  C   UNL     1       2.752   3.805  19.234  0.00  0.00    +0.000 C 
ATOM      4  S   UNL     1       3.954   2.523  18.971  0.00  0.00    +0.000 S 
ATOM      5  O   UNL     1       4.577   2.246  20.249  0.00  0.00    +0.000 OA
ATOM      6  O   UNL     1       3.300   1.465  18.223  0.00  0.00    +0.000 OA
ATOM      7  C   UNL     1       5.194   3.238  17.910  0.00  0.00    +0.000 C 
ATOM      8  C   UNL     1       4.514   3.958  16.768  0.00  0.00    +0.000 C 
ENDROOT
BRANCH   8   9
ATOM      9  C   UNL     1       5.477   4.341  15.656  0.00  0.00    +0.000 C 
ATOM     10  O   UNL     1       5.214   4.237  14.459  0.00  0.00    +0.000 OA
ATOM     11  N   UNL     1       6.641   4.925  16.118  0.00  0.00    +0.000 N 
ATOM     12  H   UNL     1       7.048   4.608  16.996  0.00  0.00    +0.000 HD
BRANCH  11  13
ATOM     13  O   UNL     1       7.576   5.294  15.122  0.00  0.00    +0.000 OA
ATOM     14  H   UNL     1       8.437   5.213  15.586  0.00  0.00    +0.000 HD
ENDBRANCH  11  13
ENDBRANCH   8   9
BRANCH   1  15
ATOM     15  S   UNL     1       4.155   6.619  17.598  0.00  0.00    +0.000 S 
ATOM     16  O   UNL     1       4.406   7.229  16.311  0.00  0.00    +0.000 OA
ATOM     17  O   UNL     1       5.207   6.538  18.587  0.00  0.00    +0.000 OA
BRANCH  15  21
ATOM     18  C   UNL     1       0.943   9.178  19.654  0.00  0.00    +0.000 A 
ATOM     19  C   UNL     1       1.545   8.124  20.341  0.00  0.00    +0.000 A 
ATOM     20  C   UNL     1       2.480   7.298  19.694  0.00  0.00    +0.000 A 
ATOM     21  C   UNL     1       2.798   7.511  18.347  0.00  0.00    +0.000 A 
ATOM     22  C   UNL     1       2.202   8.575  17.660  0.00  0.00    +0.000 A 
ATOM     23  C   UNL     1       1.264   9.388  18.309  0.00  0.00    +0.000 A 
BRANCH  18  25
ATOM     24  C   UNL     1       0.461  10.868  21.254  0.00  0.00    +0.000 C 
ATOM     25  O   UNL     1       0.025  10.050  20.172  0.00  0.00    +0.000 OA
ENDBRANCH  18  25
ENDBRANCH  15  21
ENDBRANCH   1  15
TORSDOF 5
ENDMDL
MODEL 8
REMARK VINA RESULT:      -6.4      2.002      3.663
REMARK  Name = 
REMARK  6 active torsions:
REMARK  status: ('A' for Active; 'I' for Inactive)
REMARK    1  A    between atoms: C_1  and  O_2
REMARK    2  A    between atoms: O_2  and  C_3
REMARK    3  A    between atoms: C_6  and  S_7
REMARK    4  A    between atoms: S_7  and  N_10
REMARK    5  A    between atoms: C_17  and  C_18
REMARK    6  A    between atoms: N_20  and  O_21
REMARK                            x       y       z     vdW  Elec       q    Type
REMARK                         _______ _______ _______ _____ _____    ______ ____
ROOT
ATOM      1  N   UNL     1       4.335   5.271  18.723  0.00  0.00    +0.000 NA
ATOM      2  C   UNL     1       5.029   6.569  18.576  0.00  0.00    +0.000 C 
ATOM      3  C   UNL     1       5.258   6.906  17.125  0.00  0.00    +0.000 C 
ATOM      4  S   UNL     1       6.137   5.603  16.295  0.00  0.00    +0.000 S 
ATOM      5  O   UNL     1       5.889   5.750  14.875  0.00  0.00    +0.000 OA
ATOM      6  O   UNL     1       7.494   5.601  16.811  0.00  0.00    +0.000 OA
ATOM      7  C   UNL     1       5.363   4.089  16.824  0.00  0.00    +0.000 C 
ATOM      8  C   UNL     1       5.187   4.119  18.325  0.00  0.00    +0.000 C 
ENDROOT
BRANCH   8   9
ATOM      9  C   UNL     1       4.815   2.763  18.902  0.00  0.00    +0.000 C 
ATOM     10  O   UNL     1       4.974   2.456  20.082  0.00  0.00    +0.000 OA
ATOM     11  N   UNL     1       4.174   1.941  17.996  0.00  0.00    +0.000 N 
ATOM     12  H   UNL     1       4.442   1.969  17.014  0.00  0.00    +0.000 HD
BRANCH  11  13
ATOM     13  O   UNL     1       3.812   0.661  18.482  0.00  0.00    +0.000 OA
ATOM     14  H   UNL     1       4.641   0.339  18.897  0.00  0.00    +0.000 HD
ENDBRANCH  11  13
ENDBRANCH   8   9
BRANCH   1  15
ATOM     15  S   UNL     1       2.644   5.210  18.813  0.00  0.00    +0.000 S 
ATOM     16  O   UNL     1       2.321   4.549  20.059  0.00  0.00    +0.000 OA
ATOM     17  O   UNL     1       2.165   4.676  17.556  0.00  0.00    +0.000 OA
BRANCH  15  21
ATOM     18  C   UNL     1       1.471   9.635  19.179  0.00  0.00    +0.000 A 
ATOM     19  C   UNL     1       1.510   8.825  20.313  0.00  0.00    +0.000 A 
ATOM     20  C   UNL     1       1.804   7.455  20.196  0.00  0.00    +0.000 A 
ATOM     21  C   UNL     1       2.038   6.888  18.937  0.00  0.00    +0.000 A 
ATOM     22  C   UNL     1       2.009   7.703  17.800  0.00  0.00    +0.000 A 
ATOM     23  C   UNL     1       1.706   9.065  17.924  0.00  0.00    +0.000 A 
BRANCH  18  25
ATOM     24  C   UNL     1       0.931  11.588  20.420  0.00  0.00    +0.000 C 
ATOM     25  O   UNL     1       1.202  10.976  19.162  0.00  0.00    +0.000 OA
ENDBRANCH  18  25
ENDBRANCH  15  21
ENDBRANCH   1  15
TORSDOF 5
ENDMDL
MODEL 9
REMARK VINA RESULT:      -6.4      1.541      1.849
REMARK  Name = 
REMARK  6 active torsions:
REMARK  status: ('A' for Active; 'I' for Inactive)
REMARK    1  A    between atoms: C_1  and  O_2
REMARK    2  A    between atoms: O_2  and  C_3
REMARK    3  A    between atoms: C_6  and  S_7
REMARK    4  A    between atoms: S_7  and  N_10
REMARK    5  A    between atoms: C_17  and  C_18
REMARK    6  A    between atoms: N_20  and  O_21
REMARK                            x       y       z     vdW  Elec       q    Type
REMARK                         _______ _______ _______ _____ _____    ______ ____
ROOT
ATOM      1  N   UNL     1       4.928   4.888  17.057  0.00  0.00    +0.000 NA
ATOM      2  C   UNL     1       3.823   4.134  16.425  0.00  0.00    +0.000 C 
ATOM      3  C   UNL     1       2.708   3.873  17.405  0.00  0.00    +0.000 C 
ATOM      4  S   UNL     1       3.311   3.047  18.859  0.00  0.00    +0.000 S 
ATOM      5  O   UNL     1       2.346   3.273  19.915  0.00  0.00    +0.000 OA
ATOM      6  O   UNL     1       3.676   1.698  18.468  0.00  0.00    +0.000 OA
ATOM      7  C   UNL     1       4.811   3.897  19.307  0.00  0.00    +0.000 C 
ATOM      8  C   UNL     1       5.661   4.087  18.072  0.00  0.00    +0.000 C 
ENDROOT
BRANCH   8   9
ATOM      9  C   UNL     1       7.080   4.527  18.395  0.00  0.00    +0.000 C 
ATOM     10  O   UNL     1       8.018   4.445  17.604  0.00  0.00    +0.000 OA
ATOM     11  N   UNL     1       7.195   5.136  19.630  0.00  0.00    +0.000 N 
ATOM     12  H   UNL     1       6.622   4.811  20.406  0.00  0.00    +0.000 HD
BRANCH  11  13
ATOM     13  O   UNL     1       8.498   5.559  19.984  0.00  0.00    +0.000 OA
ATOM     14  H   UNL     1       9.073   4.890  19.554  0.00  0.00    +0.000 HD
ENDBRANCH  11  13
ENDBRANCH   8   9
BRANCH   1  15
ATOM     15  S   UNL     1       4.956   6.581  16.988  0.00  0.00    +0.000 S 
ATOM     16  O   UNL     1       4.783   6.940  15.598  0.00  0.00    +0.000 OA
ATOM     17  O   UNL     1       6.126   7.022  17.717  0.00  0.00    +0.000 OA
BRANCH  15  21
ATOM     18  C   UNL     1       1.530   8.415  19.437  0.00  0.00    +0.000 A 
ATOM     19  C   UNL     1       2.234   7.316  19.930  0.00  0.00    +0.000 A 
ATOM     20  C   UNL     1       3.239   6.712  19.155  0.00  0.00    +0.000 A 
ATOM     21  C   UNL     1       3.526   7.193  17.871  0.00  0.00    +0.000 A 
ATOM     22  C   UNL     1       2.827   8.301  17.380  0.00  0.00    +0.000 A 
ATOM     23  C   UNL     1       1.821   8.892  18.155  0.00  0.00    +0.000 A 
BRANCH  18  25
ATOM     24  C   UNL     1       0.134  10.335  19.533  0.00  0.00    +0.000 C 
ATOM     25  O   UNL     1       0.538   9.089  20.093  0.00  0.00    +0.000 OA
ENDBRANCH  18  25
ENDBRANCH  15  21
ENDBRANCH   1  15
TORSDOF 5
ENDMDL
