MODEL 1
REMARK VINA RESULT:      -7.9      0.000      0.000
REMARK  Name = 
REMARK  14 active torsions:
REMARK  status: ('A' for Active; 'I' for Inactive)
REMARK    1  A    between atoms: C_1  and  O_2
REMARK    2  A    between atoms: O_2  and  C_3
REMARK    3  A    between atoms: C_5  and  C_6
REMARK    4  A    between atoms: C_6  and  O_7
REMARK    5  A    between atoms: C_6  and  C_8
REMARK    6  A    between atoms: C_8  and  C_9
REMARK    7  A    between atoms: C_8  and  O_11
REMARK    8  A    between atoms: C_9  and  O_10
REMARK    9  A    between atoms: O_11  and  C_12
REMARK   10  A    between atoms: C_15  and  C_16
REMARK   11  A    between atoms: C_17  and  C_18
REMARK   12  A    between atoms: C_21  and  O_22
REMARK   13  A    between atoms: O_22  and  C_23
REMARK   14  A    between atoms: C_26  and  O_27
REMARK                            x       y       z     vdW  Elec       q    Type
REMARK                         _______ _______ _______ _____ _____    ______ ____
ROOT
ATOM      1  C   UNL     1       3.375   2.739  17.913  0.00  0.00    +0.000 C 
ENDROOT
BRANCH   1   2
ATOM      2  C   UNL     1       4.522   3.714  18.289  0.00  0.00    +0.000 C 
BRANCH   2   5
ATOM      3  C   UNL     1       7.120   5.787  16.289  0.00  0.00    +0.000 A 
ATOM      4  C   UNL     1       6.318   5.329  17.353  0.00  0.00    +0.000 A 
ATOM      5  C   UNL     1       5.448   4.240  17.203  0.00  0.00    +0.000 A 
ATOM      6  C   UNL     1       5.410   3.602  15.949  0.00  0.00    +0.000 A 
ATOM      7  C   UNL     1       6.192   4.046  14.884  0.00  0.00    +0.000 A 
ATOM      8  C   UNL     1       7.046   5.136  15.053  0.00  0.00    +0.000 A 
BRANCH   3  10
ATOM      9  C   UNL     1       7.375   7.798  17.564  0.00  0.00    +0.000 C 
ATOM     10  O   UNL     1       7.897   6.862  16.631  0.00  0.00    +0.000 OA
ENDBRANCH   3  10
BRANCH   8  11
ATOM     11  O   UNL     1       7.788   5.539  13.978  0.00  0.00    +0.000 OA
ATOM     12  H   UNL     1       8.329   6.305  14.231  0.00  0.00    +0.000 HD
ENDBRANCH   8  11
ENDBRANCH   2   5
BRANCH   2  13
ATOM     13  O   UNL     1       5.381   2.987  19.203  0.00  0.00    +0.000 OA
ATOM     14  H   UNL     1       5.862   3.656  19.729  0.00  0.00    +0.000 HD
ENDBRANCH   2  13
ENDBRANCH   1   2
BRANCH   1  15
ATOM     15  C   UNL     1       3.410   1.490  18.840  0.00  0.00    +0.000 C 
BRANCH  15  16
ATOM     16  O   UNL     1       4.403   0.546  18.442  0.00  0.00    +0.000 OA
ATOM     17  H   UNL     1       4.995   0.418  19.201  0.00  0.00    +0.000 HD
ENDBRANCH  15  16
ENDBRANCH   1  15
BRANCH   1  18
ATOM     18  O   UNL     1       2.058   3.344  17.945  0.00  0.00    +0.000 OA
BRANCH  18  19
ATOM     19  C   UNL     1       1.943   4.486  18.717  0.00  0.00    +0.000 A 
ATOM     20  C   UNL     1       2.307   5.747  18.206  0.00  0.00    +0.000 A 
ATOM     21  C   UNL     1       2.157   6.922  18.931  0.00  0.00    +0.000 A 
ATOM     22  C   UNL     1       1.690   6.881  20.234  0.00  0.00    +0.000 A 
ATOM     23  C   UNL     1       1.348   5.634  20.774  0.00  0.00    +0.000 A 
ATOM     24  C   UNL     1       1.457   4.432  20.035  0.00  0.00    +0.000 A 
BRANCH  22  25
ATOM     25  C   UNL     1       1.672   8.146  20.975  0.00  0.00    +0.000 C 
ATOM     26  C   UNL     1       0.595   8.927  21.127  0.00  0.00    +0.000 C 
BRANCH  26  27
ATOM     27  C   UNL     1       0.749  10.174  21.895  0.00  0.00    +0.000 C 
ATOM     28  O   UNL     1       1.048  11.234  21.348  0.00  0.00    +0.000 OA
ENDBRANCH  26  27
ENDBRANCH  22  25
BRANCH  24  29
ATOM     29  O   UNL     1       1.046   3.374  20.794  0.00  0.00    +0.000 OA
ATOM     30  C   UNL     1       1.880   2.759  21.756  0.00  0.00    +0.000 C 
ENDBRANCH  24  29
ENDBRANCH  18  19
ENDBRANCH   1  18
TORSDOF 12
ENDMDL
MODEL 2
REMARK VINA RESULT:      -7.4      1.880      6.139
REMARK  Name = 
REMARK  14 active torsions:
REMARK  status: ('A' for Active; 'I' for Inactive)
REMARK    1  A    between atoms: C_1  and  O_2
REMARK    2  A    between atoms: O_2  and  C_3
REMARK    3  A    between atoms: C_5  and  C_6
REMARK    4  A    between atoms: C_6  and  O_7
REMARK    5  A    between atoms: C_6  and  C_8
REMARK    6  A    between atoms: C_8  and  C_9
REMARK    7  A    between atoms: C_8  and  O_11
REMARK    8  A    between atoms: C_9  and  O_10
REMARK    9  A    between atoms: O_11  and  C_12
REMARK   10  A    between atoms: C_15  and  C_16
REMARK   11  A    between atoms: C_17  and  C_18
REMARK   12  A    between atoms: C_21  and  O_22
REMARK   13  A    between atoms: O_22  and  C_23
REMARK   14  A    between atoms: C_26  and  O_27
REMARK                            x       y       z     vdW  Elec       q    Type
REMARK                         _______ _______ _______ _____ _____    ______ ____
ROOT
ATOM      1  C   UNL     1       3.644   3.093  18.112  0.00  0.00    +0.000 C 
ENDROOT
BRANCH   1   2
ATOM      2  C   UNL     1       2.763   4.251  17.574  0.00  0.00    +0.000 C 
BRANCH   2   5
ATOM      3  C   UNL     1       2.149   7.799  19.018  0.00  0.00    +0.000 A 
ATOM      4  C   UNL     1       2.448   6.766  18.107  0.00  0.00    +0.000 A 
ATOM      5  C   UNL     1       2.413   5.417  18.485  0.00  0.00    +0.000 A 
ATOM      6  C   UNL     1       2.053   5.121  19.813  0.00  0.00    +0.000 A 
ATOM      7  C   UNL     1       1.760   6.129  20.729  0.00  0.00    +0.000 A 
ATOM      8  C   UNL     1       1.807   7.466  20.333  0.00  0.00    +0.000 A 
BRANCH   3  10
ATOM      9  C   UNL     1       1.049   9.672  18.009  0.00  0.00    +0.000 C 
ATOM     10  O   UNL     1       2.243   9.047  18.461  0.00  0.00    +0.000 OA
ENDBRANCH   3  10
BRANCH   8  11
ATOM     11  O   UNL     1       1.518   8.420  21.269  0.00  0.00    +0.000 OA
ATOM     12  H   UNL     1       0.604   8.301  21.575  0.00  0.00    +0.000 HD
ENDBRANCH   8  11
ENDBRANCH   2   5
BRANCH   2  13
ATOM     13  O   UNL     1       1.491   3.653  17.216  0.00  0.00    +0.000 OA
ATOM     14  H   UNL     1       1.556   2.703  17.437  0.00  0.00    +0.000 HD
ENDBRANCH   2  13
ENDBRANCH   1   2
BRANCH   1  15
ATOM     15  C   UNL     1       2.900   1.737  17.952  0.00  0.00    +0.000 C 
BRANCH  15  16
ATOM     16  O   UNL     1       1.925   1.529  18.972  0.00  0.00    +0.000 OA
ATOM     17  H   UNL     1       2.358   1.027  19.682  0.00  0.00    +0.000 HD
ENDBRANCH  15  16
ENDBRANCH   1  15
BRANCH   1  18
ATOM     18  O   UNL     1       4.953   3.018  17.494  0.00  0.00    +0.000 OA
BRANCH  18  19
ATOM     19  C   UNL     1       5.774   4.113  17.696  0.00  0.00    +0.000 A 
ATOM     20  C   UNL     1       5.903   4.697  18.972  0.00  0.00    +0.000 A 
ATOM     21  C   UNL     1       6.755   5.763  19.227  0.00  0.00    +0.000 A 
ATOM     22  C   UNL     1       7.478   6.338  18.194  0.00  0.00    +0.000 A 
ATOM     23  C   UNL     1       7.344   5.792  16.911  0.00  0.00    +0.000 A 
ATOM     24  C   UNL     1       6.511   4.681  16.643  0.00  0.00    +0.000 A 
BRANCH  22  25
ATOM     25  C   UNL     1       8.264   7.533  18.517  0.00  0.00    +0.000 C 
ATOM     26  C   UNL     1       8.037   8.754  18.019  0.00  0.00    +0.000 C 
BRANCH  26  27
ATOM     27  C   UNL     1       8.927   9.849  18.440  0.00  0.00    +0.000 C 
ATOM     28  O   UNL     1       8.758  11.003  18.048  0.00  0.00    +0.000 OA
ENDBRANCH  26  27
ENDBRANCH  22  25
BRANCH  24  29
ATOM     29  O   UNL     1       6.580   4.349  15.320  0.00  0.00    +0.000 OA
ATOM     30  C   UNL     1       5.699   4.887  14.354  0.00  0.00    +0.000 C 
ENDBRANCH  24  29
ENDBRANCH  18  19
ENDBRANCH   1  18
TORSDOF 12
ENDMDL
MODEL 3
REMARK VINA RESULT:      -7.4      0.835      1.856
REMARK  Name = 
REMARK  14 active torsions:
REMARK  status: ('A' for Active; 'I' for Inactive)
REMARK    1  A    between atoms: C_1  and  O_2
REMARK    2  A    between atoms: O_2  and  C_3
REMARK    3  A    between atoms: C_5  and  C_6
REMARK    4  A    between atoms: C_6  and  O_7
REMARK    5  A    between atoms: C_6  and  C_8
REMARK    6  A    between atoms: C_8  and  C_9
REMARK    7  A    between atoms: C_8  and  O_11
REMARK    8  A    between atoms: C_9  and  O_10
REMARK    9  A    between atoms: O_11  and  C_12
REMARK   10  A    between atoms: C_15  and  C_16
REMARK   11  A    between atoms: C_17  and  C_18
REMARK   12  A    between atoms: C_21  and  O_22
REMARK   13  A    between atoms: O_22  and  C_23
REMARK   14  A    between atoms: C_26  and  O_27
REMARK                            x       y       z     vdW  Elec       q    Type
REMARK                         _______ _______ _______ _____ _____    ______ ____
ROOT
ATOM      1  C   UNL     1       3.321   2.779  17.805  0.00  0.00    +0.000 C 
ENDROOT
BRANCH   1   2
ATOM      2  C   UNL     1       4.499   3.741  18.106  0.00  0.00    +0.000 C 
BRANCH   2   5
ATOM      3  C   UNL     1       5.997   4.490  14.607  0.00  0.00    +0.000 A 
ATOM      4  C   UNL     1       5.103   4.059  15.607  0.00  0.00    +0.000 A 
ATOM      5  C   UNL     1       5.391   4.218  16.970  0.00  0.00    +0.000 A 
ATOM      6  C   UNL     1       6.606   4.840  17.312  0.00  0.00    +0.000 A 
ATOM      7  C   UNL     1       7.505   5.267  16.336  0.00  0.00    +0.000 A 
ATOM      8  C   UNL     1       7.201   5.093  14.986  0.00  0.00    +0.000 A 
BRANCH   3  10
ATOM      9  C   UNL     1       6.239   3.291  12.548  0.00  0.00    +0.000 C 
ATOM     10  O   UNL     1       5.540   4.242  13.339  0.00  0.00    +0.000 OA
ENDBRANCH   3  10
BRANCH   8  11
ATOM     11  O   UNL     1       8.116   5.522  14.065  0.00  0.00    +0.000 OA
ATOM     12  H   UNL     1       8.907   4.960  14.114  0.00  0.00    +0.000 HD
ENDBRANCH   8  11
ENDBRANCH   2   5
BRANCH   2  13
ATOM     13  O   UNL     1       5.381   3.025  19.007  0.00  0.00    +0.000 OA
ATOM     14  H   UNL     1       4.811   2.472  19.578  0.00  0.00    +0.000 HD
ENDBRANCH   2  13
ENDBRANCH   1   2
BRANCH   1  15
ATOM     15  C   UNL     1       3.312   1.608  18.830  0.00  0.00    +0.000 C 
BRANCH  15  16
ATOM     16  O   UNL     1       4.090   0.496  18.392  0.00  0.00    +0.000 OA
ATOM     17  H   UNL     1       3.567  -0.304  18.566  0.00  0.00    +0.000 HD
ENDBRANCH  15  16
ENDBRANCH   1  15
BRANCH   1  18
ATOM     18  O   UNL     1       2.025   3.429  17.781  0.00  0.00    +0.000 OA
BRANCH  18  19
ATOM     19  C   UNL     1       1.891   4.527  18.612  0.00  0.00    +0.000 A 
ATOM     20  C   UNL     1       2.242   5.818  18.169  0.00  0.00    +0.000 A 
ATOM     21  C   UNL     1       2.074   6.951  18.954  0.00  0.00    +0.000 A 
ATOM     22  C   UNL     1       1.601   6.836  20.251  0.00  0.00    +0.000 A 
ATOM     23  C   UNL     1       1.272   5.559  20.722  0.00  0.00    +0.000 A 
ATOM     24  C   UNL     1       1.399   4.398  19.922  0.00  0.00    +0.000 A 
BRANCH  22  25
ATOM     25  C   UNL     1       1.563   8.060  21.056  0.00  0.00    +0.000 C 
ATOM     26  C   UNL     1       0.463   8.786  21.292  0.00  0.00    +0.000 C 
BRANCH  26  27
ATOM     27  C   UNL     1       0.598   9.998  22.118  0.00  0.00    +0.000 C 
ATOM     28  O   UNL     1       1.064  11.040  21.659  0.00  0.00    +0.000 OA
ENDBRANCH  26  27
ENDBRANCH  22  25
BRANCH  24  29
ATOM     29  O   UNL     1       0.997   3.297  20.622  0.00  0.00    +0.000 OA
ATOM     30  C   UNL     1       1.636   2.877  21.812  0.00  0.00    +0.000 C 
ENDBRANCH  24  29
ENDBRANCH  18  19
ENDBRANCH   1  18
TORSDOF 12
ENDMDL
MODEL 4
REMARK VINA RESULT:      -7.2      2.114      3.141
REMARK  Name = 
REMARK  14 active torsions:
REMARK  status: ('A' for Active; 'I' for Inactive)
REMARK    1  A    between atoms: C_1  and  O_2
REMARK    2  A    between atoms: O_2  and  C_3
REMARK    3  A    between atoms: C_5  and  C_6
REMARK    4  A    between atoms: C_6  and  O_7
REMARK    5  A    between atoms: C_6  and  C_8
REMARK    6  A    between atoms: C_8  and  C_9
REMARK    7  A    between atoms: C_8  and  O_11
REMARK    8  A    between atoms: C_9  and  O_10
REMARK    9  A    between atoms: O_11  and  C_12
REMARK   10  A    between atoms: C_15  and  C_16
REMARK   11  A    between atoms: C_17  and  C_18
REMARK   12  A    between atoms: C_21  and  O_22
REMARK   13  A    between atoms: O_22  and  C_23
REMARK   14  A    between atoms: C_26  and  O_27
REMARK                            x       y       z     vdW  Elec       q    Type
REMARK                         _______ _______ _______ _____ _____    ______ ____
ROOT
ATOM      1  C   UNL     1       2.780   5.279  18.736  0.00  0.00    +0.000 C 
ENDROOT
BRANCH   1   2
ATOM      2  C   UNL     1       4.121   4.500  18.714  0.00  0.00    +0.000 C 
BRANCH   2   5
ATOM      3  C   UNL     1       6.967   5.932  16.501  0.00  0.00    +0.000 A 
ATOM      4  C   UNL     1       6.104   5.737  17.598  0.00  0.00    +0.000 A 
ATOM      5  C   UNL     1       5.116   4.744  17.589  0.00  0.00    +0.000 A 
ATOM      6  C   UNL     1       5.019   3.930  16.445  0.00  0.00    +0.000 A 
ATOM      7  C   UNL     1       5.859   4.113  15.349  0.00  0.00    +0.000 A 
ATOM      8  C   UNL     1       6.832   5.112  15.377  0.00  0.00    +0.000 A 
BRANCH   3  10
ATOM      9  C   UNL     1       7.504   7.991  17.602  0.00  0.00    +0.000 C 
ATOM     10  O   UNL     1       7.860   6.953  16.699  0.00  0.00    +0.000 OA
ENDBRANCH   3  10
BRANCH   8  11
ATOM     11  O   UNL     1       7.629   5.257  14.275  0.00  0.00    +0.000 OA
ATOM     12  H   UNL     1       7.754   4.391  13.854  0.00  0.00    +0.000 HD
ENDBRANCH   8  11
ENDBRANCH   2   5
BRANCH   2  13
ATOM     13  O   UNL     1       3.768   3.097  18.611  0.00  0.00    +0.000 OA
ATOM     14  H   UNL     1       4.343   2.712  17.921  0.00  0.00    +0.000 HD
ENDBRANCH   2  13
ENDBRANCH   1   2
BRANCH   1  15
ATOM     15  C   UNL     1       1.585   4.284  18.797  0.00  0.00    +0.000 C 
BRANCH  15  16
ATOM     16  O   UNL     1       1.183   3.838  17.504  0.00  0.00    +0.000 OA
ATOM     17  H   UNL     1       0.899   2.914  17.596  0.00  0.00    +0.000 HD
ENDBRANCH  15  16
ENDBRANCH   1  15
BRANCH   1  18
ATOM     18  O   UNL     1       2.680   6.243  19.814  0.00  0.00    +0.000 OA
BRANCH  18  19
ATOM     19  C   UNL     1       2.126   7.465  19.474  0.00  0.00    +0.000 A 
ATOM     20  C   UNL     1       2.189   7.946  18.151  0.00  0.00    +0.000 A 
ATOM     21  C   UNL     1       1.601   9.142  17.760  0.00  0.00    +0.000 A 
ATOM     22  C   UNL     1       0.971   9.947  18.694  0.00  0.00    +0.000 A 
ATOM     23  C   UNL     1       0.921   9.501  20.021  0.00  0.00    +0.000 A 
ATOM     24  C   UNL     1       1.480   8.267  20.430  0.00  0.00    +0.000 A 
BRANCH  22  25
ATOM     25  C   UNL     1       0.479  11.247  18.229  0.00  0.00    +0.000 C 
ATOM     26  C   UNL     1       0.223  12.295  19.022  0.00  0.00    +0.000 C 
BRANCH  26  27
ATOM     27  C   UNL     1      -0.276  13.530  18.394  0.00  0.00    +0.000 C 
ATOM     28  O   UNL     1       0.137  14.638  18.736  0.00  0.00    +0.000 OA
ENDBRANCH  26  27
ENDBRANCH  22  25
BRANCH  24  29
ATOM     29  O   UNL     1       1.277   8.077  21.766  0.00  0.00    +0.000 OA
ATOM     30  C   UNL     1       1.180   9.151  22.681  0.00  0.00    +0.000 C 
ENDBRANCH  24  29
ENDBRANCH  18  19
ENDBRANCH   1  18
TORSDOF 12
ENDMDL
MODEL 5
REMARK VINA RESULT:      -7.2      1.093      2.057
REMARK  Name = 
REMARK  14 active torsions:
REMARK  status: ('A' for Active; 'I' for Inactive)
REMARK    1  A    between atoms: C_1  and  O_2
REMARK    2  A    between atoms: O_2  and  C_3
REMARK    3  A    between atoms: C_5  and  C_6
REMARK    4  A    between atoms: C_6  and  O_7
REMARK    5  A    between atoms: C_6  and  C_8
REMARK    6  A    between atoms: C_8  and  C_9
REMARK    7  A    between atoms: C_8  and  O_11
REMARK    8  A    between atoms: C_9  and  O_10
REMARK    9  A    between atoms: O_11  and  C_12
REMARK   10  A    between atoms: C_15  and  C_16
REMARK   11  A    between atoms: C_17  and  C_18
REMARK   12  A    between atoms: C_21  and  O_22
REMARK   13  A    between atoms: O_22  and  C_23
REMARK   14  A    between atoms: C_26  and  O_27
REMARK                            x       y       z     vdW  Elec       q    Type
REMARK                         _______ _______ _______ _____ _____    ______ ____
ROOT
ATOM      1  C   UNL     1       3.451   3.000  17.980  0.00  0.00    +0.000 C 
ENDROOT
BRANCH   1   2
ATOM      2  C   UNL     1       4.674   3.879  18.353  0.00  0.00    +0.000 C 
BRANCH   2   5
ATOM      3  C   UNL     1       7.192   5.974  16.275  0.00  0.00    +0.000 A 
ATOM      4  C   UNL     1       6.388   5.541  17.348  0.00  0.00    +0.000 A 
ATOM      5  C   UNL     1       5.598   4.386  17.256  0.00  0.00    +0.000 A 
ATOM      6  C   UNL     1       5.644   3.657  16.053  0.00  0.00    +0.000 A 
ATOM      7  C   UNL     1       6.428   4.075  14.980  0.00  0.00    +0.000 A 
ATOM      8  C   UNL     1       7.202   5.230  15.090  0.00  0.00    +0.000 A 
BRANCH   3  10
ATOM      9  C   UNL     1       7.887   7.593  17.896  0.00  0.00    +0.000 C 
ATOM     10  O   UNL     1       7.884   7.122  16.556  0.00  0.00    +0.000 OA
ENDBRANCH   3  10
BRANCH   8  11
ATOM     11  O   UNL     1       7.950   5.603  14.008  0.00  0.00    +0.000 OA
ATOM     12  H   UNL     1       8.883   5.393  14.177  0.00  0.00    +0.000 HD
ENDBRANCH   8  11
ENDBRANCH   2   5
BRANCH   2  13
ATOM     13  O   UNL     1       5.511   3.058  19.206  0.00  0.00    +0.000 OA
ATOM     14  H   UNL     1       5.720   2.248  18.700  0.00  0.00    +0.000 HD
ENDBRANCH   2  13
ENDBRANCH   1   2
BRANCH   1  15
ATOM     15  C   UNL     1       3.258   1.876  19.039  0.00  0.00    +0.000 C 
BRANCH  15  16
ATOM     16  O   UNL     1       3.926   0.669  18.678  0.00  0.00    +0.000 OA
ATOM     17  H   UNL     1       3.827   0.055  19.424  0.00  0.00    +0.000 HD
ENDBRANCH  15  16
ENDBRANCH   1  15
BRANCH   1  18
ATOM     18  O   UNL     1       2.220   3.747  17.818  0.00  0.00    +0.000 OA
BRANCH  18  19
ATOM     19  C   UNL     1       2.059   4.827  18.669  0.00  0.00    +0.000 A 
ATOM     20  C   UNL     1       1.461   4.670  19.935  0.00  0.00    +0.000 A 
ATOM     21  C   UNL     1       1.330   5.717  20.837  0.00  0.00    +0.000 A 
ATOM     22  C   UNL     1       1.737   6.994  20.486  0.00  0.00    +0.000 A 
ATOM     23  C   UNL     1       2.309   7.179  19.221  0.00  0.00    +0.000 A 
ATOM     24  C   UNL     1       2.487   6.116  18.305  0.00  0.00    +0.000 A 
BRANCH  22  25
ATOM     25  C   UNL     1       1.458   8.068  21.444  0.00  0.00    +0.000 C 
ATOM     26  C   UNL     1       0.255   8.621  21.641  0.00  0.00    +0.000 C 
BRANCH  26  27
ATOM     27  C   UNL     1       0.146   9.700  22.638  0.00  0.00    +0.000 C 
ATOM     28  O   UNL     1       0.502   9.537  23.804  0.00  0.00    +0.000 OA
ENDBRANCH  26  27
ENDBRANCH  22  25
BRANCH  24  29
ATOM     29  O   UNL     1       3.077   6.572  17.162  0.00  0.00    +0.000 OA
ATOM     30  C   UNL     1       3.820   7.774  17.117  0.00  0.00    +0.000 C 
ENDBRANCH  24  29
ENDBRANCH  18  19
ENDBRANCH   1  18
TORSDOF 12
ENDMDL
MODEL 6
REMARK VINA RESULT:      -7.0      1.662      6.694
REMARK  Name = 
REMARK  14 active torsions:
REMARK  status: ('A' for Active; 'I' for Inactive)
REMARK    1  A    between atoms: C_1  and  O_2
REMARK    2  A    between atoms: O_2  and  C_3
REMARK    3  A    between atoms: C_5  and  C_6
REMARK    4  A    between atoms: C_6  and  O_7
REMARK    5  A    between atoms: C_6  and  C_8
REMARK    6  A    between atoms: C_8  and  C_9
REMARK    7  A    between atoms: C_8  and  O_11
REMARK    8  A    between atoms: C_9  and  O_10
REMARK    9  A    between atoms: O_11  and  C_12
REMARK   10  A    between atoms: C_15  and  C_16
REMARK   11  A    between atoms: C_17  and  C_18
REMARK   12  A    between atoms: C_21  and  O_22
REMARK   13  A    between atoms: O_22  and  C_23
REMARK   14  A    between atoms: C_26  and  O_27
REMARK                            x       y       z     vdW  Elec       q    Type
REMARK                         _______ _______ _______ _____ _____    ______ ____
ROOT
ATOM      1  C   UNL     1       3.102   4.338  20.589  0.00  0.00    +0.000 C 
ENDROOT
BRANCH   1   2
ATOM      2  C   UNL     1       2.083   4.889  19.558  0.00  0.00    +0.000 C 
BRANCH   2   5
ATOM      3  C   UNL     1       1.572   8.732  19.675  0.00  0.00    +0.000 A 
ATOM      4  C   UNL     1       1.583   7.379  20.067  0.00  0.00    +0.000 A 
ATOM      5  C   UNL     1       2.076   6.373  19.225  0.00  0.00    +0.000 A 
ATOM      6  C   UNL     1       2.579   6.761  17.968  0.00  0.00    +0.000 A 
ATOM      7  C   UNL     1       2.570   8.093  17.562  0.00  0.00    +0.000 A 
ATOM      8  C   UNL     1       2.069   9.078  18.413  0.00  0.00    +0.000 A 
BRANCH   3  10
ATOM      9  C   UNL     1       1.223   9.207  21.996  0.00  0.00    +0.000 C 
ATOM     10  O   UNL     1       1.048   9.561  20.631  0.00  0.00    +0.000 OA
ENDBRANCH   3  10
BRANCH   8  11
ATOM     11  O   UNL     1       2.075  10.371  17.968  0.00  0.00    +0.000 OA
ATOM     12  H   UNL     1       2.707  10.887  18.495  0.00  0.00    +0.000 HD
ENDBRANCH   8  11
ENDBRANCH   2   5
BRANCH   2  13
ATOM     13  O   UNL     1       0.769   4.617  20.111  0.00  0.00    +0.000 OA
ATOM     14  H   UNL     1       0.854   3.807  20.651  0.00  0.00    +0.000 HD
ENDBRANCH   2  13
ENDBRANCH   1   2
BRANCH   1  15
ATOM     15  C   UNL     1       2.353   3.675  21.780  0.00  0.00    +0.000 C 
BRANCH  15  16
ATOM     16  O   UNL     1       1.745   2.437  21.418  0.00  0.00    +0.000 OA
ATOM     17  H   UNL     1       2.385   1.735  21.621  0.00  0.00    +0.000 HD
ENDBRANCH  15  16
ENDBRANCH   1  15
BRANCH   1  18
ATOM     18  O   UNL     1       4.061   3.407  20.024  0.00  0.00    +0.000 OA
BRANCH  18  19
ATOM     19  C   UNL     1       4.605   3.774  18.806  0.00  0.00    +0.000 A 
ATOM     20  C   UNL     1       4.048   3.315  17.596  0.00  0.00    +0.000 A 
ATOM     21  C   UNL     1       4.533   3.702  16.354  0.00  0.00    +0.000 A 
ATOM     22  C   UNL     1       5.644   4.523  16.265  0.00  0.00    +0.000 A 
ATOM     23  C   UNL     1       6.232   4.969  17.456  0.00  0.00    +0.000 A 
ATOM     24  C   UNL     1       5.727   4.617  18.730  0.00  0.00    +0.000 A 
BRANCH  22  25
ATOM     25  C   UNL     1       6.168   4.792  14.922  0.00  0.00    +0.000 C 
ATOM     26  C   UNL     1       6.273   3.881  13.947  0.00  0.00    +0.000 C 
BRANCH  26  27
ATOM     27  C   UNL     1       6.830   4.313  12.654  0.00  0.00    +0.000 C 
ATOM     28  O   UNL     1       7.739   5.140  12.589  0.00  0.00    +0.000 OA
ENDBRANCH  26  27
ENDBRANCH  22  25
BRANCH  24  29
ATOM     29  O   UNL     1       6.477   5.198  19.711  0.00  0.00    +0.000 OA
ATOM     30  C   UNL     1       7.756   5.747  19.465  0.00  0.00    +0.000 C 
ENDBRANCH  24  29
ENDBRANCH  18  19
ENDBRANCH   1  18
TORSDOF 12
ENDMDL
MODEL 7
REMARK VINA RESULT:      -7.0      2.040      3.405
REMARK  Name = 
REMARK  14 active torsions:
REMARK  status: ('A' for Active; 'I' for Inactive)
REMARK    1  A    between atoms: C_1  and  O_2
REMARK    2  A    between atoms: O_2  and  C_3
REMARK    3  A    between atoms: C_5  and  C_6
REMARK    4  A    between atoms: C_6  and  O_7
REMARK    5  A    between atoms: C_6  and  C_8
REMARK    6  A    between atoms: C_8  and  C_9
REMARK    7  A    between atoms: C_8  and  O_11
REMARK    8  A    between atoms: C_9  and  O_10
REMARK    9  A    between atoms: O_11  and  C_12
REMARK   10  A    between atoms: C_15  and  C_16
REMARK   11  A    between atoms: C_17  and  C_18
REMARK   12  A    between atoms: C_21  and  O_22
REMARK   13  A    between atoms: O_22  and  C_23
REMARK   14  A    between atoms: C_26  and  O_27
REMARK                            x       y       z     vdW  Elec       q    Type
REMARK                         _______ _______ _______ _____ _____    ______ ____
ROOT
ATOM      1  C   UNL     1       2.089   4.558  19.835  0.00  0.00    +0.000 C 
ENDROOT
BRANCH   1   2
ATOM      2  C   UNL     1       2.506   3.769  18.567  0.00  0.00    +0.000 C 
BRANCH   2   5
ATOM      3  C   UNL     1       6.299   4.445  18.113  0.00  0.00    +0.000 A 
ATOM      4  C   UNL     1       5.050   4.231  18.729  0.00  0.00    +0.000 A 
ATOM      5  C   UNL     1       3.895   3.968  17.979  0.00  0.00    +0.000 A 
ATOM      6  C   UNL     1       4.025   3.910  16.579  0.00  0.00    +0.000 A 
ATOM      7  C   UNL     1       5.251   4.125  15.953  0.00  0.00    +0.000 A 
ATOM      8  C   UNL     1       6.387   4.392  16.718  0.00  0.00    +0.000 A 
BRANCH   3  10
ATOM      9  C   UNL     1       7.787   6.022  19.130  0.00  0.00    +0.000 C 
ATOM     10  O   UNL     1       7.303   4.692  19.013  0.00  0.00    +0.000 OA
ENDBRANCH   3  10
BRANCH   8  11
ATOM     11  O   UNL     1       7.566   4.603  16.059  0.00  0.00    +0.000 OA
ATOM     12  H   UNL     1       7.611   5.530  15.773  0.00  0.00    +0.000 HD
ENDBRANCH   8  11
ENDBRANCH   2   5
BRANCH   2  13
ATOM     13  O   UNL     1       1.589   4.178  17.521  0.00  0.00    +0.000 OA
ATOM     14  H   UNL     1       2.136   4.461  16.762  0.00  0.00    +0.000 HD
ENDBRANCH   2  13
ENDBRANCH   1   2
BRANCH   1  15
ATOM     15  C   UNL     1       2.113   3.624  21.078  0.00  0.00    +0.000 C 
BRANCH  15  16
ATOM     16  O   UNL     1       0.910   2.871  21.216  0.00  0.00    +0.000 OA
ATOM     17  H   UNL     1       1.168   1.957  21.421  0.00  0.00    +0.000 HD
ENDBRANCH  15  16
ENDBRANCH   1  15
BRANCH   1  18
ATOM     18  O   UNL     1       2.895   5.738  20.083  0.00  0.00    +0.000 OA
BRANCH  18  19
ATOM     19  C   UNL     1       2.261   6.950  19.875  0.00  0.00    +0.000 A 
ATOM     20  C   UNL     1       1.532   7.573  20.908  0.00  0.00    +0.000 A 
ATOM     21  C   UNL     1       0.926   8.813  20.755  0.00  0.00    +0.000 A 
ATOM     22  C   UNL     1       0.969   9.463  19.533  0.00  0.00    +0.000 A 
ATOM     23  C   UNL     1       1.664   8.849  18.483  0.00  0.00    +0.000 A 
ATOM     24  C   UNL     1       2.321   7.605  18.633  0.00  0.00    +0.000 A 
BRANCH  22  25
ATOM     25  C   UNL     1       0.207  10.710  19.415  0.00  0.00    +0.000 C 
ATOM     26  C   UNL     1      -0.656  11.167  20.330  0.00  0.00    +0.000 C 
BRANCH  26  27
ATOM     27  C   UNL     1      -1.349  12.437  20.054  0.00  0.00    +0.000 C 
ATOM     28  O   UNL     1      -2.347  12.482  19.337  0.00  0.00    +0.000 OA
ENDBRANCH  26  27
ENDBRANCH  22  25
BRANCH  24  29
ATOM     29  O   UNL     1       2.927   7.248  17.463  0.00  0.00    +0.000 OA
ATOM     30  C   UNL     1       4.292   7.508  17.204  0.00  0.00    +0.000 C 
ENDBRANCH  24  29
ENDBRANCH  18  19
ENDBRANCH   1  18
TORSDOF 12
ENDMDL
MODEL 8
REMARK VINA RESULT:      -6.9      2.227      3.364
REMARK  Name = 
REMARK  14 active torsions:
REMARK  status: ('A' for Active; 'I' for Inactive)
REMARK    1  A    between atoms: C_1  and  O_2
REMARK    2  A    between atoms: O_2  and  C_3
REMARK    3  A    between atoms: C_5  and  C_6
REMARK    4  A    between atoms: C_6  and  O_7
REMARK    5  A    between atoms: C_6  and  C_8
REMARK    6  A    between atoms: C_8  and  C_9
REMARK    7  A    between atoms: C_8  and  O_11
REMARK    8  A    between atoms: C_9  and  O_10
REMARK    9  A    between atoms: O_11  and  C_12
REMARK   10  A    between atoms: C_15  and  C_16
REMARK   11  A    between atoms: C_17  and  C_18
REMARK   12  A    between atoms: C_21  and  O_22
REMARK   13  A    between atoms: O_22  and  C_23
REMARK   14  A    between atoms: C_26  and  O_27
REMARK                            x       y       z     vdW  Elec       q    Type
REMARK                         _______ _______ _______ _____ _____    ______ ____
ROOT
ATOM      1  C   UNL     1       2.193   5.010  19.414  0.00  0.00    +0.000 C 
ENDROOT
BRANCH   1   2
ATOM      2  C   UNL     1       3.197   3.857  19.155  0.00  0.00    +0.000 C 
BRANCH   2   5
ATOM      3  C   UNL     1       6.720   4.806  17.837  0.00  0.00    +0.000 A 
ATOM      4  C   UNL     1       5.651   4.565  18.723  0.00  0.00    +0.000 A 
ATOM      5  C   UNL     1       4.410   4.099  18.269  0.00  0.00    +0.000 A 
ATOM      6  C   UNL     1       4.266   3.862  16.889  0.00  0.00    +0.000 A 
ATOM      7  C   UNL     1       5.311   4.100  15.998  0.00  0.00    +0.000 A 
ATOM      8  C   UNL     1       6.536   4.570  16.470  0.00  0.00    +0.000 A 
BRANCH   3  10
ATOM      9  C   UNL     1       8.007   6.666  18.625  0.00  0.00    +0.000 C 
ATOM     10  O   UNL     1       7.846   5.262  18.470  0.00  0.00    +0.000 OA
ENDBRANCH   3  10
BRANCH   8  11
ATOM     11  O   UNL     1       7.529   4.795  15.557  0.00  0.00    +0.000 OA
ATOM     12  H   UNL     1       7.697   5.750  15.497  0.00  0.00    +0.000 HD
ENDBRANCH   8  11
ENDBRANCH   2   5
BRANCH   2  13
ATOM     13  O   UNL     1       2.442   2.812  18.489  0.00  0.00    +0.000 OA
ATOM     14  H   UNL     1       2.662   1.975  18.943  0.00  0.00    +0.000 HD
ENDBRANCH   2  13
ENDBRANCH   1   2
BRANCH   1  15
ATOM     15  C   UNL     1       1.047   4.522  20.345  0.00  0.00    +0.000 C 
BRANCH  15  16
ATOM     16  O   UNL     1       1.481   3.518  21.261  0.00  0.00    +0.000 OA
ATOM     17  H   UNL     1       0.684   3.139  21.667  0.00  0.00    +0.000 HD
ENDBRANCH  15  16
ENDBRANCH   1  15
BRANCH   1  18
ATOM     18  O   UNL     1       2.804   6.206  19.962  0.00  0.00    +0.000 OA
BRANCH  18  19
ATOM     19  C   UNL     1       2.228   7.403  19.575  0.00  0.00    +0.000 A 
ATOM     20  C   UNL     1       2.322   7.855  18.244  0.00  0.00    +0.000 A 
ATOM     21  C   UNL     1       1.715   9.024  17.805  0.00  0.00    +0.000 A 
ATOM     22  C   UNL     1       1.031   9.832  18.698  0.00  0.00    +0.000 A 
ATOM     23  C   UNL     1       0.948   9.416  20.033  0.00  0.00    +0.000 A 
ATOM     24  C   UNL     1       1.527   8.208  20.489  0.00  0.00    +0.000 A 
BRANCH  22  25
ATOM     25  C   UNL     1       0.519  11.106  18.186  0.00  0.00    +0.000 C 
ATOM     26  C   UNL     1      -0.270  11.943  18.871  0.00  0.00    +0.000 C 
BRANCH  26  27
ATOM     27  C   UNL     1      -0.705  13.183  18.205  0.00  0.00    +0.000 C 
ATOM     28  O   UNL     1      -0.159  14.262  18.433  0.00  0.00    +0.000 OA
ENDBRANCH  26  27
ENDBRANCH  22  25
BRANCH  24  29
ATOM     29  O   UNL     1       1.284   8.043  21.823  0.00  0.00    +0.000 OA
ATOM     30  C   UNL     1       0.915   9.115  22.667  0.00  0.00    +0.000 C 
ENDBRANCH  24  29
ENDBRANCH  18  19
ENDBRANCH   1  18
TORSDOF 12
ENDMDL
MODEL 9
REMARK VINA RESULT:      -6.9      2.167      3.309
REMARK  Name = 
REMARK  14 active torsions:
REMARK  status: ('A' for Active; 'I' for Inactive)
REMARK    1  A    between atoms: C_1  and  O_2
REMARK    2  A    between atoms: O_2  and  C_3
REMARK    3  A    between atoms: C_5  and  C_6
REMARK    4  A    between atoms: C_6  and  O_7
REMARK    5  A    between atoms: C_6  and  C_8
REMARK    6  A    between atoms: C_8  and  C_9
REMARK    7  A    between atoms: C_8  and  O_11
REMARK    8  A    between atoms: C_9  and  O_10
REMARK    9  A    between atoms: O_11  and  C_12
REMARK   10  A    between atoms: C_15  and  C_16
REMARK   11  A    between atoms: C_17  and  C_18
REMARK   12  A    between atoms: C_21  and  O_22
REMARK   13  A    between atoms: O_22  and  C_23
REMARK   14  A    between atoms: C_26  and  O_27
REMARK                            x       y       z     vdW  Elec       q    Type
REMARK                         _______ _______ _______ _____ _____    ______ ____
ROOT
ATOM      1  C   UNL     1       2.620   4.411  19.689  0.00  0.00    +0.000 C 
ENDROOT
BRANCH   1   2
ATOM      2  C   UNL     1       3.666   3.354  19.247  0.00  0.00    +0.000 C 
BRANCH   2   5
ATOM      3  C   UNL     1       6.881   4.739  17.576  0.00  0.00    +0.000 A 
ATOM      4  C   UNL     1       5.944   4.380  18.566  0.00  0.00    +0.000 A 
ATOM      5  C   UNL     1       4.743   3.735  18.243  0.00  0.00    +0.000 A 
ATOM      6  C   UNL     1       4.504   3.440  16.887  0.00  0.00    +0.000 A 
ATOM      7  C   UNL     1       5.416   3.793  15.895  0.00  0.00    +0.000 A 
ATOM      8  C   UNL     1       6.603   4.441  16.238  0.00  0.00    +0.000 A 
BRANCH   3  10
ATOM      9  C   UNL     1       7.910   5.891  19.406  0.00  0.00    +0.000 C 
ATOM     10  O   UNL     1       7.987   5.364  18.089  0.00  0.00    +0.000 OA
ENDBRANCH   3  10
BRANCH   8  11
ATOM     11  O   UNL     1       7.464   4.773  15.229  0.00  0.00    +0.000 OA
ATOM     12  H   UNL     1       7.693   3.974  14.728  0.00  0.00    +0.000 HD
ENDBRANCH   8  11
ENDBRANCH   2   5
BRANCH   2  13
ATOM     13  O   UNL     1       2.913   2.289  18.612  0.00  0.00    +0.000 OA
ATOM     14  H   UNL     1       3.075   1.480  19.135  0.00  0.00    +0.000 HD
ENDBRANCH   2  13
ENDBRANCH   1   2
BRANCH   1  15
ATOM     15  C   UNL     1       1.705   3.825  20.802  0.00  0.00    +0.000 C 
BRANCH  15  16
ATOM     16  O   UNL     1       0.343   3.729  20.390  0.00  0.00    +0.000 OA
ATOM     17  H   UNL     1       0.249   2.890  19.910  0.00  0.00    +0.000 HD
ENDBRANCH  15  16
ENDBRANCH   1  15
BRANCH   1  18
ATOM     18  O   UNL     1       3.205   5.662  20.134  0.00  0.00    +0.000 OA
BRANCH  18  19
ATOM     19  C   UNL     1       2.596   6.809  19.656  0.00  0.00    +0.000 A 
ATOM     20  C   UNL     1       1.764   7.587  20.485  0.00  0.00    +0.000 A 
ATOM     21  C   UNL     1       1.177   8.771  20.058  0.00  0.00    +0.000 A 
ATOM     22  C   UNL     1       1.349   9.203  18.754  0.00  0.00    +0.000 A 
ATOM     23  C   UNL     1       2.149   8.430  17.903  0.00  0.00    +0.000 A 
ATOM     24  C   UNL     1       2.786   7.242  18.332  0.00  0.00    +0.000 A 
BRANCH  22  25
ATOM     25  C   UNL     1       0.603  10.397  18.344  0.00  0.00    +0.000 C 
ATOM     26  C   UNL     1      -0.571  10.779  18.861  0.00  0.00    +0.000 C 
BRANCH  26  27
ATOM     27  C   UNL     1      -1.194  12.003  18.330  0.00  0.00    +0.000 C 
ATOM     28  O   UNL     1      -0.647  13.101  18.434  0.00  0.00    +0.000 OA
ENDBRANCH  26  27
ENDBRANCH  22  25
BRANCH  24  29
ATOM     29  O   UNL     1       3.512   6.701  17.310  0.00  0.00    +0.000 OA
ATOM     30  C   UNL     1       4.574   7.392  16.682  0.00  0.00    +0.000 C 
ENDBRANCH  24  29
ENDBRANCH  18  19
ENDBRANCH   1  18
TORSDOF 12
ENDMDL
