MODEL 1
REMARK VINA RESULT:      -8.8      0.000      0.000
REMARK  Name = 
REMARK  7 active torsions:
REMARK  status: ('A' for Active; 'I' for Inactive)
REMARK    1  A    between atoms: C_1  and  C_2
REMARK    2  A    between atoms: N_4  and  C_5
REMARK    3  A    between atoms: C_5  and  C_6
REMARK    4  A    between atoms: C_5  and  C_7
REMARK    5  A    between atoms: C_10  and  O_11
REMARK    6  A    between atoms: O_11  and  C_12
REMARK    7  A    between atoms: N_15  and  C_16
REMARK                            x       y       z     vdW  Elec       q    Type
REMARK                         _______ _______ _______ _____ _____    ______ ____
ROOT
ATOM      1  O   UNL     1       7.630   5.343  16.280  0.00  0.00    +0.000 OA
ENDROOT
BRANCH   1   5
ATOM      2  C   UNL     1       6.016   3.647  12.791  0.00  0.00    +0.000 A 
ATOM      3  C   UNL     1       7.007   4.627  12.674  0.00  0.00    +0.000 A 
ATOM      4  C   UNL     1       7.578   5.206  13.814  0.00  0.00    +0.000 A 
ATOM      5  C   UNL     1       7.168   4.824  15.093  0.00  0.00    +0.000 A 
ATOM      6  C   UNL     1       6.194   3.832  15.218  0.00  0.00    +0.000 A 
ATOM      7  C   UNL     1       5.622   3.251  14.080  0.00  0.00    +0.000 A 
BRANCH   2   8
ATOM      8  C   UNL     1       5.398   3.034  11.544  0.00  0.00    +0.000 C 
ATOM      9  C   UNL     1       3.994   3.596  11.305  0.00  0.00    +0.000 C 
BRANCH   8  13
ATOM     10  C   UNL     1       6.180  -0.669  11.346  0.00  0.00    +0.000 C 
ATOM     11  C   UNL     1       6.342   0.795  11.042  0.00  0.00    +0.000 C 
ATOM     12  O   UNL     1       7.234   1.221  10.319  0.00  0.00    +0.000 OA
ATOM     13  N   UNL     1       5.402   1.583  11.663  0.00  0.00    +0.000 N 
ATOM     14  H   UNL     1       4.891   1.182  12.439  0.00  0.00    +0.000 HD
ENDBRANCH   8  13
ENDBRANCH   2   8
ENDBRANCH   1   5
BRANCH   1  15
ATOM     15  C   UNL     1       6.751   6.244  16.966  0.00  0.00    +0.000 C 
ATOM     16  C   UNL     1       7.082   6.275  18.457  0.00  0.00    +0.000 C 
ATOM     17  C   UNL     1       6.153   5.252  19.102  0.00  0.00    +0.000 C 
ATOM     18  N   UNL     1       4.980   5.229  18.237  0.00  0.00    +0.000 N 
ATOM     19  C   UNL     1       5.286   5.774  16.911  0.00  0.00    +0.000 C 
BRANCH  18  20
ATOM     20  C   UNL     1       3.761   4.679  18.560  0.00  0.00    +0.000 A 
ATOM     21  C   UNL     1       2.717   4.573  17.624  0.00  0.00    +0.000 A 
ATOM     22  C   UNL     1       1.499   3.958  17.938  0.00  0.00    +0.000 A 
ATOM     23  C   UNL     1       1.292   3.449  19.211  0.00  0.00    +0.000 A 
ATOM     24  F   UNL     1       0.123   2.855  19.492  0.00  0.00    +0.000 F 
ATOM     25  C   UNL     1       2.286   3.558  20.171  0.00  0.00    +0.000 A 
ATOM     26 CL   UNL     1       2.045   2.946  21.764  0.00  0.00    +0.000 Cl
ATOM     27  C   UNL     1       3.505   4.162  19.845  0.00  0.00    +0.000 A 
ENDBRANCH  18  20
ENDBRANCH   1  15
TORSDOF 5
ENDMDL
MODEL 2
REMARK VINA RESULT:      -8.2      1.218      2.137
REMARK  Name = 
REMARK  7 active torsions:
REMARK  status: ('A' for Active; 'I' for Inactive)
REMARK    1  A    between atoms: C_1  and  C_2
REMARK    2  A    between atoms: N_4  and  C_5
REMARK    3  A    between atoms: C_5  and  C_6
REMARK    4  A    between atoms: C_5  and  C_7
REMARK    5  A    between atoms: C_10  and  O_11
REMARK    6  A    between atoms: O_11  and  C_12
REMARK    7  A    between atoms: N_15  and  C_16
REMARK                            x       y       z     vdW  Elec       q    Type
REMARK                         _______ _______ _______ _____ _____    ______ ____
ROOT
ATOM      1  O   UNL     1       7.532   5.762  15.979  0.00  0.00    +0.000 OA
ENDROOT
BRANCH   1   5
ATOM      2  C   UNL     1       5.962   3.420  12.864  0.00  0.00    +0.000 A 
ATOM      3  C   UNL     1       5.409   3.307  14.144  0.00  0.00    +0.000 A 
ATOM      4  C   UNL     1       5.897   4.080  15.206  0.00  0.00    +0.000 A 
ATOM      5  C   UNL     1       6.949   4.978  15.013  0.00  0.00    +0.000 A 
ATOM      6  C   UNL     1       7.492   5.111  13.733  0.00  0.00    +0.000 A 
ATOM      7  C   UNL     1       7.006   4.340  12.671  0.00  0.00    +0.000 A 
BRANCH   2   8
ATOM      8  C   UNL     1       5.428   2.567  11.724  0.00  0.00    +0.000 C 
ATOM      9  C   UNL     1       6.551   1.735  11.100  0.00  0.00    +0.000 C 
BRANCH   8  13
ATOM     10  C   UNL     1       2.930   4.399   9.541  0.00  0.00    +0.000 C 
ATOM     11  C   UNL     1       3.400   3.400  10.562  0.00  0.00    +0.000 C 
ATOM     12  O   UNL     1       2.629   2.660  11.161  0.00  0.00    +0.000 OA
ATOM     13  N   UNL     1       4.762   3.419  10.750  0.00  0.00    +0.000 N 
ATOM     14  H   UNL     1       5.269   4.232  10.425  0.00  0.00    +0.000 HD
ENDBRANCH   8  13
ENDBRANCH   2   8
ENDBRANCH   1   5
BRANCH   1  15
ATOM     15  C   UNL     1       6.650   6.603  16.735  0.00  0.00    +0.000 C 
ATOM     16  C   UNL     1       7.060   6.618  18.206  0.00  0.00    +0.000 C 
ATOM     17  C   UNL     1       6.220   5.536  18.875  0.00  0.00    +0.000 C 
ATOM     18  N   UNL     1       5.004   5.473  18.075  0.00  0.00    +0.000 N 
ATOM     19  C   UNL     1       5.208   6.062  16.748  0.00  0.00    +0.000 C 
BRANCH  18  20
ATOM     20  C   UNL     1       3.833   4.855  18.450  0.00  0.00    +0.000 A 
ATOM     21  C   UNL     1       2.742   4.725  17.573  0.00  0.00    +0.000 A 
ATOM     22  C   UNL     1       1.575   4.043  17.937  0.00  0.00    +0.000 A 
ATOM     23  C   UNL     1       1.466   3.489  19.203  0.00  0.00    +0.000 A 
ATOM     24  F   UNL     1       0.345   2.831  19.533  0.00  0.00    +0.000 F 
ATOM     25  C   UNL     1       2.509   3.619  20.107  0.00  0.00    +0.000 A 
ATOM     26 CL   UNL     1       2.391   2.952  21.692  0.00  0.00    +0.000 Cl
ATOM     27  C   UNL     1       3.677   4.291  19.731  0.00  0.00    +0.000 A 
ENDBRANCH  18  20
ENDBRANCH   1  15
TORSDOF 5
ENDMDL
MODEL 3
REMARK VINA RESULT:      -8.2      3.429      5.197
REMARK  Name = 
REMARK  7 active torsions:
REMARK  status: ('A' for Active; 'I' for Inactive)
REMARK    1  A    between atoms: C_1  and  C_2
REMARK    2  A    between atoms: N_4  and  C_5
REMARK    3  A    between atoms: C_5  and  C_6
REMARK    4  A    between atoms: C_5  and  C_7
REMARK    5  A    between atoms: C_10  and  O_11
REMARK    6  A    between atoms: O_11  and  C_12
REMARK    7  A    between atoms: N_15  and  C_16
REMARK                            x       y       z     vdW  Elec       q    Type
REMARK                         _______ _______ _______ _____ _____    ______ ____
ROOT
ATOM      1  O   UNL     1       3.521   2.144  19.952  0.00  0.00    +0.000 OA
ENDROOT
BRANCH   1   5
ATOM      2  C   UNL     1       5.239   4.496  16.925  0.00  0.00    +0.000 A 
ATOM      3  C   UNL     1       5.804   4.517  18.204  0.00  0.00    +0.000 A 
ATOM      4  C   UNL     1       5.267   3.737  19.236  0.00  0.00    +0.000 A 
ATOM      5  C   UNL     1       4.153   2.925  19.014  0.00  0.00    +0.000 A 
ATOM      6  C   UNL     1       3.596   2.883  17.734  0.00  0.00    +0.000 A 
ATOM      7  C   UNL     1       4.131   3.661  16.701  0.00  0.00    +0.000 A 
BRANCH   2   8
ATOM      8  C   UNL     1       5.827   5.355  15.817  0.00  0.00    +0.000 C 
ATOM      9  C   UNL     1       5.057   6.672  15.688  0.00  0.00    +0.000 C 
BRANCH   8  13
ATOM     10  C   UNL     1       6.709   3.778  12.485  0.00  0.00    +0.000 C 
ATOM     11  C   UNL     1       6.881   4.684  13.673  0.00  0.00    +0.000 C 
ATOM     12  O   UNL     1       7.860   5.408  13.811  0.00  0.00    +0.000 OA
ATOM     13  N   UNL     1       5.845   4.600  14.573  0.00  0.00    +0.000 N 
ATOM     14  H   UNL     1       5.236   3.794  14.514  0.00  0.00    +0.000 HD
ENDBRANCH   8  13
ENDBRANCH   2   8
ENDBRANCH   1   5
BRANCH   1  15
ATOM     15  C   UNL     1       2.771   2.838  20.959  0.00  0.00    +0.000 C 
ATOM     16  C   UNL     1       1.274   2.726  20.677  0.00  0.00    +0.000 C 
ATOM     17  C   UNL     1       0.914   3.975  19.881  0.00  0.00    +0.000 C 
ATOM     18  N   UNL     1       1.877   4.977  20.321  0.00  0.00    +0.000 N 
ATOM     19  C   UNL     1       3.048   4.352  20.942  0.00  0.00    +0.000 C 
BRANCH  18  20
ATOM     20  C   UNL     1       1.775   6.332  20.103  0.00  0.00    +0.000 A 
ATOM     21  C   UNL     1       2.141   6.921  18.880  0.00  0.00    +0.000 A 
ATOM     22  C   UNL     1       1.979   8.291  18.640  0.00  0.00    +0.000 A 
ATOM     23  C   UNL     1       1.462   9.109  19.633  0.00  0.00    +0.000 A 
ATOM     24  F   UNL     1       1.305  10.417  19.383  0.00  0.00    +0.000 F 
ATOM     25  C   UNL     1       1.115   8.571  20.862  0.00  0.00    +0.000 A 
ATOM     26 CL   UNL     1       0.483   9.571  22.116  0.00  0.00    +0.000 Cl
ATOM     27  C   UNL     1       1.267   7.199  21.089  0.00  0.00    +0.000 A 
ENDBRANCH  18  20
ENDBRANCH   1  15
TORSDOF 5
ENDMDL
MODEL 4
REMARK VINA RESULT:      -8.1      3.518      5.422
REMARK  Name = 
REMARK  7 active torsions:
REMARK  status: ('A' for Active; 'I' for Inactive)
REMARK    1  A    between atoms: C_1  and  C_2
REMARK    2  A    between atoms: N_4  and  C_5
REMARK    3  A    between atoms: C_5  and  C_6
REMARK    4  A    between atoms: C_5  and  C_7
REMARK    5  A    between atoms: C_10  and  O_11
REMARK    6  A    between atoms: O_11  and  C_12
REMARK    7  A    between atoms: N_15  and  C_16
REMARK                            x       y       z     vdW  Elec       q    Type
REMARK                         _______ _______ _______ _____ _____    ______ ____
ROOT
ATOM      1  O   UNL     1       3.330   2.135  20.069  0.00  0.00    +0.000 OA
ENDROOT
BRANCH   1   5
ATOM      2  C   UNL     1       5.070   4.479  17.048  0.00  0.00    +0.000 A 
ATOM      3  C   UNL     1       3.857   3.832  16.791  0.00  0.00    +0.000 A 
ATOM      4  C   UNL     1       3.240   3.052  17.777  0.00  0.00    +0.000 A 
ATOM      5  C   UNL     1       3.823   2.898  19.037  0.00  0.00    +0.000 A 
ATOM      6  C   UNL     1       5.023   3.558  19.308  0.00  0.00    +0.000 A 
ATOM      7  C   UNL     1       5.642   4.338  18.324  0.00  0.00    +0.000 A 
BRANCH   2   8
ATOM      8  C   UNL     1       5.734   5.315  15.964  0.00  0.00    +0.000 C 
ATOM      9  C   UNL     1       5.052   6.680  15.842  0.00  0.00    +0.000 C 
BRANCH   8  13
ATOM     10  C   UNL     1       6.567   3.755  12.613  0.00  0.00    +0.000 C 
ATOM     11  C   UNL     1       6.768   4.637  13.814  0.00  0.00    +0.000 C 
ATOM     12  O   UNL     1       7.771   5.324  13.963  0.00  0.00    +0.000 OA
ATOM     13  N   UNL     1       5.728   4.577  14.710  0.00  0.00    +0.000 N 
ATOM     14  H   UNL     1       5.091   3.793  14.638  0.00  0.00    +0.000 HD
ENDBRANCH   8  13
ENDBRANCH   2   8
ENDBRANCH   1   5
BRANCH   1  15
ATOM     15  C   UNL     1       2.748   2.849  21.169  0.00  0.00    +0.000 C 
ATOM     16  C   UNL     1       1.228   2.711  21.147  0.00  0.00    +0.000 C 
ATOM     17  C   UNL     1       0.718   3.932  20.390  0.00  0.00    +0.000 C 
ATOM     18  N   UNL     1       1.724   4.958  20.634  0.00  0.00    +0.000 N 
ATOM     19  C   UNL     1       2.994   4.366  21.065  0.00  0.00    +0.000 C 
BRANCH  18  20
ATOM     20  C   UNL     1       1.565   6.304  20.400  0.00  0.00    +0.000 A 
ATOM     21  C   UNL     1       0.929   7.153  21.324  0.00  0.00    +0.000 A 
ATOM     22  C   UNL     1       0.822   8.533  21.112  0.00  0.00    +0.000 A 
ATOM     23  C   UNL     1       1.335   9.094  19.952  0.00  0.00    +0.000 A 
ATOM     24  F   UNL     1       1.232  10.418  19.769  0.00  0.00    +0.000 F 
ATOM     25  C   UNL     1       1.945   8.287  19.004  0.00  0.00    +0.000 A 
ATOM     26 CL   UNL     1       2.578   8.960  17.549  0.00  0.00    +0.000 Cl
ATOM     27  C   UNL     1       2.060   6.911  19.231  0.00  0.00    +0.000 A 
ENDBRANCH  18  20
ENDBRANCH   1  15
TORSDOF 5
ENDMDL
MODEL 5
REMARK VINA RESULT:      -8.0      7.296      8.947
REMARK  Name = 
REMARK  7 active torsions:
REMARK  status: ('A' for Active; 'I' for Inactive)
REMARK    1  A    between atoms: C_1  and  C_2
REMARK    2  A    between atoms: N_4  and  C_5
REMARK    3  A    between atoms: C_5  and  C_6
REMARK    4  A    between atoms: C_5  and  C_7
REMARK    5  A    between atoms: C_10  and  O_11
REMARK    6  A    between atoms: O_11  and  C_12
REMARK    7  A    between atoms: N_15  and  C_16
REMARK                            x       y       z     vdW  Elec       q    Type
REMARK                         _______ _______ _______ _____ _____    ______ ____
ROOT
ATOM      1  O   UNL     1       0.755   9.309  19.818  0.00  0.00    +0.000 OA
ENDROOT
BRANCH   1   5
ATOM      2  C   UNL     1       3.485   6.492  18.313  0.00  0.00    +0.000 A 
ATOM      3  C   UNL     1       3.195   7.630  17.553  0.00  0.00    +0.000 A 
ATOM      4  C   UNL     1       2.300   8.598  18.026  0.00  0.00    +0.000 A 
ATOM      5  C   UNL     1       1.672   8.447  19.265  0.00  0.00    +0.000 A 
ATOM      6  C   UNL     1       1.973   7.324  20.039  0.00  0.00    +0.000 A 
ATOM      7  C   UNL     1       2.867   6.356  19.567  0.00  0.00    +0.000 A 
BRANCH   2   8
ATOM      8  C   UNL     1       4.451   5.445  17.781  0.00  0.00    +0.000 C 
ATOM      9  C   UNL     1       4.969   5.843  16.396  0.00  0.00    +0.000 C 
BRANCH   8  13
ATOM     10  C   UNL     1       3.322   1.899  18.493  0.00  0.00    +0.000 C 
ATOM     11  C   UNL     1       4.161   3.138  18.645  0.00  0.00    +0.000 C 
ATOM     12  O   UNL     1       5.061   3.225  19.471  0.00  0.00    +0.000 OA
ATOM     13  N   UNL     1       3.803   4.143  17.777  0.00  0.00    +0.000 N 
ATOM     14  H   UNL     1       2.893   4.081  17.337  0.00  0.00    +0.000 HD
ENDBRANCH   8  13
ENDBRANCH   2   8
ENDBRANCH   1   5
BRANCH   1  15
ATOM     15  C   UNL     1       0.579  10.566  19.151  0.00  0.00    +0.000 C 
ATOM     16  C   UNL     1       0.360  11.682  20.171  0.00  0.00    +0.000 C 
ATOM     17  C   UNL     1      -1.152  11.813  20.315  0.00  0.00    +0.000 C 
ATOM     18  N   UNL     1      -1.679  11.385  19.025  0.00  0.00    +0.000 N 
ATOM     19  C   UNL     1      -0.696  10.586  18.288  0.00  0.00    +0.000 C 
BRANCH  18  20
ATOM     20  C   UNL     1      -2.961  11.600  18.576  0.00  0.00    +0.000 A 
ATOM     21  C   UNL     1      -3.370  11.239  17.280  0.00  0.00    +0.000 A 
ATOM     22  C   UNL     1      -4.691  11.402  16.845  0.00  0.00    +0.000 A 
ATOM     23  C   UNL     1      -5.634  11.954  17.699  0.00  0.00    +0.000 A 
ATOM     24  F   UNL     1      -6.896  12.096  17.271  0.00  0.00    +0.000 F 
ATOM     25  C   UNL     1      -5.265  12.349  18.975  0.00  0.00    +0.000 A 
ATOM     26 CL   UNL     1      -6.416  13.051  20.049  0.00  0.00    +0.000 Cl
ATOM     27  C   UNL     1      -3.946  12.170  19.406  0.00  0.00    +0.000 A 
ENDBRANCH  18  20
ENDBRANCH   1  15
TORSDOF 5
ENDMDL
MODEL 6
REMARK VINA RESULT:      -8.0      6.629      8.405
REMARK  Name = 
REMARK  7 active torsions:
REMARK  status: ('A' for Active; 'I' for Inactive)
REMARK    1  A    between atoms: C_1  and  C_2
REMARK    2  A    between atoms: N_4  and  C_5
REMARK    3  A    between atoms: C_5  and  C_6
REMARK    4  A    between atoms: C_5  and  C_7
REMARK    5  A    between atoms: C_10  and  O_11
REMARK    6  A    between atoms: O_11  and  C_12
REMARK    7  A    between atoms: N_15  and  C_16
REMARK                            x       y       z     vdW  Elec       q    Type
REMARK                         _______ _______ _______ _____ _____    ______ ____
ROOT
ATOM      1  O   UNL     1       1.402   8.883  19.533  0.00  0.00    +0.000 OA
ENDROOT
BRANCH   1   5
ATOM      2  C   UNL     1       3.441   5.283  18.804  0.00  0.00    +0.000 A 
ATOM      3  C   UNL     1       3.449   6.279  17.821  0.00  0.00    +0.000 A 
ATOM      4  C   UNL     1       2.791   7.497  18.033  0.00  0.00    +0.000 A 
ATOM      5  C   UNL     1       2.108   7.744  19.226  0.00  0.00    +0.000 A 
ATOM      6  C   UNL     1       2.113   6.763  20.219  0.00  0.00    +0.000 A 
ATOM      7  C   UNL     1       2.770   5.545  20.010  0.00  0.00    +0.000 A 
BRANCH   2   8
ATOM      8  C   UNL     1       4.151   3.961  18.556  0.00  0.00    +0.000 C 
ATOM      9  C   UNL     1       3.686   2.902  19.558  0.00  0.00    +0.000 C 
BRANCH   8  13
ATOM     10  C   UNL     1       7.800   4.584  17.744  0.00  0.00    +0.000 C 
ATOM     11  C   UNL     1       6.345   4.335  17.459  0.00  0.00    +0.000 C 
ATOM     12  O   UNL     1       5.896   4.299  16.319  0.00  0.00    +0.000 OA
ATOM     13  N   UNL     1       5.591   4.168  18.596  0.00  0.00    +0.000 N 
ATOM     14  H   UNL     1       5.988   4.483  19.473  0.00  0.00    +0.000 HD
ENDBRANCH   8  13
ENDBRANCH   2   8
ENDBRANCH   1   5
BRANCH   1  15
ATOM     15  C   UNL     1       1.234   9.835  18.474  0.00  0.00    +0.000 C 
ATOM     16  C   UNL     1       1.345  11.258  19.017  0.00  0.00    +0.000 C 
ATOM     17  C   UNL     1      -0.086  11.693  19.317  0.00  0.00    +0.000 C 
ATOM     18  N   UNL     1      -0.901  10.936  18.374  0.00  0.00    +0.000 N 
ATOM     19  C   UNL     1      -0.177   9.770  17.861  0.00  0.00    +0.000 C 
BRANCH  18  20
ATOM     20  C   UNL     1      -2.216  11.199  18.067  0.00  0.00    +0.000 A 
ATOM     21  C   UNL     1      -2.775  10.859  16.823  0.00  0.00    +0.000 A 
ATOM     22  C   UNL     1      -4.129  11.071  16.534  0.00  0.00    +0.000 A 
ATOM     23  C   UNL     1      -4.953  11.652  17.486  0.00  0.00    +0.000 A 
ATOM     24  F   UNL     1      -6.249  11.841  17.197  0.00  0.00    +0.000 F 
ATOM     25  C   UNL     1      -4.434  12.028  18.715  0.00  0.00    +0.000 A 
ATOM     26 CL   UNL     1      -5.436  12.765  19.908  0.00  0.00    +0.000 Cl
ATOM     27  C   UNL     1      -3.084  11.799  19.000  0.00  0.00    +0.000 A 
ENDBRANCH  18  20
ENDBRANCH   1  15
TORSDOF 5
ENDMDL
MODEL 7
REMARK VINA RESULT:      -8.0      4.621      5.425
REMARK  Name = 
REMARK  7 active torsions:
REMARK  status: ('A' for Active; 'I' for Inactive)
REMARK    1  A    between atoms: C_1  and  C_2
REMARK    2  A    between atoms: N_4  and  C_5
REMARK    3  A    between atoms: C_5  and  C_6
REMARK    4  A    between atoms: C_5  and  C_7
REMARK    5  A    between atoms: C_10  and  O_11
REMARK    6  A    between atoms: O_11  and  C_12
REMARK    7  A    between atoms: N_15  and  C_16
REMARK                            x       y       z     vdW  Elec       q    Type
REMARK                         _______ _______ _______ _____ _____    ______ ____
ROOT
ATOM      1  O   UNL     1       4.179   5.765  19.311  0.00  0.00    +0.000 OA
ENDROOT
BRANCH   1   5
ATOM      2  C   UNL     1       5.952   4.628  15.675  0.00  0.00    +0.000 A 
ATOM      3  C   UNL     1       6.336   5.835  16.270  0.00  0.00    +0.000 A 
ATOM      4  C   UNL     1       5.777   6.242  17.488  0.00  0.00    +0.000 A 
ATOM      5  C   UNL     1       4.820   5.456  18.134  0.00  0.00    +0.000 A 
ATOM      6  C   UNL     1       4.446   4.240  17.557  0.00  0.00    +0.000 A 
ATOM      7  C   UNL     1       5.004   3.832  16.340  0.00  0.00    +0.000 A 
BRANCH   2   8
ATOM      8  C   UNL     1       6.560   4.205  14.348  0.00  0.00    +0.000 C 
ATOM      9  C   UNL     1       7.562   5.252  13.854  0.00  0.00    +0.000 C 
BRANCH   8  13
ATOM     10  C   UNL     1       4.456   3.067  11.408  0.00  0.00    +0.000 C 
ATOM     11  C   UNL     1       5.705   3.242  12.227  0.00  0.00    +0.000 C 
ATOM     12  O   UNL     1       6.786   2.779  11.883  0.00  0.00    +0.000 OA
ATOM     13  N   UNL     1       5.499   3.955  13.384  0.00  0.00    +0.000 N 
ATOM     14  H   UNL     1       4.546   4.053  13.711  0.00  0.00    +0.000 HD
ENDBRANCH   8  13
ENDBRANCH   2   8
ENDBRANCH   1   5
BRANCH   1  15
ATOM     15  C   UNL     1       2.746   5.741  19.282  0.00  0.00    +0.000 C 
ATOM     16  C   UNL     1       2.228   6.453  18.034  0.00  0.00    +0.000 C 
ATOM     17  C   UNL     1       1.961   7.891  18.466  0.00  0.00    +0.000 C 
ATOM     18  N   UNL     1       1.644   7.791  19.885  0.00  0.00    +0.000 N 
ATOM     19  C   UNL     1       2.133   6.532  20.453  0.00  0.00    +0.000 C 
BRANCH  18  20
ATOM     20  C   UNL     1       1.057   8.779  20.642  0.00  0.00    +0.000 A 
ATOM     21  C   UNL     1       0.723   8.584  21.994  0.00  0.00    +0.000 A 
ATOM     22  C   UNL     1       0.182   9.610  22.780  0.00  0.00    +0.000 A 
ATOM     23  C   UNL     1      -0.057  10.855  22.219  0.00  0.00    +0.000 A 
ATOM     24  F   UNL     1      -0.567  11.829  22.986  0.00  0.00    +0.000 F 
ATOM     25  C   UNL     1       0.233  11.079  20.882  0.00  0.00    +0.000 A 
ATOM     26 CL   UNL     1      -0.068  12.614  20.159  0.00  0.00    +0.000 Cl
ATOM     27  C   UNL     1       0.787  10.053  20.108  0.00  0.00    +0.000 A 
ENDBRANCH  18  20
ENDBRANCH   1  15
TORSDOF 5
ENDMDL
MODEL 8
REMARK VINA RESULT:      -7.9      7.480      9.168
REMARK  Name = 
REMARK  7 active torsions:
REMARK  status: ('A' for Active; 'I' for Inactive)
REMARK    1  A    between atoms: C_1  and  C_2
REMARK    2  A    between atoms: N_4  and  C_5
REMARK    3  A    between atoms: C_5  and  C_6
REMARK    4  A    between atoms: C_5  and  C_7
REMARK    5  A    between atoms: C_10  and  O_11
REMARK    6  A    between atoms: O_11  and  C_12
REMARK    7  A    between atoms: N_15  and  C_16
REMARK                            x       y       z     vdW  Elec       q    Type
REMARK                         _______ _______ _______ _____ _____    ______ ____
ROOT
ATOM      1  O   UNL     1       0.646   9.764  19.898  0.00  0.00    +0.000 OA
ENDROOT
BRANCH   1   5
ATOM      2  C   UNL     1       3.177   6.784  18.360  0.00  0.00    +0.000 A 
ATOM      3  C   UNL     1       2.630   6.617  19.636  0.00  0.00    +0.000 A 
ATOM      4  C   UNL     1       1.772   7.583  20.178  0.00  0.00    +0.000 A 
ATOM      5  C   UNL     1       1.447   8.736  19.460  0.00  0.00    +0.000 A 
ATOM      6  C   UNL     1       1.974   8.900  18.177  0.00  0.00    +0.000 A 
ATOM      7  C   UNL     1       2.831   7.936  17.633  0.00  0.00    +0.000 A 
BRANCH   2   8
ATOM      8  C   UNL     1       4.115   5.732  17.789  0.00  0.00    +0.000 C 
ATOM      9  C   UNL     1       4.836   6.267  16.548  0.00  0.00    +0.000 C 
BRANCH   8  13
ATOM     10  C   UNL     1       2.691   2.220  17.764  0.00  0.00    +0.000 C 
ATOM     11  C   UNL     1       3.616   3.333  18.174  0.00  0.00    +0.000 C 
ATOM     12  O   UNL     1       4.488   3.182  19.021  0.00  0.00    +0.000 OA
ATOM     13  N   UNL     1       3.369   4.513  17.514  0.00  0.00    +0.000 N 
ATOM     14  H   UNL     1       2.475   4.614  17.050  0.00  0.00    +0.000 HD
ENDBRANCH   8  13
ENDBRANCH   2   8
ENDBRANCH   1   5
BRANCH   1  15
ATOM     15  C   UNL     1       0.378  10.810  18.954  0.00  0.00    +0.000 C 
ATOM     16  C   UNL     1       0.276  12.156  19.668  0.00  0.00    +0.000 C 
ATOM     17  C   UNL     1      -1.208  12.355  19.955  0.00  0.00    +0.000 C 
ATOM     18  N   UNL     1      -1.885  11.621  18.894  0.00  0.00    +0.000 N 
ATOM     19  C   UNL     1      -0.994  10.635  18.276  0.00  0.00    +0.000 C 
BRANCH  18  20
ATOM     20  C   UNL     1      -3.215  11.742  18.563  0.00  0.00    +0.000 A 
ATOM     21  C   UNL     1      -3.709  11.362  17.303  0.00  0.00    +0.000 A 
ATOM     22  C   UNL     1      -5.073  11.429  16.990  0.00  0.00    +0.000 A 
ATOM     23  C   UNL     1      -5.974  11.901  17.932  0.00  0.00    +0.000 A 
ATOM     24  F   UNL     1      -7.277  11.950  17.619  0.00  0.00    +0.000 F 
ATOM     25  C   UNL     1      -5.523  12.311  19.177  0.00  0.00    +0.000 A 
ATOM     26 CL   UNL     1      -6.623  12.914  20.359  0.00  0.00    +0.000 Cl
ATOM     27  C   UNL     1      -4.161  12.228  19.486  0.00  0.00    +0.000 A 
ENDBRANCH  18  20
ENDBRANCH   1  15
TORSDOF 5
ENDMDL
MODEL 9
REMARK VINA RESULT:      -7.9      4.465      5.200
REMARK  Name = 
REMARK  7 active torsions:
REMARK  status: ('A' for Active; 'I' for Inactive)
REMARK    1  A    between atoms: C_1  and  C_2
REMARK    2  A    between atoms: N_4  and  C_5
REMARK    3  A    between atoms: C_5  and  C_6
REMARK    4  A    between atoms: C_5  and  C_7
REMARK    5  A    between atoms: C_10  and  O_11
REMARK    6  A    between atoms: O_11  and  C_12
REMARK    7  A    between atoms: N_15  and  C_16
REMARK                            x       y       z     vdW  Elec       q    Type
REMARK                         _______ _______ _______ _____ _____    ______ ____
ROOT
ATOM      1  O   UNL     1       4.197   5.707  19.191  0.00  0.00    +0.000 OA
ENDROOT
BRANCH   1   5
ATOM      2  C   UNL     1       5.851   4.563  15.502  0.00  0.00    +0.000 A 
ATOM      3  C   UNL     1       5.998   5.887  15.931  0.00  0.00    +0.000 A 
ATOM      4  C   UNL     1       5.471   6.303  17.160  0.00  0.00    +0.000 A 
ATOM      5  C   UNL     1       4.783   5.408  17.984  0.00  0.00    +0.000 A 
ATOM      6  C   UNL     1       4.651   4.081  17.572  0.00  0.00    +0.000 A 
ATOM      7  C   UNL     1       5.177   3.663  16.344  0.00  0.00    +0.000 A 
BRANCH   2   8
ATOM      8  C   UNL     1       6.420   4.129  14.160  0.00  0.00    +0.000 C 
ATOM      9  C   UNL     1       7.503   5.105  13.691  0.00  0.00    +0.000 C 
BRANCH   8  13
ATOM     10  C   UNL     1       4.176   3.154  11.266  0.00  0.00    +0.000 C 
ATOM     11  C   UNL     1       5.430   3.173  12.096  0.00  0.00    +0.000 C 
ATOM     12  O   UNL     1       6.418   2.509  11.808  0.00  0.00    +0.000 OA
ATOM     13  N   UNL     1       5.339   3.994  13.195  0.00  0.00    +0.000 N 
ATOM     14  H   UNL     1       4.415   4.277  13.495  0.00  0.00    +0.000 HD
ENDBRANCH   8  13
ENDBRANCH   2   8
ENDBRANCH   1   5
BRANCH   1  15
ATOM     15  C   UNL     1       2.763   5.740  19.213  0.00  0.00    +0.000 C 
ATOM     16  C   UNL     1       2.223   6.210  17.864  0.00  0.00    +0.000 C 
ATOM     17  C   UNL     1       2.026   7.715  18.005  0.00  0.00    +0.000 C 
ATOM     18  N   UNL     1       1.762   7.916  19.425  0.00  0.00    +0.000 N 
ATOM     19  C   UNL     1       2.227   6.775  20.219  0.00  0.00    +0.000 C 
BRANCH  18  20
ATOM     20  C   UNL     1       1.242   9.059  19.985  0.00  0.00    +0.000 A 
ATOM     21  C   UNL     1       1.262  10.296  19.316  0.00  0.00    +0.000 A 
ATOM     22  C   UNL     1       0.677  11.445  19.863  0.00  0.00    +0.000 A 
ATOM     23  C   UNL     1       0.073  11.385  21.109  0.00  0.00    +0.000 A 
ATOM     24  F   UNL     1      -0.490  12.492  21.615  0.00  0.00    +0.000 F 
ATOM     25  C   UNL     1       0.056  10.190  21.813  0.00  0.00    +0.000 A 
ATOM     26 CL   UNL     1      -0.677  10.095  23.370  0.00  0.00    +0.000 Cl
ATOM     27  C   UNL     1       0.631   9.044  21.254  0.00  0.00    +0.000 A 
ENDBRANCH  18  20
ENDBRANCH   1  15
TORSDOF 5
ENDMDL
