MODEL 1
REMARK VINA RESULT:      -7.4      0.000      0.000
REMARK  Name = 
REMARK  3 active torsions:
REMARK  status: ('A' for Active; 'I' for Inactive)
REMARK    1  A    between atoms: C_1  and  C_2
REMARK    2  A    between atoms: C_7  and  C_8
REMARK    3  A    between atoms: C_15  and  C_16
REMARK                            x       y       z     vdW  Elec       q    Type
REMARK                         _______ _______ _______ _____ _____    ______ ____
ROOT
ATOM      1  C   UNL     1       0.002  16.717  18.647  0.00  0.00    +0.000 C 
ATOM      2  C   UNL     1       0.514  15.308  18.651  0.00  0.00    +0.000 A 
ATOM      3  C   UNL     1       1.872  15.020  18.568  0.00  0.00    +0.000 A 
ATOM      4  C   UNL     1       2.291  13.687  18.561  0.00  0.00    +0.000 A 
ATOM      5  C   UNL     1       1.402  12.621  18.620  0.00  0.00    +0.000 A 
ATOM      6  N   UNL     1       1.910  11.378  18.641  0.00  0.00    +0.000 NA
ATOM      7  C   UNL     1       1.083  10.316  18.764  0.00  0.00    +0.000 A 
ATOM      8  C   UNL     1      -0.292  10.479  18.796  0.00  0.00    +0.000 A 
ATOM      9  C   UNL     1      -0.842  11.749  18.653  0.00  0.00    +0.000 A 
ATOM     10  C   UNL     1       0.016  12.883  18.653  0.00  0.00    +0.000 A 
ATOM     11  C   UNL     1      -0.396  14.244  18.695  0.00  0.00    +0.000 A 
ENDROOT
BRANCH   9  12
ATOM     12  C   UNL     1      -2.331  11.876  18.582  0.00  0.00    +0.000 C 
ATOM     13  O   UNL     1      -2.852  11.734  17.475  0.00  0.00    +0.000 OA
ATOM     14  N   UNL     1      -3.114  12.168  19.714  0.00  0.00    +0.000 N 
ATOM     15  C   UNL     1      -4.572  12.159  19.546  0.00  0.00    +0.000 C 
ATOM     16  C   UNL     1      -5.211  13.418  20.124  0.00  0.00    +0.000 C 
ATOM     17  C   UNL     1      -4.781  13.641  21.573  0.00  0.00    +0.000 C 
ATOM     18  C   UNL     1      -3.254  13.603  21.696  0.00  0.00    +0.000 C 
ATOM     19  C   UNL     1      -2.705  12.297  21.118  0.00  0.00    +0.000 C 
ATOM     20  O   UNL     1      -5.360  12.617  22.400  0.00  0.00    +0.000 OA
ATOM     21  C   UNL     1      -5.900  13.308  23.525  0.00  0.00    +0.000 C 
ATOM     22  C   UNL     1      -6.279  14.650  22.964  0.00  0.00    +0.000 C 
ATOM     23  O   UNL     1      -5.245  14.928  22.021  0.00  0.00    +0.000 OA
ENDBRANCH   9  12
BRANCH   7  24
ATOM     24  C   UNL     1       1.724   8.983  18.837  0.00  0.00    +0.000 A 
ATOM     25  C   UNL     1       1.629   8.178  19.981  0.00  0.00    +0.000 A 
ATOM     26  C   UNL     1       2.232   6.930  19.996  0.00  0.00    +0.000 A 
ATOM     27  N   UNL     1       2.929   6.427  18.960  0.00  0.00    +0.000 NA
ATOM     28  C   UNL     1       3.029   7.209  17.864  0.00  0.00    +0.000 A 
ATOM     29  C   UNL     1       2.451   8.464  17.755  0.00  0.00    +0.000 A 
ENDBRANCH   7  24
TORSDOF 2
ENDMDL
MODEL 2
REMARK VINA RESULT:      -7.3      3.132      6.081
REMARK  Name = 
REMARK  3 active torsions:
REMARK  status: ('A' for Active; 'I' for Inactive)
REMARK    1  A    between atoms: C_1  and  C_2
REMARK    2  A    between atoms: C_7  and  C_8
REMARK    3  A    between atoms: C_15  and  C_16
REMARK                            x       y       z     vdW  Elec       q    Type
REMARK                         _______ _______ _______ _____ _____    ______ ____
ROOT
ATOM      1  C   UNL     1      -2.271  12.660  23.449  0.00  0.00    +0.000 C 
ATOM      2  C   UNL     1      -1.425  11.625  22.768  0.00  0.00    +0.000 A 
ATOM      3  C   UNL     1      -1.184  10.382  23.341  0.00  0.00    +0.000 A 
ATOM      4  C   UNL     1      -0.376   9.462  22.669  0.00  0.00    +0.000 A 
ATOM      5  C   UNL     1       0.218   9.740  21.443  0.00  0.00    +0.000 A 
ATOM      6  N   UNL     1       0.950   8.775  20.864  0.00  0.00    +0.000 NA
ATOM      7  C   UNL     1       1.489   8.981  19.643  0.00  0.00    +0.000 A 
ATOM      8  C   UNL     1       1.364  10.203  19.002  0.00  0.00    +0.000 A 
ATOM      9  C   UNL     1       0.714  11.255  19.639  0.00  0.00    +0.000 A 
ATOM     10  C   UNL     1       0.031  11.014  20.863  0.00  0.00    +0.000 A 
ATOM     11  C   UNL     1      -0.822  11.928  21.541  0.00  0.00    +0.000 A 
ENDROOT
BRANCH   9  12
ATOM     12  C   UNL     1       0.692  12.591  18.966  0.00  0.00    +0.000 C 
ATOM     13  O   UNL     1      -0.105  12.737  18.038  0.00  0.00    +0.000 OA
ATOM     14  N   UNL     1       1.553  13.638  19.346  0.00  0.00    +0.000 N 
ATOM     15  C   UNL     1       1.365  14.937  18.691  0.00  0.00    +0.000 C 
ATOM     16  C   UNL     1       2.685  15.496  18.169  0.00  0.00    +0.000 C 
ATOM     17  C   UNL     1       3.745  15.533  19.270  0.00  0.00    +0.000 C 
ATOM     18  C   UNL     1       3.871  14.163  19.944  0.00  0.00    +0.000 C 
ATOM     19  C   UNL     1       2.509  13.695  20.460  0.00  0.00    +0.000 C 
ATOM     20  O   UNL     1       3.376  16.523  20.245  0.00  0.00    +0.000 OA
ATOM     21  C   UNL     1       4.568  17.271  20.485  0.00  0.00    +0.000 C 
ATOM     22  C   UNL     1       5.295  17.201  19.172  0.00  0.00    +0.000 C 
ATOM     23  O   UNL     1       5.020  15.883  18.700  0.00  0.00    +0.000 OA
ENDBRANCH   9  12
BRANCH   7  24
ATOM     24  C   UNL     1       2.234   7.849  19.048  0.00  0.00    +0.000 A 
ATOM     25  C   UNL     1       2.229   6.573  19.629  0.00  0.00    +0.000 A 
ATOM     26  C   UNL     1       2.929   5.540  19.026  0.00  0.00    +0.000 A 
ATOM     27  N   UNL     1       3.639   5.683  17.892  0.00  0.00    +0.000 NA
ATOM     28  C   UNL     1       3.652   6.915  17.340  0.00  0.00    +0.000 A 
ATOM     29  C   UNL     1       2.975   8.004  17.867  0.00  0.00    +0.000 A 
ENDBRANCH   7  24
TORSDOF 2
ENDMDL
MODEL 3
REMARK VINA RESULT:      -7.3      2.669      5.712
REMARK  Name = 
REMARK  3 active torsions:
REMARK  status: ('A' for Active; 'I' for Inactive)
REMARK    1  A    between atoms: C_1  and  C_2
REMARK    2  A    between atoms: C_7  and  C_8
REMARK    3  A    between atoms: C_15  and  C_16
REMARK                            x       y       z     vdW  Elec       q    Type
REMARK                         _______ _______ _______ _____ _____    ______ ____
ROOT
ATOM      1  C   UNL     1      -0.428   8.528  21.580  0.00  0.00    +0.000 C 
ATOM      2  C   UNL     1      -0.039   9.818  20.922  0.00  0.00    +0.000 A 
ATOM      3  C   UNL     1       0.813   9.854  19.825  0.00  0.00    +0.000 A 
ATOM      4  C   UNL     1       1.154  11.086  19.261  0.00  0.00    +0.000 A 
ATOM      5  C   UNL     1       0.686  12.295  19.761  0.00  0.00    +0.000 A 
ATOM      6  N   UNL     1       1.047  13.422  19.126  0.00  0.00    +0.000 NA
ATOM      7  C   UNL     1       0.560  14.613  19.541  0.00  0.00    +0.000 A 
ATOM      8  C   UNL     1      -0.251  14.704  20.660  0.00  0.00    +0.000 A 
ATOM      9  C   UNL     1      -0.536  13.563  21.403  0.00  0.00    +0.000 A 
ATOM     10  C   UNL     1      -0.140  12.291  20.906  0.00  0.00    +0.000 A 
ATOM     11  C   UNL     1      -0.507  11.028  21.449  0.00  0.00    +0.000 A 
ENDROOT
BRANCH   9  12
ATOM     12  C   UNL     1      -1.323  13.714  22.667  0.00  0.00    +0.000 C 
ATOM     13  O   UNL     1      -0.687  13.746  23.722  0.00  0.00    +0.000 OA
ATOM     14  N   UNL     1      -2.728  13.795  22.672  0.00  0.00    +0.000 N 
ATOM     15  C   UNL     1      -3.384  14.054  23.958  0.00  0.00    +0.000 C 
ATOM     16  C   UNL     1      -4.523  13.072  24.213  0.00  0.00    +0.000 C 
ATOM     17  C   UNL     1      -5.503  13.045  23.041  0.00  0.00    +0.000 C 
ATOM     18  C   UNL     1      -4.761  12.809  21.722  0.00  0.00    +0.000 C 
ATOM     19  C   UNL     1      -3.658  13.854  21.536  0.00  0.00    +0.000 C 
ATOM     20  O   UNL     1      -6.207  14.297  22.986  0.00  0.00    +0.000 OA
ATOM     21  C   UNL     1      -7.580  13.945  22.816  0.00  0.00    +0.000 C 
ATOM     22  C   UNL     1      -7.692  12.621  23.518  0.00  0.00    +0.000 C 
ATOM     23  O   UNL     1      -6.451  11.977  23.230  0.00  0.00    +0.000 OA
ENDBRANCH   9  12
BRANCH   7  24
ATOM     24  C   UNL     1       0.959  15.801  18.754  0.00  0.00    +0.000 A 
ATOM     25  C   UNL     1       2.267  15.967  18.275  0.00  0.00    +0.000 A 
ATOM     26  C   UNL     1       2.588  17.090  17.529  0.00  0.00    +0.000 A 
ATOM     27  N   UNL     1       1.708  18.063  17.229  0.00  0.00    +0.000 NA
ATOM     28  C   UNL     1       0.453  17.906  17.700  0.00  0.00    +0.000 A 
ATOM     29  C   UNL     1       0.038  16.814  18.446  0.00  0.00    +0.000 A 
ENDBRANCH   7  24
TORSDOF 2
ENDMDL
MODEL 4
REMARK VINA RESULT:      -7.1      3.174      7.766
REMARK  Name = 
REMARK  3 active torsions:
REMARK  status: ('A' for Active; 'I' for Inactive)
REMARK    1  A    between atoms: C_1  and  C_2
REMARK    2  A    between atoms: C_7  and  C_8
REMARK    3  A    between atoms: C_15  and  C_16
REMARK                            x       y       z     vdW  Elec       q    Type
REMARK                         _______ _______ _______ _____ _____    ______ ____
ROOT
ATOM      1  C   UNL     1      -2.664   9.924  14.897  0.00  0.00    +0.000 C 
ATOM      2  C   UNL     1      -3.215  10.595  16.120  0.00  0.00    +0.000 A 
ATOM      3  C   UNL     1      -4.554  10.958  16.217  0.00  0.00    +0.000 A 
ATOM      4  C   UNL     1      -5.009  11.594  17.375  0.00  0.00    +0.000 A 
ATOM      5  C   UNL     1      -4.174  11.896  18.443  0.00  0.00    +0.000 A 
ATOM      6  N   UNL     1      -4.718  12.479  19.524  0.00  0.00    +0.000 NA
ATOM      7  C   UNL     1      -3.953  12.730  20.609  0.00  0.00    +0.000 A 
ATOM      8  C   UNL     1      -2.593  12.465  20.603  0.00  0.00    +0.000 A 
ATOM      9  C   UNL     1      -1.988  11.975  19.451  0.00  0.00    +0.000 A 
ATOM     10  C   UNL     1      -2.800  11.585  18.349  0.00  0.00    +0.000 A 
ATOM     11  C   UNL     1      -2.356  10.907  17.180  0.00  0.00    +0.000 A 
ENDROOT
BRANCH   9  12
ATOM     12  C   UNL     1      -0.502  11.804  19.444  0.00  0.00    +0.000 C 
ATOM     13  O   UNL     1      -0.062  10.722  19.835  0.00  0.00    +0.000 OA
ATOM     14  N   UNL     1       0.370  12.830  19.035  0.00  0.00    +0.000 N 
ATOM     15  C   UNL     1       1.801  12.510  18.964  0.00  0.00    +0.000 C 
ATOM     16  C   UNL     1       2.645  13.561  19.678  0.00  0.00    +0.000 C 
ATOM     17  C   UNL     1       2.324  14.967  19.172  0.00  0.00    +0.000 C 
ATOM     18  C   UNL     1       0.817  15.231  19.232  0.00  0.00    +0.000 C 
ATOM     19  C   UNL     1       0.053  14.147  18.469  0.00  0.00    +0.000 C 
ATOM     20  O   UNL     1       2.786  15.096  17.816  0.00  0.00    +0.000 OA
ATOM     21  C   UNL     1       3.476  16.344  17.776  0.00  0.00    +0.000 C 
ATOM     22  C   UNL     1       4.021  16.489  19.169  0.00  0.00    +0.000 C 
ATOM     23  O   UNL     1       2.994  15.940  19.995  0.00  0.00    +0.000 OA
ENDBRANCH   9  12
BRANCH   7  24
ATOM     24  C   UNL     1      -4.639  13.321  21.780  0.00  0.00    +0.000 A 
ATOM     25  C   UNL     1      -3.985  14.203  22.653  0.00  0.00    +0.000 A 
ATOM     26  C   UNL     1      -4.675  14.743  23.727  0.00  0.00    +0.000 A 
ATOM     27  N   UNL     1      -5.963  14.467  24.001  0.00  0.00    +0.000 NA
ATOM     28  C   UNL     1      -6.586  13.609  23.166  0.00  0.00    +0.000 A 
ATOM     29  C   UNL     1      -5.981  13.028  22.062  0.00  0.00    +0.000 A 
ENDBRANCH   7  24
TORSDOF 2
ENDMDL
MODEL 5
REMARK VINA RESULT:      -7.0      1.120      1.194
REMARK  Name = 
REMARK  3 active torsions:
REMARK  status: ('A' for Active; 'I' for Inactive)
REMARK    1  A    between atoms: C_1  and  C_2
REMARK    2  A    between atoms: C_7  and  C_8
REMARK    3  A    between atoms: C_15  and  C_16
REMARK                            x       y       z     vdW  Elec       q    Type
REMARK                         _______ _______ _______ _____ _____    ______ ____
ROOT
ATOM      1  C   UNL     1      -0.671  16.470  19.036  0.00  0.00    +0.000 C 
ATOM      2  C   UNL     1      -0.046  15.107  19.033  0.00  0.00    +0.000 A 
ATOM      3  C   UNL     1       1.304  14.919  19.303  0.00  0.00    +0.000 A 
ATOM      4  C   UNL     1       1.836  13.627  19.271  0.00  0.00    +0.000 A 
ATOM      5  C   UNL     1       1.072  12.508  18.965  0.00  0.00    +0.000 A 
ATOM      6  N   UNL     1       1.672  11.307  18.994  0.00  0.00    +0.000 NA
ATOM      7  C   UNL     1       0.949  10.188  18.767  0.00  0.00    +0.000 A 
ATOM      8  C   UNL     1      -0.393  10.259  18.429  0.00  0.00    +0.000 A 
ATOM      9  C   UNL     1      -1.003  11.499  18.274  0.00  0.00    +0.000 A 
ATOM     10  C   UNL     1      -0.291  12.676  18.636  0.00  0.00    +0.000 A 
ATOM     11  C   UNL     1      -0.828  13.992  18.706  0.00  0.00    +0.000 A 
ENDROOT
BRANCH   9  12
ATOM     12  C   UNL     1      -2.422  11.541  17.802  0.00  0.00    +0.000 C 
ATOM     13  O   UNL     1      -2.616  11.372  16.598  0.00  0.00    +0.000 OA
ATOM     14  N   UNL     1      -3.497  11.784  18.678  0.00  0.00    +0.000 N 
ATOM     15  C   UNL     1      -4.852  11.691  18.123  0.00  0.00    +0.000 C 
ATOM     16  C   UNL     1      -5.693  12.910  18.491  0.00  0.00    +0.000 C 
ATOM     17  C   UNL     1      -5.684  13.153  20.000  0.00  0.00    +0.000 C 
ATOM     18  C   UNL     1      -4.247  13.203  20.530  0.00  0.00    +0.000 C 
ATOM     19  C   UNL     1      -3.490  11.932  20.139  0.00  0.00    +0.000 C 
ATOM     20  O   UNL     1      -6.406  12.095  20.652  0.00  0.00    +0.000 OA
ATOM     21  C   UNL     1      -7.268  12.751  21.581  0.00  0.00    +0.000 C 
ATOM     22  C   UNL     1      -7.556  14.070  20.922  0.00  0.00    +0.000 C 
ATOM     23  O   UNL     1      -6.323  14.410  20.289  0.00  0.00    +0.000 OA
ENDBRANCH   9  12
BRANCH   7  24
ATOM     24  C   UNL     1       1.672   8.900  18.873  0.00  0.00    +0.000 A 
ATOM     25  C   UNL     1       1.587   8.098  20.020  0.00  0.00    +0.000 A 
ATOM     26  C   UNL     1       2.269   6.892  20.066  0.00  0.00    +0.000 A 
ATOM     27  N   UNL     1       3.034   6.429  19.060  0.00  0.00    +0.000 NA
ATOM     28  C   UNL     1       3.122   7.209  17.962  0.00  0.00    +0.000 A 
ATOM     29  C   UNL     1       2.469   8.423  17.822  0.00  0.00    +0.000 A 
ENDBRANCH   7  24
TORSDOF 2
ENDMDL
MODEL 6
REMARK VINA RESULT:      -6.8      2.650      8.186
REMARK  Name = 
REMARK  3 active torsions:
REMARK  status: ('A' for Active; 'I' for Inactive)
REMARK    1  A    between atoms: C_1  and  C_2
REMARK    2  A    between atoms: C_7  and  C_8
REMARK    3  A    between atoms: C_15  and  C_16
REMARK                            x       y       z     vdW  Elec       q    Type
REMARK                         _______ _______ _______ _____ _____    ______ ____
ROOT
ATOM      1  C   UNL     1      -2.834  10.538  15.197  0.00  0.00    +0.000 C 
ATOM      2  C   UNL     1      -3.569  11.055  16.398  0.00  0.00    +0.000 A 
ATOM      3  C   UNL     1      -4.951  11.197  16.408  0.00  0.00    +0.000 A 
ATOM      4  C   UNL     1      -5.582  11.699  17.549  0.00  0.00    +0.000 A 
ATOM      5  C   UNL     1      -4.881  12.081  18.686  0.00  0.00    +0.000 A 
ATOM      6  N   UNL     1      -5.584  12.520  19.743  0.00  0.00    +0.000 NA
ATOM      7  C   UNL     1      -4.946  12.839  20.890  0.00  0.00    +0.000 A 
ATOM      8  C   UNL     1      -3.564  12.793  20.977  0.00  0.00    +0.000 A 
ATOM      9  C   UNL     1      -2.810  12.458  19.857  0.00  0.00    +0.000 A 
ATOM     10  C   UNL     1      -3.471  11.996  18.685  0.00  0.00    +0.000 A 
ATOM     11  C   UNL     1      -2.845  11.451  17.530  0.00  0.00    +0.000 A 
ENDROOT
BRANCH   9  12
ATOM     12  C   UNL     1      -1.319  12.525  19.955  0.00  0.00    +0.000 C 
ATOM     13  O   UNL     1      -0.823  13.628  20.190  0.00  0.00    +0.000 OA
ATOM     14  N   UNL     1      -0.503  11.394  19.768  0.00  0.00    +0.000 N 
ATOM     15  C   UNL     1       0.937  11.556  19.998  0.00  0.00    +0.000 C 
ATOM     16  C   UNL     1       1.756  10.993  18.841  0.00  0.00    +0.000 C 
ATOM     17  C   UNL     1       1.362   9.548  18.535  0.00  0.00    +0.000 C 
ATOM     18  C   UNL     1      -0.153   9.432  18.342  0.00  0.00    +0.000 C 
ATOM     19  C   UNL     1      -0.892   9.993  19.559  0.00  0.00    +0.000 C 
ATOM     20  O   UNL     1       1.780   8.706  19.623  0.00  0.00    +0.000 OA
ATOM     21  C   UNL     1       2.415   7.588  19.004  0.00  0.00    +0.000 C 
ATOM     22  C   UNL     1       2.992   8.166  17.743  0.00  0.00    +0.000 C 
ATOM     23  O   UNL     1       2.013   9.117  17.326  0.00  0.00    +0.000 OA
ENDBRANCH   9  12
BRANCH   7  24
ATOM     24  C   UNL     1      -5.797  13.259  22.026  0.00  0.00    +0.000 A 
ATOM     25  C   UNL     1      -6.944  12.543  22.396  0.00  0.00    +0.000 A 
ATOM     26  C   UNL     1      -7.699  12.967  23.478  0.00  0.00    +0.000 A 
ATOM     27  N   UNL     1      -7.404  14.054  24.214  0.00  0.00    +0.000 NA
ATOM     28  C   UNL     1      -6.305  14.749  23.848  0.00  0.00    +0.000 A 
ATOM     29  C   UNL     1      -5.485  14.395  22.788  0.00  0.00    +0.000 A 
ENDBRANCH   7  24
TORSDOF 2
ENDMDL
MODEL 7
REMARK VINA RESULT:      -6.8      3.325      7.627
REMARK  Name = 
REMARK  3 active torsions:
REMARK  status: ('A' for Active; 'I' for Inactive)
REMARK    1  A    between atoms: C_1  and  C_2
REMARK    2  A    between atoms: C_7  and  C_8
REMARK    3  A    between atoms: C_15  and  C_16
REMARK                            x       y       z     vdW  Elec       q    Type
REMARK                         _______ _______ _______ _____ _____    ______ ____
ROOT
ATOM      1  C   UNL     1      -3.210  10.304  14.880  0.00  0.00    +0.000 C 
ATOM      2  C   UNL     1      -3.480  10.885  16.235  0.00  0.00    +0.000 A 
ATOM      3  C   UNL     1      -4.764  11.219  16.648  0.00  0.00    +0.000 A 
ATOM      4  C   UNL     1      -4.955  11.772  17.917  0.00  0.00    +0.000 A 
ATOM      5  C   UNL     1      -3.905  12.020  18.793  0.00  0.00    +0.000 A 
ATOM      6  N   UNL     1      -4.198  12.523  20.003  0.00  0.00    +0.000 NA
ATOM      7  C   UNL     1      -3.213  12.717  20.907  0.00  0.00    +0.000 A 
ATOM      8  C   UNL     1      -1.888  12.475  20.586  0.00  0.00    +0.000 A 
ATOM      9  C   UNL     1      -1.551  12.070  19.298  0.00  0.00    +0.000 A 
ATOM     10  C   UNL     1      -2.584  11.738  18.379  0.00  0.00    +0.000 A 
ATOM     11  C   UNL     1      -2.408  11.144  17.099  0.00  0.00    +0.000 A 
ENDROOT
BRANCH   9  12
ATOM     12  C   UNL     1      -0.102  11.925  18.953  0.00  0.00    +0.000 C 
ATOM     13  O   UNL     1       0.353  10.781  18.923  0.00  0.00    +0.000 OA
ATOM     14  N   UNL     1       0.724  13.035  18.696  0.00  0.00    +0.000 N 
ATOM     15  C   UNL     1       2.099  12.766  18.259  0.00  0.00    +0.000 C 
ATOM     16  C   UNL     1       3.111  13.571  19.067  0.00  0.00    +0.000 C 
ATOM     17  C   UNL     1       2.765  15.060  19.060  0.00  0.00    +0.000 C 
ATOM     18  C   UNL     1       1.310  15.279  19.486  0.00  0.00    +0.000 C 
ATOM     19  C   UNL     1       0.366  14.457  18.606  0.00  0.00    +0.000 C 
ATOM     20  O   UNL     1       2.968  15.584  17.736  0.00  0.00    +0.000 OA
ATOM     21  C   UNL     1       3.695  16.797  17.924  0.00  0.00    +0.000 C 
ATOM     22  C   UNL     1       4.500  16.536  19.166  0.00  0.00    +0.000 C 
ATOM     23  O   UNL     1       3.623  15.759  19.982  0.00  0.00    +0.000 OA
ENDBRANCH   9  12
BRANCH   7  24
ATOM     24  C   UNL     1      -3.625  13.221  22.237  0.00  0.00    +0.000 A 
ATOM     25  C   UNL     1      -3.608  12.403  23.376  0.00  0.00    +0.000 A 
ATOM     26  C   UNL     1      -3.988  12.924  24.603  0.00  0.00    +0.000 A 
ATOM     27  N   UNL     1      -4.390  14.197  24.780  0.00  0.00    +0.000 NA
ATOM     28  C   UNL     1      -4.417  14.979  23.680  0.00  0.00    +0.000 A 
ATOM     29  C   UNL     1      -4.046  14.547  22.415  0.00  0.00    +0.000 A 
ENDBRANCH   7  24
TORSDOF 2
ENDMDL
MODEL 8
REMARK VINA RESULT:      -6.7      1.756      2.115
REMARK  Name = 
REMARK  3 active torsions:
REMARK  status: ('A' for Active; 'I' for Inactive)
REMARK    1  A    between atoms: C_1  and  C_2
REMARK    2  A    between atoms: C_7  and  C_8
REMARK    3  A    between atoms: C_15  and  C_16
REMARK                            x       y       z     vdW  Elec       q    Type
REMARK                         _______ _______ _______ _____ _____    ______ ____
ROOT
ATOM      1  C   UNL     1       1.233  16.538  18.609  0.00  0.00    +0.000 C 
ATOM      2  C   UNL     1       1.496  15.061  18.598  0.00  0.00    +0.000 A 
ATOM      3  C   UNL     1       2.669  14.529  18.077  0.00  0.00    +0.000 A 
ATOM      4  C   UNL     1       2.854  13.144  18.079  0.00  0.00    +0.000 A 
ATOM      5  C   UNL     1       1.902  12.261  18.572  0.00  0.00    +0.000 A 
ATOM      6  N   UNL     1       2.192  10.949  18.559  0.00  0.00    +0.000 NA
ATOM      7  C   UNL     1       1.320  10.063  19.089  0.00  0.00    +0.000 A 
ATOM      8  C   UNL     1       0.093  10.474  19.584  0.00  0.00    +0.000 A 
ATOM      9  C   UNL     1      -0.276  11.812  19.495  0.00  0.00    +0.000 A 
ATOM     10  C   UNL     1       0.680  12.771  19.060  0.00  0.00    +0.000 A 
ATOM     11  C   UNL     1       0.519  14.184  19.084  0.00  0.00    +0.000 A 
ENDROOT
BRANCH   9  12
ATOM     12  C   UNL     1      -1.651  12.202  19.938  0.00  0.00    +0.000 C 
ATOM     13  O   UNL     1      -2.570  12.017  19.139  0.00  0.00    +0.000 OA
ATOM     14  N   UNL     1      -1.898  12.778  21.198  0.00  0.00    +0.000 N 
ATOM     15  C   UNL     1      -3.299  13.016  21.567  0.00  0.00    +0.000 C 
ATOM     16  C   UNL     1      -3.507  14.436  22.086  0.00  0.00    +0.000 C 
ATOM     17  C   UNL     1      -2.530  14.760  23.216  0.00  0.00    +0.000 C 
ATOM     18  C   UNL     1      -1.091  14.457  22.790  0.00  0.00    +0.000 C 
ATOM     19  C   UNL     1      -0.969  13.009  22.312  0.00  0.00    +0.000 C 
ATOM     20  O   UNL     1      -2.870  13.977  24.373  0.00  0.00    +0.000 OA
ATOM     21  C   UNL     1      -2.848  14.895  25.464  0.00  0.00    +0.000 C 
ATOM     22  C   UNL     1      -3.245  16.200  24.833  0.00  0.00    +0.000 C 
ATOM     23  O   UNL     1      -2.625  16.158  23.548  0.00  0.00    +0.000 OA
ENDBRANCH   9  12
BRANCH   7  24
ATOM     24  C   UNL     1       1.738   8.643  19.087  0.00  0.00    +0.000 A 
ATOM     25  C   UNL     1       2.177   8.002  17.920  0.00  0.00    +0.000 A 
ATOM     26  C   UNL     1       2.573   6.675  17.972  0.00  0.00    +0.000 A 
ATOM     27  N   UNL     1       2.558   5.936  19.097  0.00  0.00    +0.000 NA
ATOM     28  C   UNL     1       2.123   6.552  20.217  0.00  0.00    +0.000 A 
ATOM     29  C   UNL     1       1.717   7.876  20.262  0.00  0.00    +0.000 A 
ENDBRANCH   7  24
TORSDOF 2
ENDMDL
MODEL 9
REMARK VINA RESULT:      -6.7      5.960     11.615
REMARK  Name = 
REMARK  3 active torsions:
REMARK  status: ('A' for Active; 'I' for Inactive)
REMARK    1  A    between atoms: C_1  and  C_2
REMARK    2  A    between atoms: C_7  and  C_8
REMARK    3  A    between atoms: C_15  and  C_16
REMARK                            x       y       z     vdW  Elec       q    Type
REMARK                         _______ _______ _______ _____ _____    ______ ____
ROOT
ATOM      1  C   UNL     1       3.293   1.150  21.521  0.00  0.00    +0.000 C 
ATOM      2  C   UNL     1       2.832   2.523  21.132  0.00  0.00    +0.000 A 
ATOM      3  C   UNL     1       1.544   2.969  21.403  0.00  0.00    +0.000 A 
ATOM      4  C   UNL     1       1.165   4.253  21.004  0.00  0.00    +0.000 A 
ATOM      5  C   UNL     1       2.023   5.113  20.329  0.00  0.00    +0.000 A 
ATOM      6  N   UNL     1       1.571   6.339  20.020  0.00  0.00    +0.000 NA
ATOM      7  C   UNL     1       2.395   7.228  19.422  0.00  0.00    +0.000 A 
ATOM      8  C   UNL     1       3.682   6.875  19.052  0.00  0.00    +0.000 A 
ATOM      9  C   UNL     1       4.127   5.572  19.253  0.00  0.00    +0.000 A 
ATOM     10  C   UNL     1       3.320   4.667  19.996  0.00  0.00    +0.000 A 
ATOM     11  C   UNL     1       3.705   3.371  20.438  0.00  0.00    +0.000 A 
ENDROOT
BRANCH   9  12
ATOM     12  C   UNL     1       5.483   5.196  18.743  0.00  0.00    +0.000 C 
ATOM     13  O   UNL     1       6.419   5.266  19.539  0.00  0.00    +0.000 OA
ATOM     14  N   UNL     1       5.699   4.800  17.410  0.00  0.00    +0.000 N 
ATOM     15  C   UNL     1       7.048   4.347  17.052  0.00  0.00    +0.000 C 
ATOM     16  C   UNL     1       7.553   5.034  15.787  0.00  0.00    +0.000 C 
ATOM     17  C   UNL     1       6.552   4.887  14.641  0.00  0.00    +0.000 C 
ATOM     18  C   UNL     1       5.156   5.338  15.081  0.00  0.00    +0.000 C 
ATOM     19  C   UNL     1       4.721   4.578  16.336  0.00  0.00    +0.000 C 
ATOM     20  O   UNL     1       6.511   3.512  14.225  0.00  0.00    +0.000 OA
ATOM     21  C   UNL     1       6.584   3.551  12.801  0.00  0.00    +0.000 C 
ATOM     22  C   UNL     1       7.396   4.785  12.525  0.00  0.00    +0.000 C 
ATOM     23  O   UNL     1       6.969   5.704  13.531  0.00  0.00    +0.000 OA
ENDBRANCH   9  12
BRANCH   7  24
ATOM     24  C   UNL     1       1.840   8.577  19.165  0.00  0.00    +0.000 A 
ATOM     25  C   UNL     1       1.003   9.220  20.089  0.00  0.00    +0.000 A 
ATOM     26  C   UNL     1       0.521  10.489  19.811  0.00  0.00    +0.000 A 
ATOM     27  N   UNL     1       0.804  11.164  18.681  0.00  0.00    +0.000 NA
ATOM     28  C   UNL     1       1.600  10.537  17.789  0.00  0.00    +0.000 A 
ATOM     29  C   UNL     1       2.136   9.274  17.985  0.00  0.00    +0.000 A 
ENDBRANCH   7  24
TORSDOF 2
ENDMDL
