MODEL 1
REMARK VINA RESULT:      -7.5      0.000      0.000
REMARK  Name = 
REMARK  6 active torsions:
REMARK  status: ('A' for Active; 'I' for Inactive)
REMARK    1  A    between atoms: C_2  and  C_3
REMARK    2  A    between atoms: C_3  and  N_4
REMARK    3  A    between atoms: N_4  and  C_5
REMARK    4  A    between atoms: C_11  and  N_12
REMARK    5  A    between atoms: C_15  and  C_16
REMARK    6  A    between atoms: C_16  and  O_17
REMARK                            x       y       z     vdW  Elec       q    Type
REMARK                         _______ _______ _______ _____ _____    ______ ____
ROOT
ATOM      1  C   UNL     1       2.716   5.013  19.421  0.00  0.00    +0.000 A 
ATOM      2  C   UNL     1       1.700   4.041  19.504  0.00  0.00    +0.000 A 
ATOM      3  C   UNL     1       1.615   3.002  18.583  0.00  0.00    +0.000 A 
ATOM      4 CL   UNL     1       0.343   1.851  18.708  0.00  0.00    +0.000 Cl
ATOM      5  C   UNL     1       2.554   2.888  17.575  0.00  0.00    +0.000 A 
ATOM      6  C   UNL     1       3.605   3.806  17.511  0.00  0.00    +0.000 A 
ATOM      7  C   UNL     1       3.740   4.871  18.428  0.00  0.00    +0.000 A 
ENDROOT
BRANCH   7   8
ATOM      8  N   UNL     1       4.833   5.728  18.311  0.00  0.00    +0.000 N 
ATOM      9  C   UNL     1       4.839   6.840  17.355  0.00  0.00    +0.000 C 
ATOM     10  C   UNL     1       6.002   6.675  16.376  0.00  0.00    +0.000 C 
ATOM     11  C   UNL     1       7.348   6.514  17.102  0.00  0.00    +0.000 C 
ATOM     12  C   UNL     1       7.248   5.365  18.113  0.00  0.00    +0.000 C 
ATOM     13  C   UNL     1       6.062   5.511  19.069  0.00  0.00    +0.000 C 
BRANCH  11  14
ATOM     14  C   UNL     1       7.814   7.811  17.775  0.00  0.00    +0.000 C 
BRANCH  14  15
ATOM     15  O   UNL     1       8.607   7.517  18.918  0.00  0.00    +0.000 OA
ATOM     16  H   UNL     1       8.470   8.227  19.566  0.00  0.00    +0.000 HD
ENDBRANCH  14  15
ENDBRANCH  11  14
ENDBRANCH   7   8
BRANCH   1  17
ATOM     17  N   UNL     1       2.779   6.057  20.380  0.00  0.00    +0.000 N 
ATOM     18  H   UNL     1       3.210   5.686  21.226  0.00  0.00    +0.000 HD
BRANCH  17  19
ATOM     19  C   UNL     1       1.514   6.723  20.730  0.00  0.00    +0.000 C 
BRANCH  19  21
ATOM     20  O   UNL     1       2.111   8.404  19.126  0.00  0.00    +0.000 OA
ATOM     21  C   UNL     1       1.462   8.140  20.143  0.00  0.00    +0.000 C 
ATOM     22  N   UNL     1       0.707   9.098  20.798  0.00  0.00    +0.000 N 
ATOM     23  C   UNL     1       0.568  10.433  20.216  0.00  0.00    +0.000 C 
ATOM     24  C   UNL     1       0.624  11.505  21.306  0.00  0.00    +0.000 C 
ATOM     25  O   UNL     1      -0.341  11.250  22.340  0.00  0.00    +0.000 OA
ATOM     26  C   UNL     1      -0.098   9.975  22.955  0.00  0.00    +0.000 C 
ATOM     27  C   UNL     1      -0.192   8.842  21.931  0.00  0.00    +0.000 C 
ENDBRANCH  19  21
ENDBRANCH  17  19
ENDBRANCH   1  17
TORSDOF 6
ENDMDL
MODEL 2
REMARK VINA RESULT:      -7.4      1.097      1.523
REMARK  Name = 
REMARK  6 active torsions:
REMARK  status: ('A' for Active; 'I' for Inactive)
REMARK    1  A    between atoms: C_2  and  C_3
REMARK    2  A    between atoms: C_3  and  N_4
REMARK    3  A    between atoms: N_4  and  C_5
REMARK    4  A    between atoms: C_11  and  N_12
REMARK    5  A    between atoms: C_15  and  C_16
REMARK    6  A    between atoms: C_16  and  O_17
REMARK                            x       y       z     vdW  Elec       q    Type
REMARK                         _______ _______ _______ _____ _____    ______ ____
ROOT
ATOM      1  C   UNL     1       2.615   5.223  19.317  0.00  0.00    +0.000 A 
ATOM      2  C   UNL     1       1.591   4.263  19.434  0.00  0.00    +0.000 A 
ATOM      3  C   UNL     1       1.591   3.107  18.659  0.00  0.00    +0.000 A 
ATOM      4 CL   UNL     1       0.309   1.972  18.818  0.00  0.00    +0.000 Cl
ATOM      5  C   UNL     1       2.623   2.865  17.771  0.00  0.00    +0.000 A 
ATOM      6  C   UNL     1       3.679   3.775  17.683  0.00  0.00    +0.000 A 
ATOM      7  C   UNL     1       3.729   4.957  18.455  0.00  0.00    +0.000 A 
ENDROOT
BRANCH   7   8
ATOM      8  N   UNL     1       4.832   5.799  18.327  0.00  0.00    +0.000 N 
ATOM      9  C   UNL     1       4.886   6.844  17.299  0.00  0.00    +0.000 C 
ATOM     10  C   UNL     1       6.089   6.608  16.385  0.00  0.00    +0.000 C 
ATOM     11  C   UNL     1       7.402   6.492  17.178  0.00  0.00    +0.000 C 
ATOM     12  C   UNL     1       7.251   5.415  18.259  0.00  0.00    +0.000 C 
ATOM     13  C   UNL     1       6.026   5.630  19.151  0.00  0.00    +0.000 C 
BRANCH  11  14
ATOM     14  C   UNL     1       7.847   7.830  17.781  0.00  0.00    +0.000 C 
BRANCH  14  15
ATOM     15  O   UNL     1       8.639   7.610  18.941  0.00  0.00    +0.000 OA
ATOM     16  H   UNL     1       9.204   6.840  18.774  0.00  0.00    +0.000 HD
ENDBRANCH  14  15
ENDBRANCH  11  14
ENDBRANCH   7   8
BRANCH   1  17
ATOM     17  N   UNL     1       2.589   6.389  20.125  0.00  0.00    +0.000 N 
ATOM     18  H   UNL     1       2.089   6.168  20.986  0.00  0.00    +0.000 HD
BRANCH  17  19
ATOM     19  C   UNL     1       2.016   7.607  19.528  0.00  0.00    +0.000 C 
BRANCH  19  21
ATOM     20  O   UNL     1       1.422   8.146  21.789  0.00  0.00    +0.000 OA
ATOM     21  C   UNL     1       1.417   8.515  20.611  0.00  0.00    +0.000 C 
ATOM     22  N   UNL     1       0.854   9.718  20.224  0.00  0.00    +0.000 N 
ATOM     23  C   UNL     1       0.354  10.644  21.241  0.00  0.00    +0.000 C 
ATOM     24  C   UNL     1      -0.951  11.297  20.781  0.00  0.00    +0.000 C 
ATOM     25  O   UNL     1      -0.800  11.918  19.495  0.00  0.00    +0.000 OA
ATOM     26  C   UNL     1      -0.413  10.950  18.508  0.00  0.00    +0.000 C 
ATOM     27  C   UNL     1       0.918  10.291  18.874  0.00  0.00    +0.000 C 
ENDBRANCH  19  21
ENDBRANCH  17  19
ENDBRANCH   1  17
TORSDOF 6
ENDMDL
MODEL 3
REMARK VINA RESULT:      -7.4      2.042      2.274
REMARK  Name = 
REMARK  6 active torsions:
REMARK  status: ('A' for Active; 'I' for Inactive)
REMARK    1  A    between atoms: C_2  and  C_3
REMARK    2  A    between atoms: C_3  and  N_4
REMARK    3  A    between atoms: N_4  and  C_5
REMARK    4  A    between atoms: C_11  and  N_12
REMARK    5  A    between atoms: C_15  and  C_16
REMARK    6  A    between atoms: C_16  and  O_17
REMARK                            x       y       z     vdW  Elec       q    Type
REMARK                         _______ _______ _______ _____ _____    ______ ____
ROOT
ATOM      1  C   UNL     1       2.660   4.869  18.953  0.00  0.00    +0.000 A 
ATOM      2  C   UNL     1       1.905   4.366  20.031  0.00  0.00    +0.000 A 
ATOM      3  C   UNL     1       2.284   3.208  20.701  0.00  0.00    +0.000 A 
ATOM      4 CL   UNL     1       1.321   2.616  21.998  0.00  0.00    +0.000 Cl
ATOM      5  C   UNL     1       3.437   2.538  20.335  0.00  0.00    +0.000 A 
ATOM      6  C   UNL     1       4.232   3.053  19.309  0.00  0.00    +0.000 A 
ATOM      7  C   UNL     1       3.894   4.230  18.605  0.00  0.00    +0.000 A 
ENDROOT
BRANCH   7   8
ATOM      8  N   UNL     1       4.756   4.693  17.611  0.00  0.00    +0.000 N 
ATOM      9  C   UNL     1       4.524   4.397  16.194  0.00  0.00    +0.000 C 
ATOM     10  C   UNL     1       5.718   3.632  15.622  0.00  0.00    +0.000 C 
ATOM     11  C   UNL     1       7.045   4.375  15.860  0.00  0.00    +0.000 C 
ATOM     12  C   UNL     1       7.192   4.688  17.354  0.00  0.00    +0.000 C 
ATOM     13  C   UNL     1       5.981   5.419  17.935  0.00  0.00    +0.000 C 
BRANCH  11  14
ATOM     14  C   UNL     1       7.171   5.645  15.008  0.00  0.00    +0.000 C 
BRANCH  14  15
ATOM     15  O   UNL     1       8.128   5.453  13.974  0.00  0.00    +0.000 OA
ATOM     16  H   UNL     1       8.843   4.904  14.329  0.00  0.00    +0.000 HD
ENDBRANCH  14  15
ENDBRANCH  11  14
ENDBRANCH   7   8
BRANCH   1  17
ATOM     17  N   UNL     1       2.249   6.056  18.293  0.00  0.00    +0.000 N 
ATOM     18  H   UNL     1       2.339   5.908  17.288  0.00  0.00    +0.000 HD
BRANCH  17  19
ATOM     19  C   UNL     1       2.936   7.304  18.665  0.00  0.00    +0.000 C 
BRANCH  19  21
ATOM     20  O   UNL     1       1.829   9.082  17.496  0.00  0.00    +0.000 OA
ATOM     21  C   UNL     1       1.980   8.501  18.574  0.00  0.00    +0.000 C 
ATOM     22  N   UNL     1       1.334   8.916  19.725  0.00  0.00    +0.000 N 
ATOM     23  C   UNL     1       0.351   9.997  19.654  0.00  0.00    +0.000 C 
ATOM     24  C   UNL     1       0.477  10.922  20.867  0.00  0.00    +0.000 C 
ATOM     25  O   UNL     1       0.398  10.184  22.097  0.00  0.00    +0.000 OA
ATOM     26  C   UNL     1       1.449   9.207  22.169  0.00  0.00    +0.000 C 
ATOM     27  C   UNL     1       1.354   8.210  21.013  0.00  0.00    +0.000 C 
ENDBRANCH  19  21
ENDBRANCH  17  19
ENDBRANCH   1  17
TORSDOF 6
ENDMDL
MODEL 4
REMARK VINA RESULT:      -7.3      2.900      4.928
REMARK  Name = 
REMARK  6 active torsions:
REMARK  status: ('A' for Active; 'I' for Inactive)
REMARK    1  A    between atoms: C_2  and  C_3
REMARK    2  A    between atoms: C_3  and  N_4
REMARK    3  A    between atoms: N_4  and  C_5
REMARK    4  A    between atoms: C_11  and  N_12
REMARK    5  A    between atoms: C_15  and  C_16
REMARK    6  A    between atoms: C_16  and  O_17
REMARK                            x       y       z     vdW  Elec       q    Type
REMARK                         _______ _______ _______ _____ _____    ______ ____
ROOT
ATOM      1  C   UNL     1       4.822   5.819  17.051  0.00  0.00    +0.000 A 
ATOM      2  C   UNL     1       5.664   6.060  15.948  0.00  0.00    +0.000 A 
ATOM      3  C   UNL     1       6.110   5.022  15.138  0.00  0.00    +0.000 A 
ATOM      4 CL   UNL     1       7.156   5.359  13.814  0.00  0.00    +0.000 Cl
ATOM      5  C   UNL     1       5.708   3.723  15.386  0.00  0.00    +0.000 A 
ATOM      6  C   UNL     1       4.825   3.469  16.439  0.00  0.00    +0.000 A 
ATOM      7  C   UNL     1       4.337   4.490  17.283  0.00  0.00    +0.000 A 
ENDROOT
BRANCH   7   8
ATOM      8  N   UNL     1       3.437   4.157  18.295  0.00  0.00    +0.000 N 
ATOM      9  C   UNL     1       3.892   3.815  19.647  0.00  0.00    +0.000 C 
ATOM     10  C   UNL     1       3.437   2.400  20.004  0.00  0.00    +0.000 C 
ATOM     11  C   UNL     1       1.918   2.223  19.831  0.00  0.00    +0.000 C 
ATOM     12  C   UNL     1       1.516   2.641  18.412  0.00  0.00    +0.000 C 
ATOM     13  C   UNL     1       2.004   4.043  18.039  0.00  0.00    +0.000 C 
BRANCH  11  14
ATOM     14  C   UNL     1       1.111   2.986  20.889  0.00  0.00    +0.000 C 
BRANCH  14  15
ATOM     15  O   UNL     1       1.503   2.584  22.195  0.00  0.00    +0.000 OA
ATOM     16  H   UNL     1       1.749   3.381  22.690  0.00  0.00    +0.000 HD
ENDBRANCH  14  15
ENDBRANCH  11  14
ENDBRANCH   7   8
BRANCH   1  17
ATOM     17  N   UNL     1       4.380   6.900  17.856  0.00  0.00    +0.000 N 
ATOM     18  H   UNL     1       4.548   6.659  18.833  0.00  0.00    +0.000 HD
BRANCH  17  19
ATOM     19  C   UNL     1       2.980   7.329  17.696  0.00  0.00    +0.000 C 
BRANCH  19  21
ATOM     20  O   UNL     1       2.523   6.888  20.009  0.00  0.00    +0.000 OA
ATOM     21  C   UNL     1       2.350   7.654  19.056  0.00  0.00    +0.000 C 
ATOM     22  N   UNL     1       1.573   8.794  19.167  0.00  0.00    +0.000 N 
ATOM     23  C   UNL     1       1.031   9.178  20.470  0.00  0.00    +0.000 C 
ATOM     24  C   UNL     1      -0.397   9.707  20.326  0.00  0.00    +0.000 C 
ATOM     25  O   UNL     1      -0.465  10.773  19.365  0.00  0.00    +0.000 OA
ATOM     26  C   UNL     1      -0.025  10.319  18.075  0.00  0.00    +0.000 C 
ATOM     27  C   UNL     1       1.421   9.822  18.130  0.00  0.00    +0.000 C 
ENDBRANCH  19  21
ENDBRANCH  17  19
ENDBRANCH   1  17
TORSDOF 6
ENDMDL
MODEL 5
REMARK VINA RESULT:      -7.3      2.035      2.466
REMARK  Name = 
REMARK  6 active torsions:
REMARK  status: ('A' for Active; 'I' for Inactive)
REMARK    1  A    between atoms: C_2  and  C_3
REMARK    2  A    between atoms: C_3  and  N_4
REMARK    3  A    between atoms: N_4  and  C_5
REMARK    4  A    between atoms: C_11  and  N_12
REMARK    5  A    between atoms: C_15  and  C_16
REMARK    6  A    between atoms: C_16  and  O_17
REMARK                            x       y       z     vdW  Elec       q    Type
REMARK                         _______ _______ _______ _____ _____    ______ ____
ROOT
ATOM      1  C   UNL     1       2.917   4.588  19.001  0.00  0.00    +0.000 A 
ATOM      2  C   UNL     1       2.039   4.269  20.055  0.00  0.00    +0.000 A 
ATOM      3  C   UNL     1       2.228   3.134  20.836  0.00  0.00    +0.000 A 
ATOM      4 CL   UNL     1       1.117   2.770  22.099  0.00  0.00    +0.000 Cl
ATOM      5  C   UNL     1       3.311   2.305  20.608  0.00  0.00    +0.000 A 
ATOM      6  C   UNL     1       4.227   2.635  19.607  0.00  0.00    +0.000 A 
ATOM      7  C   UNL     1       4.083   3.781  18.794  0.00  0.00    +0.000 A 
ENDROOT
BRANCH   7   8
ATOM      8  N   UNL     1       5.058   4.055  17.835  0.00  0.00    +0.000 N 
ATOM      9  C   UNL     1       6.328   4.696  18.192  0.00  0.00    +0.000 C 
ATOM     10  C   UNL     1       6.479   6.008  17.422  0.00  0.00    +0.000 C 
ATOM     11  C   UNL     1       6.325   5.808  15.905  0.00  0.00    +0.000 C 
ATOM     12  C   UNL     1       4.998   5.094  15.617  0.00  0.00    +0.000 C 
ATOM     13  C   UNL     1       4.830   3.799  16.416  0.00  0.00    +0.000 C 
BRANCH  11  14
ATOM     14  C   UNL     1       7.509   5.055  15.286  0.00  0.00    +0.000 C 
BRANCH  14  15
ATOM     15  O   UNL     1       7.815   5.586  14.002  0.00  0.00    +0.000 OA
ATOM     16  H   UNL     1       7.319   6.412  13.895  0.00  0.00    +0.000 HD
ENDBRANCH  14  15
ENDBRANCH  11  14
ENDBRANCH   7   8
BRANCH   1  17
ATOM     17  N   UNL     1       2.699   5.756  18.226  0.00  0.00    +0.000 N 
ATOM     18  H   UNL     1       3.064   5.587  17.288  0.00  0.00    +0.000 HD
BRANCH  17  19
ATOM     19  C   UNL     1       3.252   7.019  18.743  0.00  0.00    +0.000 C 
BRANCH  19  21
ATOM     20  O   UNL     1       2.251   8.697  17.351  0.00  0.00    +0.000 OA
ATOM     21  C   UNL     1       2.292   8.185  18.474  0.00  0.00    +0.000 C 
ATOM     22  N   UNL     1       1.515   8.654  19.519  0.00  0.00    +0.000 N 
ATOM     23  C   UNL     1       0.528   9.705  19.273  0.00  0.00    +0.000 C 
ATOM     24  C   UNL     1       0.503  10.704  20.431  0.00  0.00    +0.000 C 
ATOM     25  O   UNL     1       0.301  10.040  21.689  0.00  0.00    +0.000 OA
ATOM     26  C   UNL     1       1.353   9.094  21.937  0.00  0.00    +0.000 C 
ATOM     27  C   UNL     1       1.404   8.027  20.842  0.00  0.00    +0.000 C 
ENDBRANCH  19  21
ENDBRANCH  17  19
ENDBRANCH   1  17
TORSDOF 6
ENDMDL
MODEL 6
REMARK VINA RESULT:      -7.2      3.224      5.636
REMARK  Name = 
REMARK  6 active torsions:
REMARK  status: ('A' for Active; 'I' for Inactive)
REMARK    1  A    between atoms: C_2  and  C_3
REMARK    2  A    between atoms: C_3  and  N_4
REMARK    3  A    between atoms: N_4  and  C_5
REMARK    4  A    between atoms: C_11  and  N_12
REMARK    5  A    between atoms: C_15  and  C_16
REMARK    6  A    between atoms: C_16  and  O_17
REMARK                            x       y       z     vdW  Elec       q    Type
REMARK                         _______ _______ _______ _____ _____    ______ ____
ROOT
ATOM      1  C   UNL     1       2.418   7.285  19.627  0.00  0.00    +0.000 A 
ATOM      2  C   UNL     1       1.352   8.170  19.878  0.00  0.00    +0.000 A 
ATOM      3  C   UNL     1       1.069   9.224  19.016  0.00  0.00    +0.000 A 
ATOM      4 CL   UNL     1      -0.228  10.297  19.374  0.00  0.00    +0.000 Cl
ATOM      5  C   UNL     1       1.820   9.407  17.870  0.00  0.00    +0.000 A 
ATOM      6  C   UNL     1       2.843   8.504  17.571  0.00  0.00    +0.000 A 
ATOM      7  C   UNL     1       3.162   7.413  18.409  0.00  0.00    +0.000 A 
ENDROOT
BRANCH   7   8
ATOM      8  N   UNL     1       4.181   6.542  18.025  0.00  0.00    +0.000 N 
ATOM      9  C   UNL     1       4.671   5.489  18.921  0.00  0.00    +0.000 C 
ATOM     10  C   UNL     1       6.163   5.689  19.187  0.00  0.00    +0.000 C 
ATOM     11  C   UNL     1       6.974   5.778  17.883  0.00  0.00    +0.000 C 
ATOM     12  C   UNL     1       6.374   6.866  16.983  0.00  0.00    +0.000 C 
ATOM     13  C   UNL     1       4.873   6.688  16.747  0.00  0.00    +0.000 C 
BRANCH  11  14
ATOM     14  C   UNL     1       7.061   4.433  17.150  0.00  0.00    +0.000 C 
BRANCH  14  15
ATOM     15  O   UNL     1       7.794   4.577  15.939  0.00  0.00    +0.000 OA
ATOM     16  H   UNL     1       7.166   4.515  15.203  0.00  0.00    +0.000 HD
ENDBRANCH  14  15
ENDBRANCH  11  14
ENDBRANCH   7   8
BRANCH   1  17
ATOM     17  N   UNL     1       2.678   6.216  20.524  0.00  0.00    +0.000 N 
ATOM     18  H   UNL     1       3.403   5.627  20.114  0.00  0.00    +0.000 HD
BRANCH  17  19
ATOM     19  C   UNL     1       1.534   5.376  20.918  0.00  0.00    +0.000 C 
BRANCH  19  21
ATOM     20  O   UNL     1       2.204   3.319  21.953  0.00  0.00    +0.000 OA
ATOM     21  C   UNL     1       1.916   3.890  20.897  0.00  0.00    +0.000 C 
ATOM     22  N   UNL     1       1.956   3.237  19.678  0.00  0.00    +0.000 N 
ATOM     23  C   UNL     1       2.230   1.801  19.633  0.00  0.00    +0.000 C 
ATOM     24  C   UNL     1       3.143   1.462  18.453  0.00  0.00    +0.000 C 
ATOM     25  O   UNL     1       2.604   1.960  17.217  0.00  0.00    +0.000 OA
ATOM     26  C   UNL     1       2.453   3.387  17.270  0.00  0.00    +0.000 C 
ATOM     27  C   UNL     1       1.507   3.800  18.398  0.00  0.00    +0.000 C 
ENDBRANCH  19  21
ENDBRANCH  17  19
ENDBRANCH   1  17
TORSDOF 6
ENDMDL
MODEL 7
REMARK VINA RESULT:      -7.1      2.089      2.472
REMARK  Name = 
REMARK  6 active torsions:
REMARK  status: ('A' for Active; 'I' for Inactive)
REMARK    1  A    between atoms: C_2  and  C_3
REMARK    2  A    between atoms: C_3  and  N_4
REMARK    3  A    between atoms: N_4  and  C_5
REMARK    4  A    between atoms: C_11  and  N_12
REMARK    5  A    between atoms: C_15  and  C_16
REMARK    6  A    between atoms: C_16  and  O_17
REMARK                            x       y       z     vdW  Elec       q    Type
REMARK                         _______ _______ _______ _____ _____    ______ ____
ROOT
ATOM      1  C   UNL     1       3.111   5.147  19.902  0.00  0.00    +0.000 A 
ATOM      2  C   UNL     1       2.301   4.553  20.888  0.00  0.00    +0.000 A 
ATOM      3  C   UNL     1       2.178   3.170  20.988  0.00  0.00    +0.000 A 
ATOM      4 CL   UNL     1       1.159   2.487  22.194  0.00  0.00    +0.000 Cl
ATOM      5  C   UNL     1       2.881   2.346  20.129  0.00  0.00    +0.000 A 
ATOM      6  C   UNL     1       3.737   2.914  19.182  0.00  0.00    +0.000 A 
ATOM      7  C   UNL     1       3.902   4.310  19.048  0.00  0.00    +0.000 A 
ENDROOT
BRANCH   7   8
ATOM      8  N   UNL     1       4.797   4.795  18.096  0.00  0.00    +0.000 N 
ATOM      9  C   UNL     1       4.515   4.703  16.659  0.00  0.00    +0.000 C 
ATOM     10  C   UNL     1       5.611   3.891  15.969  0.00  0.00    +0.000 C 
ATOM     11  C   UNL     1       7.014   4.450  16.260  0.00  0.00    +0.000 C 
ATOM     12  C   UNL     1       7.214   4.558  17.777  0.00  0.00    +0.000 C 
ATOM     13  C   UNL     1       6.098   5.340  18.474  0.00  0.00    +0.000 C 
BRANCH  11  14
ATOM     14  C   UNL     1       7.269   5.794  15.566  0.00  0.00    +0.000 C 
BRANCH  14  15
ATOM     15  O   UNL     1       7.865   5.587  14.291  0.00  0.00    +0.000 OA
ATOM     16  H   UNL     1       7.215   5.834  13.615  0.00  0.00    +0.000 HD
ENDBRANCH  14  15
ENDBRANCH  11  14
ENDBRANCH   7   8
BRANCH   1  17
ATOM     17  N   UNL     1       3.219   6.560  19.830  0.00  0.00    +0.000 N 
ATOM     18  H   UNL     1       3.433   6.910  20.763  0.00  0.00    +0.000 HD
BRANCH  17  19
ATOM     19  C   UNL     1       2.064   7.295  19.287  0.00  0.00    +0.000 C 
BRANCH  19  21
ATOM     20  O   UNL     1       1.682   8.103  21.513  0.00  0.00    +0.000 OA
ATOM     21  C   UNL     1       1.540   8.317  20.306  0.00  0.00    +0.000 C 
ATOM     22  N   UNL     1       0.890   9.444  19.833  0.00  0.00    +0.000 N 
ATOM     23  C   UNL     1       0.458  10.478  20.773  0.00  0.00    +0.000 C 
ATOM     24  C   UNL     1      -0.914  11.027  20.378  0.00  0.00    +0.000 C 
ATOM     25  O   UNL     1      -0.921  11.482  19.015  0.00  0.00    +0.000 OA
ATOM     26  C   UNL     1      -0.596  10.406  18.121  0.00  0.00    +0.000 C 
ATOM     27  C   UNL     1       0.792   9.839  18.423  0.00  0.00    +0.000 C 
ENDBRANCH  19  21
ENDBRANCH  17  19
ENDBRANCH   1  17
TORSDOF 6
ENDMDL
MODEL 8
REMARK VINA RESULT:      -7.0      2.772      4.839
REMARK  Name = 
REMARK  6 active torsions:
REMARK  status: ('A' for Active; 'I' for Inactive)
REMARK    1  A    between atoms: C_2  and  C_3
REMARK    2  A    between atoms: C_3  and  N_4
REMARK    3  A    between atoms: N_4  and  C_5
REMARK    4  A    between atoms: C_11  and  N_12
REMARK    5  A    between atoms: C_15  and  C_16
REMARK    6  A    between atoms: C_16  and  O_17
REMARK                            x       y       z     vdW  Elec       q    Type
REMARK                         _______ _______ _______ _____ _____    ______ ____
ROOT
ATOM      1  C   UNL     1       4.541   6.558  17.796  0.00  0.00    +0.000 A 
ATOM      2  C   UNL     1       5.622   7.397  17.463  0.00  0.00    +0.000 A 
ATOM      3  C   UNL     1       6.939   7.001  17.678  0.00  0.00    +0.000 A 
ATOM      4 CL   UNL     1       8.228   8.067  17.278  0.00  0.00    +0.000 Cl
ATOM      5  C   UNL     1       7.212   5.750  18.201  0.00  0.00    +0.000 A 
ATOM      6  C   UNL     1       6.157   4.880  18.482  0.00  0.00    +0.000 A 
ATOM      7  C   UNL     1       4.805   5.232  18.273  0.00  0.00    +0.000 A 
ENDROOT
BRANCH   7   8
ATOM      8  N   UNL     1       3.812   4.295  18.553  0.00  0.00    +0.000 N 
ATOM      9  C   UNL     1       2.969   3.729  17.495  0.00  0.00    +0.000 C 
ATOM     10  C   UNL     1       1.500   4.043  17.780  0.00  0.00    +0.000 C 
ATOM     11  C   UNL     1       1.074   3.581  19.184  0.00  0.00    +0.000 C 
ATOM     12  C   UNL     1       2.028   4.176  20.227  0.00  0.00    +0.000 C 
ATOM     13  C   UNL     1       3.500   3.894  19.922  0.00  0.00    +0.000 C 
BRANCH  11  14
ATOM     14  C   UNL     1       0.997   2.054  19.304  0.00  0.00    +0.000 C 
BRANCH  14  15
ATOM     15  O   UNL     1       0.315   1.504  18.184  0.00  0.00    +0.000 OA
ATOM     16  H   UNL     1       0.461   2.093  17.428  0.00  0.00    +0.000 HD
ENDBRANCH  14  15
ENDBRANCH  11  14
ENDBRANCH   7   8
BRANCH   1  17
ATOM     17  N   UNL     1       3.211   6.990  17.560  0.00  0.00    +0.000 N 
ATOM     18  H   UNL     1       3.239   7.750  16.881  0.00  0.00    +0.000 HD
BRANCH  17  19
ATOM     19  C   UNL     1       2.424   7.412  18.731  0.00  0.00    +0.000 C 
BRANCH  19  21
ATOM     20  O   UNL     1       2.083   9.428  17.477  0.00  0.00    +0.000 OA
ATOM     21  C   UNL     1       1.894   8.840  18.546  0.00  0.00    +0.000 C 
ATOM     22  N   UNL     1       1.241   9.443  19.607  0.00  0.00    +0.000 N 
ATOM     23  C   UNL     1       0.649  10.769  19.433  0.00  0.00    +0.000 C 
ATOM     24  C   UNL     1       0.868  11.626  20.681  0.00  0.00    +0.000 C 
ATOM     25  O   UNL     1       0.393  10.959  21.862  0.00  0.00    +0.000 OA
ATOM     26  C   UNL     1       1.080   9.713  22.050  0.00  0.00    +0.000 C 
ATOM     27  C   UNL     1       0.861   8.778  20.859  0.00  0.00    +0.000 C 
ENDBRANCH  19  21
ENDBRANCH  17  19
ENDBRANCH   1  17
TORSDOF 6
ENDMDL
MODEL 9
REMARK VINA RESULT:      -7.0      1.773      2.028
REMARK  Name = 
REMARK  6 active torsions:
REMARK  status: ('A' for Active; 'I' for Inactive)
REMARK    1  A    between atoms: C_2  and  C_3
REMARK    2  A    between atoms: C_3  and  N_4
REMARK    3  A    between atoms: N_4  and  C_5
REMARK    4  A    between atoms: C_11  and  N_12
REMARK    5  A    between atoms: C_15  and  C_16
REMARK    6  A    between atoms: C_16  and  O_17
REMARK                            x       y       z     vdW  Elec       q    Type
REMARK                         _______ _______ _______ _____ _____    ______ ____
ROOT
ATOM      1  C   UNL     1       2.568   4.843  19.372  0.00  0.00    +0.000 A 
ATOM      2  C   UNL     1       1.781   4.298  20.405  0.00  0.00    +0.000 A 
ATOM      3  C   UNL     1       2.124   3.098  21.020  0.00  0.00    +0.000 A 
ATOM      4 CL   UNL     1       1.120   2.456  22.261  0.00  0.00    +0.000 Cl
ATOM      5  C   UNL     1       3.272   2.427  20.643  0.00  0.00    +0.000 A 
ATOM      6  C   UNL     1       4.099   2.981  19.663  0.00  0.00    +0.000 A 
ATOM      7  C   UNL     1       3.799   4.200  19.017  0.00  0.00    +0.000 A 
ENDROOT
BRANCH   7   8
ATOM      8  N   UNL     1       4.691   4.699  18.069  0.00  0.00    +0.000 N 
ATOM      9  C   UNL     1       4.531   4.415  16.639  0.00  0.00    +0.000 C 
ATOM     10  C   UNL     1       5.770   3.691  16.113  0.00  0.00    +0.000 C 
ATOM     11  C   UNL     1       7.063   4.466  16.418  0.00  0.00    +0.000 C 
ATOM     12  C   UNL     1       7.136   4.763  17.921  0.00  0.00    +0.000 C 
ATOM     13  C   UNL     1       5.879   5.454  18.456  0.00  0.00    +0.000 C 
BRANCH  11  14
ATOM     14  C   UNL     1       7.193   5.750  15.589  0.00  0.00    +0.000 C 
BRANCH  14  15
ATOM     15  O   UNL     1       7.822   6.771  16.353  0.00  0.00    +0.000 OA
ATOM     16  H   UNL     1       8.595   7.080  15.856  0.00  0.00    +0.000 HD
ENDBRANCH  14  15
ENDBRANCH  11  14
ENDBRANCH   7   8
BRANCH   1  17
ATOM     17  N   UNL     1       2.194   6.072  18.769  0.00  0.00    +0.000 N 
ATOM     18  H   UNL     1       2.760   6.198  17.930  0.00  0.00    +0.000 HD
BRANCH  17  19
ATOM     19  C   UNL     1       2.280   7.283  19.601  0.00  0.00    +0.000 C 
BRANCH  19  21
ATOM     20  O   UNL     1       2.329   8.669  17.644  0.00  0.00    +0.000 OA
ATOM     21  C   UNL     1       1.897   8.529  18.792  0.00  0.00    +0.000 C 
ATOM     22  N   UNL     1       1.094   9.484  19.392  0.00  0.00    +0.000 N 
ATOM     23  C   UNL     1       0.640  10.639  18.618  0.00  0.00    +0.000 C 
ATOM     24  C   UNL     1       0.673  11.908  19.473  0.00  0.00    +0.000 C 
ATOM     25  O   UNL     1      -0.067  11.735  20.693  0.00  0.00    +0.000 OA
ATOM     26  C   UNL     1       0.483  10.659  21.469  0.00  0.00    +0.000 C 
ATOM     27  C   UNL     1       0.434   9.340  20.696  0.00  0.00    +0.000 C 
ENDBRANCH  19  21
ENDBRANCH  17  19
ENDBRANCH   1  17
TORSDOF 6
ENDMDL
