MODEL 1
REMARK VINA RESULT:      -8.1      0.000      0.000
REMARK  Name = 
REMARK  8 active torsions:
REMARK  status: ('A' for Active; 'I' for Inactive)
REMARK    1  A    between atoms: C_2  and  C_3
REMARK    2  A    between atoms: C_2  and  C_13
REMARK    3  A    between atoms: C_3  and  O_4
REMARK    4  A    between atoms: O_4  and  C_5
REMARK    5  A    between atoms: C_5  and  C_7
REMARK    6  A    between atoms: C_16  and  O_17
REMARK    7  A    between atoms: O_17  and  C_18
REMARK    8  A    between atoms: C_18  and  C_20
REMARK                            x       y       z     vdW  Elec       q    Type
REMARK                         _______ _______ _______ _____ _____    ______ ____
ROOT
ATOM      1  C   UNL     1       3.303   5.847  19.121  0.00  0.00    +0.000 A 
ATOM      2  C   UNL     1       3.131   5.693  17.740  0.00  0.00    +0.000 A 
ATOM      3  C   UNL     1       4.185   5.217  16.946  0.00  0.00    +0.000 A 
ATOM      4  C   UNL     1       5.409   4.891  17.534  0.00  0.00    +0.000 A 
ATOM      5  C   UNL     1       5.564   4.985  18.916  0.00  0.00    +0.000 A 
ATOM      6  C   UNL     1       4.519   5.473  19.705  0.00  0.00    +0.000 A 
ENDROOT
BRANCH   1   8
ATOM      7  O   UNL     1       1.973   7.566  20.007  0.00  0.00    +0.000 OA
ATOM      8  C   UNL     1       2.233   6.362  20.020  0.00  0.00    +0.000 C 
BRANCH   8   9
ATOM      9  C   UNL     1       1.447   5.375  20.878  0.00  0.00    +0.000 C 
BRANCH   9  10
ATOM     10  O   UNL     1       2.308   4.441  21.526  0.00  0.00    +0.000 OA
BRANCH  10  11
ATOM     11  C   UNL     1       1.921   3.146  21.394  0.00  0.00    +0.000 C 
ATOM     12  O   UNL     1       1.434   2.456  22.281  0.00  0.00    +0.000 OA
BRANCH  11  13
ATOM     13  C   UNL     1       2.187   2.665  20.015  0.00  0.00    +0.000 A 
ATOM     14  C   UNL     1       1.218   2.847  19.039  0.00  0.00    +0.000 A 
ATOM     15  N   UNL     1       1.395   2.443  17.755  0.00  0.00    +0.000 NA
ATOM     16  C   UNL     1       2.587   1.860  17.490  0.00  0.00    +0.000 A 
ATOM     17  C   UNL     1       3.553   1.671  18.465  0.00  0.00    +0.000 A 
ATOM     18  N   UNL     1       3.377   2.058  19.747  0.00  0.00    +0.000 NA
ENDBRANCH  11  13
ENDBRANCH  10  11
ENDBRANCH   9  10
ENDBRANCH   8   9
ENDBRANCH   1   8
BRANCH   4  19
ATOM     19  O   UNL     1       6.428   4.433  16.664  0.00  0.00    +0.000 OA
BRANCH  19  20
ATOM     20  C   UNL     1       7.040   5.318  15.784  0.00  0.00    +0.000 C 
ATOM     21  O   UNL     1       7.577   6.380  16.070  0.00  0.00    +0.000 OA
BRANCH  20  22
ATOM     22  C   UNL     1       6.941   4.861  14.371  0.00  0.00    +0.000 A 
ATOM     23  C   UNL     1       5.987   3.869  14.087  0.00  0.00    +0.000 A 
ATOM     24  C   UNL     1       5.891   3.316  12.810  0.00  0.00    +0.000 A 
ATOM     25  C   UNL     1       6.744   3.751  11.802  0.00  0.00    +0.000 A 
ATOM     26  C   UNL     1       7.679   4.754  12.065  0.00  0.00    +0.000 A 
ATOM     27  C   UNL     1       7.778   5.316  13.345  0.00  0.00    +0.000 A 
ENDBRANCH  20  22
ENDBRANCH  19  20
ENDBRANCH   4  19
TORSDOF 8
ENDMDL
MODEL 2
REMARK VINA RESULT:      -7.9      3.220      7.563
REMARK  Name = 
REMARK  8 active torsions:
REMARK  status: ('A' for Active; 'I' for Inactive)
REMARK    1  A    between atoms: C_2  and  C_3
REMARK    2  A    between atoms: C_2  and  C_13
REMARK    3  A    between atoms: C_3  and  O_4
REMARK    4  A    between atoms: O_4  and  C_5
REMARK    5  A    between atoms: C_5  and  C_7
REMARK    6  A    between atoms: C_16  and  O_17
REMARK    7  A    between atoms: O_17  and  C_18
REMARK    8  A    between atoms: C_18  and  C_20
REMARK                            x       y       z     vdW  Elec       q    Type
REMARK                         _______ _______ _______ _____ _____    ______ ____
ROOT
ATOM      1  C   UNL     1       1.648   4.081  19.049  0.00  0.00    +0.000 A 
ATOM      2  C   UNL     1       1.535   4.516  20.375  0.00  0.00    +0.000 A 
ATOM      3  C   UNL     1       1.698   5.873  20.688  0.00  0.00    +0.000 A 
ATOM      4  C   UNL     1       1.971   6.795  19.675  0.00  0.00    +0.000 A 
ATOM      5  C   UNL     1       2.024   6.375  18.347  0.00  0.00    +0.000 A 
ATOM      6  C   UNL     1       1.875   5.020  18.036  0.00  0.00    +0.000 A 
ENDROOT
BRANCH   1   8
ATOM      7  O   UNL     1       0.376   2.215  18.406  0.00  0.00    +0.000 OA
ATOM      8  C   UNL     1       1.502   2.653  18.647  0.00  0.00    +0.000 C 
BRANCH   8   9
ATOM      9  C   UNL     1       2.754   1.798  18.481  0.00  0.00    +0.000 C 
BRANCH   9  10
ATOM     10  O   UNL     1       3.853   2.566  17.996  0.00  0.00    +0.000 OA
BRANCH  10  11
ATOM     11  C   UNL     1       4.715   2.973  18.963  0.00  0.00    +0.000 C 
ATOM     12  O   UNL     1       4.815   2.481  20.080  0.00  0.00    +0.000 OA
BRANCH  11  13
ATOM     13  C   UNL     1       5.522   4.124  18.486  0.00  0.00    +0.000 A 
ATOM     14  C   UNL     1       5.355   4.570  17.182  0.00  0.00    +0.000 A 
ATOM     15  N   UNL     1       6.049   5.623  16.679  0.00  0.00    +0.000 NA
ATOM     16  C   UNL     1       6.908   6.215  17.542  0.00  0.00    +0.000 A 
ATOM     17  C   UNL     1       7.081   5.768  18.841  0.00  0.00    +0.000 A 
ATOM     18  N   UNL     1       6.403   4.712  19.342  0.00  0.00    +0.000 NA
ENDBRANCH  11  13
ENDBRANCH  10  11
ENDBRANCH   9  10
ENDBRANCH   8   9
ENDBRANCH   1   8
BRANCH   4  19
ATOM     19  O   UNL     1       2.139   8.144  20.074  0.00  0.00    +0.000 OA
BRANCH  19  20
ATOM     20  C   UNL     1       1.191   9.096  19.717  0.00  0.00    +0.000 C 
ATOM     21  O   UNL     1       0.995   9.550  18.598  0.00  0.00    +0.000 OA
BRANCH  20  22
ATOM     22  C   UNL     1       0.415   9.581  20.892  0.00  0.00    +0.000 A 
ATOM     23  C   UNL     1      -0.366  10.734  20.707  0.00  0.00    +0.000 A 
ATOM     24  C   UNL     1      -1.050  11.312  21.776  0.00  0.00    +0.000 A 
ATOM     25  C   UNL     1      -0.965  10.741  23.041  0.00  0.00    +0.000 A 
ATOM     26  C   UNL     1      -0.212   9.580  23.232  0.00  0.00    +0.000 A 
ATOM     27  C   UNL     1       0.475   8.993  22.161  0.00  0.00    +0.000 A 
ENDBRANCH  20  22
ENDBRANCH  19  20
ENDBRANCH   4  19
TORSDOF 8
ENDMDL
MODEL 3
REMARK VINA RESULT:      -7.7      3.900      7.181
REMARK  Name = 
REMARK  8 active torsions:
REMARK  status: ('A' for Active; 'I' for Inactive)
REMARK    1  A    between atoms: C_2  and  C_3
REMARK    2  A    between atoms: C_2  and  C_13
REMARK    3  A    between atoms: C_3  and  O_4
REMARK    4  A    between atoms: O_4  and  C_5
REMARK    5  A    between atoms: C_5  and  C_7
REMARK    6  A    between atoms: C_16  and  O_17
REMARK    7  A    between atoms: O_17  and  C_18
REMARK    8  A    between atoms: C_18  and  C_20
REMARK                            x       y       z     vdW  Elec       q    Type
REMARK                         _______ _______ _______ _____ _____    ______ ____
ROOT
ATOM      1  C   UNL     1       3.267   6.810  18.456  0.00  0.00    +0.000 A 
ATOM      2  C   UNL     1       2.596   6.707  19.680  0.00  0.00    +0.000 A 
ATOM      3  C   UNL     1       1.705   7.713  20.084  0.00  0.00    +0.000 A 
ATOM      4  C   UNL     1       1.484   8.819  19.261  0.00  0.00    +0.000 A 
ATOM      5  C   UNL     1       2.104   8.896  18.015  0.00  0.00    +0.000 A 
ATOM      6  C   UNL     1       3.002   7.901  17.619  0.00  0.00    +0.000 A 
ENDROOT
BRANCH   1   8
ATOM      7  O   UNL     1       4.429   5.675  16.762  0.00  0.00    +0.000 OA
ATOM      8  C   UNL     1       4.238   5.788  17.973  0.00  0.00    +0.000 C 
BRANCH   8   9
ATOM      9  C   UNL     1       5.014   4.962  18.994  0.00  0.00    +0.000 C 
BRANCH   9  10
ATOM     10  O   UNL     1       5.009   3.576  18.659  0.00  0.00    +0.000 OA
BRANCH  10  11
ATOM     11  C   UNL     1       4.528   2.769  19.641  0.00  0.00    +0.000 C 
ATOM     12  O   UNL     1       5.204   2.045  20.360  0.00  0.00    +0.000 OA
BRANCH  11  13
ATOM     13  C   UNL     1       3.049   2.872  19.716  0.00  0.00    +0.000 A 
ATOM     14  C   UNL     1       2.450   3.096  20.947  0.00  0.00    +0.000 A 
ATOM     15  N   UNL     1       1.105   3.212  21.091  0.00  0.00    +0.000 NA
ATOM     16  C   UNL     1       0.389   3.103  19.948  0.00  0.00    +0.000 A 
ATOM     17  C   UNL     1       0.984   2.872  18.719  0.00  0.00    +0.000 A 
ATOM     18  N   UNL     1       2.321   2.742  18.572  0.00  0.00    +0.000 NA
ENDBRANCH  11  13
ENDBRANCH  10  11
ENDBRANCH   9  10
ENDBRANCH   8   9
ENDBRANCH   1   8
BRANCH   4  19
ATOM     19  O   UNL     1       0.583   9.799  19.746  0.00  0.00    +0.000 OA
BRANCH  19  20
ATOM     20  C   UNL     1       0.249  10.889  18.950  0.00  0.00    +0.000 C 
ATOM     21  O   UNL     1       0.962  11.847  18.686  0.00  0.00    +0.000 OA
BRANCH  20  22
ATOM     22  C   UNL     1      -1.152  10.810  18.453  0.00  0.00    +0.000 A 
ATOM     23  C   UNL     1      -1.397   9.939  17.377  0.00  0.00    +0.000 A 
ATOM     24  C   UNL     1      -2.660   9.873  16.787  0.00  0.00    +0.000 A 
ATOM     25  C   UNL     1      -3.691  10.672  17.267  0.00  0.00    +0.000 A 
ATOM     26  C   UNL     1      -3.465  11.523  18.352  0.00  0.00    +0.000 A 
ATOM     27  C   UNL     1      -2.200  11.592  18.951  0.00  0.00    +0.000 A 
ENDBRANCH  20  22
ENDBRANCH  19  20
ENDBRANCH   4  19
TORSDOF 8
ENDMDL
MODEL 4
REMARK VINA RESULT:      -7.7      4.230      8.133
REMARK  Name = 
REMARK  8 active torsions:
REMARK  status: ('A' for Active; 'I' for Inactive)
REMARK    1  A    between atoms: C_2  and  C_3
REMARK    2  A    between atoms: C_2  and  C_13
REMARK    3  A    between atoms: C_3  and  O_4
REMARK    4  A    between atoms: O_4  and  C_5
REMARK    5  A    between atoms: C_5  and  C_7
REMARK    6  A    between atoms: C_16  and  O_17
REMARK    7  A    between atoms: O_17  and  C_18
REMARK    8  A    between atoms: C_18  and  C_20
REMARK                            x       y       z     vdW  Elec       q    Type
REMARK                         _______ _______ _______ _____ _____    ______ ____
ROOT
ATOM      1  C   UNL     1       3.061   6.707  18.392  0.00  0.00    +0.000 A 
ATOM      2  C   UNL     1       2.905   7.886  17.654  0.00  0.00    +0.000 A 
ATOM      3  C   UNL     1       2.141   8.944  18.167  0.00  0.00    +0.000 A 
ATOM      4  C   UNL     1       1.535   8.824  19.420  0.00  0.00    +0.000 A 
ATOM      5  C   UNL     1       1.739   7.675  20.184  0.00  0.00    +0.000 A 
ATOM      6  C   UNL     1       2.489   6.616  19.667  0.00  0.00    +0.000 A 
ENDROOT
BRANCH   1   8
ATOM      7  O   UNL     1       3.243   4.569  17.440  0.00  0.00    +0.000 OA
ATOM      8  C   UNL     1       3.845   5.539  17.902  0.00  0.00    +0.000 C 
BRANCH   8   9
ATOM      9  C   UNL     1       5.369   5.607  17.923  0.00  0.00    +0.000 C 
BRANCH   9  10
ATOM     10  O   UNL     1       5.902   5.834  16.620  0.00  0.00    +0.000 OA
BRANCH  10  11
ATOM     11  C   UNL     1       6.958   5.040  16.306  0.00  0.00    +0.000 C 
ATOM     12  O   UNL     1       7.785   4.609  17.100  0.00  0.00    +0.000 OA
BRANCH  11  13
ATOM     13  C   UNL     1       6.987   4.772  14.846  0.00  0.00    +0.000 A 
ATOM     14  C   UNL     1       6.127   3.819  14.318  0.00  0.00    +0.000 A 
ATOM     15  N   UNL     1       6.090   3.529  12.992  0.00  0.00    +0.000 NA
ATOM     16  C   UNL     1       6.943   4.241  12.219  0.00  0.00    +0.000 A 
ATOM     17  C   UNL     1       7.806   5.188  12.745  0.00  0.00    +0.000 A 
ATOM     18  N   UNL     1       7.857   5.471  14.065  0.00  0.00    +0.000 NA
ENDBRANCH  11  13
ENDBRANCH  10  11
ENDBRANCH   9  10
ENDBRANCH   8   9
ENDBRANCH   1   8
BRANCH   4  19
ATOM     19  O   UNL     1       0.767   9.929  19.861  0.00  0.00    +0.000 OA
BRANCH  19  20
ATOM     20  C   UNL     1       0.424  10.937  18.967  0.00  0.00    +0.000 C 
ATOM     21  O   UNL     1       1.153  11.832  18.560  0.00  0.00    +0.000 OA
BRANCH  20  22
ATOM     22  C   UNL     1      -1.004  10.860  18.556  0.00  0.00    +0.000 A 
ATOM     23  C   UNL     1      -1.318   9.980  17.505  0.00  0.00    +0.000 A 
ATOM     24  C   UNL     1      -2.614   9.915  16.993  0.00  0.00    +0.000 A 
ATOM     25  C   UNL     1      -3.611  10.722  17.529  0.00  0.00    +0.000 A 
ATOM     26  C   UNL     1      -3.317  11.581  18.590  0.00  0.00    +0.000 A 
ATOM     27  C   UNL     1      -2.018  11.650  19.111  0.00  0.00    +0.000 A 
ENDBRANCH  20  22
ENDBRANCH  19  20
ENDBRANCH   4  19
TORSDOF 8
ENDMDL
MODEL 5
REMARK VINA RESULT:      -7.7      3.671      8.011
REMARK  Name = 
REMARK  8 active torsions:
REMARK  status: ('A' for Active; 'I' for Inactive)
REMARK    1  A    between atoms: C_2  and  C_3
REMARK    2  A    between atoms: C_2  and  C_13
REMARK    3  A    between atoms: C_3  and  O_4
REMARK    4  A    between atoms: O_4  and  C_5
REMARK    5  A    between atoms: C_5  and  C_7
REMARK    6  A    between atoms: C_16  and  O_17
REMARK    7  A    between atoms: O_17  and  C_18
REMARK    8  A    between atoms: C_18  and  C_20
REMARK                            x       y       z     vdW  Elec       q    Type
REMARK                         _______ _______ _______ _____ _____    ______ ____
ROOT
ATOM      1  C   UNL     1       2.208   5.157  18.954  0.00  0.00    +0.000 A 
ATOM      2  C   UNL     1       2.522   6.189  18.061  0.00  0.00    +0.000 A 
ATOM      3  C   UNL     1       2.346   7.528  18.439  0.00  0.00    +0.000 A 
ATOM      4  C   UNL     1       1.858   7.835  19.711  0.00  0.00    +0.000 A 
ATOM      5  C   UNL     1       1.601   6.812  20.624  0.00  0.00    +0.000 A 
ATOM      6  C   UNL     1       1.764   5.478  20.242  0.00  0.00    +0.000 A 
ENDROOT
BRANCH   1   8
ATOM      7  O   UNL     1       1.555   3.204  17.829  0.00  0.00    +0.000 OA
ATOM      8  C   UNL     1       2.356   3.715  18.613  0.00  0.00    +0.000 C 
BRANCH   8   9
ATOM      9  C   UNL     1       3.532   2.933  19.189  0.00  0.00    +0.000 C 
BRANCH   9  10
ATOM     10  O   UNL     1       4.625   2.879  18.275  0.00  0.00    +0.000 OA
BRANCH  10  11
ATOM     11  C   UNL     1       5.459   3.949  18.344  0.00  0.00    +0.000 C 
ATOM     12  O   UNL     1       5.777   4.537  19.369  0.00  0.00    +0.000 OA
BRANCH  11  13
ATOM     13  C   UNL     1       5.928   4.327  16.987  0.00  0.00    +0.000 A 
ATOM     14  C   UNL     1       7.034   5.155  16.862  0.00  0.00    +0.000 A 
ATOM     15  N   UNL     1       7.526   5.534  15.655  0.00  0.00    +0.000 NA
ATOM     16  C   UNL     1       6.869   5.038  14.581  0.00  0.00    +0.000 A 
ATOM     17  C   UNL     1       5.761   4.217  14.703  0.00  0.00    +0.000 A 
ATOM     18  N   UNL     1       5.259   3.848  15.901  0.00  0.00    +0.000 NA
ENDBRANCH  11  13
ENDBRANCH  10  11
ENDBRANCH   9  10
ENDBRANCH   8   9
ENDBRANCH   1   8
BRANCH   4  19
ATOM     19  O   UNL     1       1.692   9.209  20.012  0.00  0.00    +0.000 OA
BRANCH  19  20
ATOM     20  C   UNL     1       0.519   9.861  19.651  0.00  0.00    +0.000 C 
ATOM     21  O   UNL     1       0.126  10.087  18.514  0.00  0.00    +0.000 OA
BRANCH  20  22
ATOM     22  C   UNL     1      -0.247  10.333  20.837  0.00  0.00    +0.000 A 
ATOM     23  C   UNL     1      -1.006  11.506  20.681  0.00  0.00    +0.000 A 
ATOM     24  C   UNL     1      -1.678  12.071  21.765  0.00  0.00    +0.000 A 
ATOM     25  C   UNL     1      -1.604  11.467  23.015  0.00  0.00    +0.000 A 
ATOM     26  C   UNL     1      -0.874  10.288  23.177  0.00  0.00    +0.000 A 
ATOM     27  C   UNL     1      -0.199   9.714  22.091  0.00  0.00    +0.000 A 
ENDBRANCH  20  22
ENDBRANCH  19  20
ENDBRANCH   4  19
TORSDOF 8
ENDMDL
MODEL 6
REMARK VINA RESULT:      -7.6      3.580      7.894
REMARK  Name = 
REMARK  8 active torsions:
REMARK  status: ('A' for Active; 'I' for Inactive)
REMARK    1  A    between atoms: C_2  and  C_3
REMARK    2  A    between atoms: C_2  and  C_13
REMARK    3  A    between atoms: C_3  and  O_4
REMARK    4  A    between atoms: O_4  and  C_5
REMARK    5  A    between atoms: C_5  and  C_7
REMARK    6  A    between atoms: C_16  and  O_17
REMARK    7  A    between atoms: O_17  and  C_18
REMARK    8  A    between atoms: C_18  and  C_20
REMARK                            x       y       z     vdW  Elec       q    Type
REMARK                         _______ _______ _______ _____ _____    ______ ____
ROOT
ATOM      1  C   UNL     1       2.350   5.059  18.556  0.00  0.00    +0.000 A 
ATOM      2  C   UNL     1       1.826   4.833  19.834  0.00  0.00    +0.000 A 
ATOM      3  C   UNL     1       1.567   5.912  20.693  0.00  0.00    +0.000 A 
ATOM      4  C   UNL     1       1.829   7.217  20.271  0.00  0.00    +0.000 A 
ATOM      5  C   UNL     1       2.294   7.450  18.977  0.00  0.00    +0.000 A 
ATOM      6  C   UNL     1       2.565   6.375  18.127  0.00  0.00    +0.000 A 
ENDROOT
BRANCH   1   8
ATOM      7  O   UNL     1       1.734   3.344  17.077  0.00  0.00    +0.000 OA
ATOM      8  C   UNL     1       2.663   3.961  17.600  0.00  0.00    +0.000 C 
BRANCH   8   9
ATOM      9  C   UNL     1       4.120   3.677  17.247  0.00  0.00    +0.000 C 
BRANCH   9  10
ATOM     10  O   UNL     1       4.550   4.454  16.132  0.00  0.00    +0.000 OA
BRANCH  10  11
ATOM     11  C   UNL     1       5.884   4.387  15.890  0.00  0.00    +0.000 C 
ATOM     12  O   UNL     1       6.415   3.713  15.016  0.00  0.00    +0.000 OA
BRANCH  11  13
ATOM     13  C   UNL     1       6.628   5.239  16.851  0.00  0.00    +0.000 A 
ATOM     14  C   UNL     1       7.228   4.646  17.953  0.00  0.00    +0.000 A 
ATOM     15  N   UNL     1       7.933   5.359  18.868  0.00  0.00    +0.000 NA
ATOM     16  C   UNL     1       8.018   6.689  18.626  0.00  0.00    +0.000 A 
ATOM     17  C   UNL     1       7.414   7.283  17.530  0.00  0.00    +0.000 A 
ATOM     18  N   UNL     1       6.700   6.580  16.625  0.00  0.00    +0.000 NA
ENDBRANCH  11  13
ENDBRANCH  10  11
ENDBRANCH   9  10
ENDBRANCH   8   9
ENDBRANCH   1   8
BRANCH   4  19
ATOM     19  O   UNL     1       1.557   8.250  21.200  0.00  0.00    +0.000 OA
BRANCH  19  20
ATOM     20  C   UNL     1       0.266   8.751  21.322  0.00  0.00    +0.000 C 
ATOM     21  O   UNL     1      -0.671   8.224  21.907  0.00  0.00    +0.000 OA
BRANCH  20  22
ATOM     22  C   UNL     1       0.096  10.041  20.600  0.00  0.00    +0.000 A 
ATOM     23  C   UNL     1      -0.504   9.986  19.330  0.00  0.00    +0.000 A 
ATOM     24  C   UNL     1      -0.618  11.132  18.543  0.00  0.00    +0.000 A 
ATOM     25  C   UNL     1      -0.138  12.348  19.019  0.00  0.00    +0.000 A 
ATOM     26  C   UNL     1       0.437  12.420  20.290  0.00  0.00    +0.000 A 
ATOM     27  C   UNL     1       0.551  11.272  21.086  0.00  0.00    +0.000 A 
ENDBRANCH  20  22
ENDBRANCH  19  20
ENDBRANCH   4  19
TORSDOF 8
ENDMDL
MODEL 7
REMARK VINA RESULT:      -7.6      3.779      7.044
REMARK  Name = 
REMARK  8 active torsions:
REMARK  status: ('A' for Active; 'I' for Inactive)
REMARK    1  A    between atoms: C_2  and  C_3
REMARK    2  A    between atoms: C_2  and  C_13
REMARK    3  A    between atoms: C_3  and  O_4
REMARK    4  A    between atoms: O_4  and  C_5
REMARK    5  A    between atoms: C_5  and  C_7
REMARK    6  A    between atoms: C_16  and  O_17
REMARK    7  A    between atoms: O_17  and  C_18
REMARK    8  A    between atoms: C_18  and  C_20
REMARK                            x       y       z     vdW  Elec       q    Type
REMARK                         _______ _______ _______ _____ _____    ______ ____
ROOT
ATOM      1  C   UNL     1       3.361   6.585  18.566  0.00  0.00    +0.000 A 
ATOM      2  C   UNL     1       3.012   7.676  17.760  0.00  0.00    +0.000 A 
ATOM      3  C   UNL     1       2.081   8.621  18.216  0.00  0.00    +0.000 A 
ATOM      4  C   UNL     1       1.502   8.477  19.478  0.00  0.00    +0.000 A 
ATOM      5  C   UNL     1       1.893   7.426  20.308  0.00  0.00    +0.000 A 
ATOM      6  C   UNL     1       2.809   6.477  19.848  0.00  0.00    +0.000 A 
ENDROOT
BRANCH   1   8
ATOM      7  O   UNL     1       4.499   5.339  16.935  0.00  0.00    +0.000 OA
ATOM      8  C   UNL     1       4.329   5.537  18.139  0.00  0.00    +0.000 C 
BRANCH   8   9
ATOM      9  C   UNL     1       5.130   4.789  19.201  0.00  0.00    +0.000 C 
BRANCH   9  10
ATOM     10  O   UNL     1       5.217   3.396  18.909  0.00  0.00    +0.000 OA
BRANCH  10  11
ATOM     11  C   UNL     1       4.633   2.597  19.838  0.00  0.00    +0.000 C 
ATOM     12  O   UNL     1       5.228   1.863  20.619  0.00  0.00    +0.000 OA
BRANCH  11  13
ATOM     13  C   UNL     1       3.156   2.718  19.771  0.00  0.00    +0.000 A 
ATOM     14  C   UNL     1       2.451   3.025  20.926  0.00  0.00    +0.000 A 
ATOM     15  N   UNL     1       1.100   3.163  20.939  0.00  0.00    +0.000 NA
ATOM     16  C   UNL     1       0.489   2.990  19.743  0.00  0.00    +0.000 A 
ATOM     17  C   UNL     1       1.190   2.677  18.590  0.00  0.00    +0.000 A 
ATOM     18  N   UNL     1       2.532   2.525  18.575  0.00  0.00    +0.000 NA
ENDBRANCH  11  13
ENDBRANCH  10  11
ENDBRANCH   9  10
ENDBRANCH   8   9
ENDBRANCH   1   8
BRANCH   4  19
ATOM     19  O   UNL     1       0.560   9.463  19.860  0.00  0.00    +0.000 OA
BRANCH  19  20
ATOM     20  C   UNL     1       0.415  10.616  19.097  0.00  0.00    +0.000 C 
ATOM     21  O   UNL     1       1.233  11.517  18.969  0.00  0.00    +0.000 OA
BRANCH  20  22
ATOM     22  C   UNL     1      -0.920  10.690  18.443  0.00  0.00    +0.000 A 
ATOM     23  C   UNL     1      -1.839  11.613  18.972  0.00  0.00    +0.000 A 
ATOM     24  C   UNL     1      -3.143  11.683  18.482  0.00  0.00    +0.000 A 
ATOM     25  C   UNL     1      -3.542  10.836  17.455  0.00  0.00    +0.000 A 
ATOM     26  C   UNL     1      -2.631   9.931  16.904  0.00  0.00    +0.000 A 
ATOM     27  C   UNL     1      -1.319   9.859  17.390  0.00  0.00    +0.000 A 
ENDBRANCH  20  22
ENDBRANCH  19  20
ENDBRANCH   4  19
TORSDOF 8
ENDMDL
MODEL 8
REMARK VINA RESULT:      -7.6      3.407      7.978
REMARK  Name = 
REMARK  8 active torsions:
REMARK  status: ('A' for Active; 'I' for Inactive)
REMARK    1  A    between atoms: C_2  and  C_3
REMARK    2  A    between atoms: C_2  and  C_13
REMARK    3  A    between atoms: C_3  and  O_4
REMARK    4  A    between atoms: O_4  and  C_5
REMARK    5  A    between atoms: C_5  and  C_7
REMARK    6  A    between atoms: C_16  and  O_17
REMARK    7  A    between atoms: O_17  and  C_18
REMARK    8  A    between atoms: C_18  and  C_20
REMARK                            x       y       z     vdW  Elec       q    Type
REMARK                         _______ _______ _______ _____ _____    ______ ____
ROOT
ATOM      1  C   UNL     1       2.111   4.411  18.922  0.00  0.00    +0.000 A 
ATOM      2  C   UNL     1       1.922   4.759  20.265  0.00  0.00    +0.000 A 
ATOM      3  C   UNL     1       1.882   6.109  20.644  0.00  0.00    +0.000 A 
ATOM      4  C   UNL     1       2.028   7.109  19.681  0.00  0.00    +0.000 A 
ATOM      5  C   UNL     1       2.156   6.767  18.335  0.00  0.00    +0.000 A 
ATOM      6  C   UNL     1       2.209   5.422  17.959  0.00  0.00    +0.000 A 
ENDROOT
BRANCH   1   8
ATOM      7  O   UNL     1       1.159   2.310  18.488  0.00  0.00    +0.000 OA
ATOM      8  C   UNL     1       2.179   2.999  18.452  0.00  0.00    +0.000 C 
BRANCH   8   9
ATOM      9  C   UNL     1       3.490   2.471  17.877  0.00  0.00    +0.000 C 
BRANCH   9  10
ATOM     10  O   UNL     1       4.590   3.310  18.222  0.00  0.00    +0.000 OA
BRANCH  10  11
ATOM     11  C   UNL     1       5.114   3.998  17.174  0.00  0.00    +0.000 C 
ATOM     12  O   UNL     1       4.797   3.854  16.000  0.00  0.00    +0.000 OA
BRANCH  11  13
ATOM     13  C   UNL     1       6.151   4.949  17.647  0.00  0.00    +0.000 A 
ATOM     14  C   UNL     1       6.665   5.883  16.758  0.00  0.00    +0.000 A 
ATOM     15  N   UNL     1       7.606   6.791  17.122  0.00  0.00    +0.000 NA
ATOM     16  C   UNL     1       8.003   6.728  18.414  0.00  0.00    +0.000 A 
ATOM     17  C   UNL     1       7.497   5.792  19.301  0.00  0.00    +0.000 A 
ATOM     18  N   UNL     1       6.570   4.878  18.941  0.00  0.00    +0.000 NA
ENDBRANCH  11  13
ENDBRANCH  10  11
ENDBRANCH   9  10
ENDBRANCH   8   9
ENDBRANCH   1   8
BRANCH   4  19
ATOM     19  O   UNL     1       1.993   8.447  20.146  0.00  0.00    +0.000 OA
BRANCH  19  20
ATOM     20  C   UNL     1       0.955   9.288  19.762  0.00  0.00    +0.000 C 
ATOM     21  O   UNL     1       0.687   9.647  18.623  0.00  0.00    +0.000 OA
BRANCH  20  22
ATOM     22  C   UNL     1       0.175   9.783  20.928  0.00  0.00    +0.000 A 
ATOM     23  C   UNL     1      -0.385  11.068  20.821  0.00  0.00    +0.000 A 
ATOM     24  C   UNL     1      -1.051  11.648  21.901  0.00  0.00    +0.000 A 
ATOM     25  C   UNL     1      -1.169  10.950  23.097  0.00  0.00    +0.000 A 
ATOM     26  C   UNL     1      -0.639   9.662  23.208  0.00  0.00    +0.000 A 
ATOM     27  C   UNL     1       0.029   9.073  22.126  0.00  0.00    +0.000 A 
ENDBRANCH  20  22
ENDBRANCH  19  20
ENDBRANCH   4  19
TORSDOF 8
ENDMDL
MODEL 9
REMARK VINA RESULT:      -7.6      3.676      8.115
REMARK  Name = 
REMARK  8 active torsions:
REMARK  status: ('A' for Active; 'I' for Inactive)
REMARK    1  A    between atoms: C_2  and  C_3
REMARK    2  A    between atoms: C_2  and  C_13
REMARK    3  A    between atoms: C_3  and  O_4
REMARK    4  A    between atoms: O_4  and  C_5
REMARK    5  A    between atoms: C_5  and  C_7
REMARK    6  A    between atoms: C_16  and  O_17
REMARK    7  A    between atoms: O_17  and  C_18
REMARK    8  A    between atoms: C_18  and  C_20
REMARK                            x       y       z     vdW  Elec       q    Type
REMARK                         _______ _______ _______ _____ _____    ______ ____
ROOT
ATOM      1  C   UNL     1       2.220   5.143  19.557  0.00  0.00    +0.000 A 
ATOM      2  C   UNL     1       1.664   5.686  20.721  0.00  0.00    +0.000 A 
ATOM      3  C   UNL     1       1.464   7.070  20.828  0.00  0.00    +0.000 A 
ATOM      4  C   UNL     1       1.818   7.910  19.770  0.00  0.00    +0.000 A 
ATOM      5  C   UNL     1       2.316   7.366  18.586  0.00  0.00    +0.000 A 
ATOM      6  C   UNL     1       2.528   5.989  18.485  0.00  0.00    +0.000 A 
ENDROOT
BRANCH   1   8
ATOM      7  O   UNL     1       1.532   2.948  19.090  0.00  0.00    +0.000 OA
ATOM      8  C   UNL     1       2.475   3.685  19.383  0.00  0.00    +0.000 C 
BRANCH   8   9
ATOM      9  C   UNL     1       3.902   3.161  19.504  0.00  0.00    +0.000 C 
BRANCH   9  10
ATOM     10  O   UNL     1       4.584   3.200  18.252  0.00  0.00    +0.000 OA
BRANCH  10  11
ATOM     11  C   UNL     1       5.586   4.115  18.194  0.00  0.00    +0.000 C 
ATOM     12  O   UNL     1       6.113   4.654  19.159  0.00  0.00    +0.000 OA
BRANCH  11  13
ATOM     13  C   UNL     1       5.952   4.392  16.782  0.00  0.00    +0.000 A 
ATOM     14  C   UNL     1       7.172   4.993  16.507  0.00  0.00    +0.000 A 
ATOM     15  N   UNL     1       7.579   5.266  15.241  0.00  0.00    +0.000 NA
ATOM     16  C   UNL     1       6.715   4.903  14.264  0.00  0.00    +0.000 A 
ATOM     17  C   UNL     1       5.493   4.310  14.537  0.00  0.00    +0.000 A 
ATOM     18  N   UNL     1       5.078   4.048  15.795  0.00  0.00    +0.000 NA
ENDBRANCH  11  13
ENDBRANCH  10  11
ENDBRANCH   9  10
ENDBRANCH   8   9
ENDBRANCH   1   8
BRANCH   4  19
ATOM     19  O   UNL     1       1.601   9.296  19.961  0.00  0.00    +0.000 OA
BRANCH  19  20
ATOM     20  C   UNL     1       0.374   9.859  19.628  0.00  0.00    +0.000 C 
ATOM     21  O   UNL     1      -0.098   9.972  18.504  0.00  0.00    +0.000 OA
BRANCH  20  22
ATOM     22  C   UNL     1      -0.342  10.386  20.821  0.00  0.00    +0.000 A 
ATOM     23  C   UNL     1      -1.008  11.616  20.672  0.00  0.00    +0.000 A 
ATOM     24  C   UNL     1      -1.625  12.229  21.762  0.00  0.00    +0.000 A 
ATOM     25  C   UNL     1      -1.589  11.619  23.012  0.00  0.00    +0.000 A 
ATOM     26  C   UNL     1      -0.952  10.386  23.166  0.00  0.00    +0.000 A 
ATOM     27  C   UNL     1      -0.333   9.763  22.074  0.00  0.00    +0.000 A 
ENDBRANCH  20  22
ENDBRANCH  19  20
ENDBRANCH   4  19
TORSDOF 8
ENDMDL
