MODEL 1
REMARK VINA RESULT:      -7.2      0.000      0.000
REMARK  Name = 
REMARK  6 active torsions:
REMARK  status: ('A' for Active; 'I' for Inactive)
REMARK    1  A    between atoms: C_1  and  C_2
REMARK    2  A    between atoms: C_4  and  C_5
REMARK    3  A    between atoms: N_6  and  C_7
REMARK    4  A    between atoms: C_13  and  C_14
REMARK    5  A    between atoms: C_20  and  C_21
REMARK    6  A    between atoms: N_27  and  C_28
REMARK                            x       y       z     vdW  Elec       q    Type
REMARK                         _______ _______ _______ _____ _____    ______ ____
ROOT
ATOM      1  C   UNL     1      -4.766  13.414  20.887  0.00  0.00    +0.000 A 
ATOM      2  N   UNL     1      -5.000  13.306  22.252  0.00  0.00    +0.000 NA
ATOM      3  C   UNL     1      -4.080  12.708  23.020  0.00  0.00    +0.000 A 
ATOM      4  N   UNL     1      -2.910  12.209  22.625  0.00  0.00    +0.000 NA
ATOM      5  C   UNL     1      -2.524  12.672  21.418  0.00  0.00    +0.000 A 
ATOM      6  C   UNL     1      -3.257  13.522  20.574  0.00  0.00    +0.000 A 
ATOM      7  C   UNL     1      -2.002  14.580  20.444  0.00  0.00    +0.000 A 
ATOM      8  C   UNL     1      -0.801  13.783  20.512  0.00  0.00    +0.000 A 
ATOM      9  N   UNL     1      -1.272  12.505  20.844  0.00  0.00    +0.000 N 
ENDROOT
BRANCH   1  15
ATOM     10  C   UNL     1      -7.916   9.338  20.710  0.00  0.00    +0.000 C 
ATOM     11  C   UNL     1      -7.042  10.496  20.283  0.00  0.00    +0.000 A 
ATOM     12  C   UNL     1      -6.471  10.519  18.996  0.00  0.00    +0.000 A 
ATOM     13  C   UNL     1      -5.694  11.675  18.928  0.00  0.00    +0.000 A 
ATOM     14  C   UNL     1      -4.946  11.940  17.696  0.00  0.00    +0.000 C 
ATOM     15  N   UNL     1      -5.825  12.405  20.180  0.00  0.00    +0.000 N 
ATOM     16  N   UNL     1      -6.681  11.583  21.011  0.00  0.00    +0.000 NA
ENDBRANCH   1  15
BRANCH   9  17
ATOM     17  C   UNL     1      -0.521  11.288  20.792  0.00  0.00    +0.000 A 
ATOM     18  C   UNL     1      -0.061  10.691  21.965  0.00  0.00    +0.000 A 
ATOM     19  C   UNL     1       0.803   9.596  21.886  0.00  0.00    +0.000 A 
ATOM     20  C   UNL     1       1.218   9.105  20.653  0.00  0.00    +0.000 A 
ATOM     21  C   UNL     1       0.714   9.662  19.489  0.00  0.00    +0.000 A 
ATOM     22 CL   UNL     1       1.262   9.108  17.955  0.00  0.00    +0.000 Cl
ATOM     23  C   UNL     1      -0.199  10.706  19.555  0.00  0.00    +0.000 A 
ENDBRANCH   9  17
BRANCH   7  24
ATOM     24  C   UNL     1      -1.690  16.087  20.332  0.00  0.00    +0.000 A 
ATOM     25  C   UNL     1      -1.430  16.845  21.527  0.00  0.00    +0.000 A 
ATOM     26  C   UNL     1      -0.605  18.005  21.578  0.00  0.00    +0.000 A 
ATOM     27  C   UNL     1      -0.091  18.531  20.410  0.00  0.00    +0.000 A 
ATOM     28  C   UNL     1      -0.434  17.904  19.207  0.00  0.00    +0.000 A 
ATOM     29  C   UNL     1      -1.207  16.686  19.165  0.00  0.00    +0.000 A 
ENDBRANCH   7  24
BRANCH   8  30
ATOM     30  C   UNL     1       0.703  14.102  20.442  0.00  0.00    +0.000 A 
ATOM     31  C   UNL     1       1.458  14.431  21.599  0.00  0.00    +0.000 A 
ATOM     32  C   UNL     1       2.868  14.477  21.587  0.00  0.00    +0.000 A 
ATOM     33  C   UNL     1       3.568  14.300  20.401  0.00  0.00    +0.000 A 
ATOM     34  C   UNL     1       2.850  14.089  19.226  0.00  0.00    +0.000 A 
ATOM     35  C   UNL     1       1.444  13.971  19.253  0.00  0.00    +0.000 A 
ENDBRANCH   8  30
TORSDOF 4
ENDMDL
MODEL 2
REMARK VINA RESULT:      -7.1      3.033      6.798
REMARK  Name = 
REMARK  6 active torsions:
REMARK  status: ('A' for Active; 'I' for Inactive)
REMARK    1  A    between atoms: C_1  and  C_2
REMARK    2  A    between atoms: C_4  and  C_5
REMARK    3  A    between atoms: N_6  and  C_7
REMARK    4  A    between atoms: C_13  and  C_14
REMARK    5  A    between atoms: C_20  and  C_21
REMARK    6  A    between atoms: N_27  and  C_28
REMARK                            x       y       z     vdW  Elec       q    Type
REMARK                         _______ _______ _______ _____ _____    ______ ____
ROOT
ATOM      1  C   UNL     1       0.665   9.140  19.728  0.00  0.00    +0.000 A 
ATOM      2  N   UNL     1       0.352   8.819  21.043  0.00  0.00    +0.000 NA
ATOM      3  C   UNL     1       0.539   9.742  21.996  0.00  0.00    +0.000 A 
ATOM      4  N   UNL     1       0.980  10.988  21.828  0.00  0.00    +0.000 NA
ATOM      5  C   UNL     1       0.888  11.407  20.549  0.00  0.00    +0.000 A 
ATOM      6  C   UNL     1       0.466  10.647  19.447  0.00  0.00    +0.000 A 
ATOM      7  C   UNL     1      -0.649  11.778  19.012  0.00  0.00    +0.000 A 
ATOM      8  C   UNL     1      -0.084  13.054  19.381  0.00  0.00    +0.000 A 
ATOM      9  N   UNL     1       1.066  12.709  20.104  0.00  0.00    +0.000 N 
ENDROOT
BRANCH   1  15
ATOM     10  C   UNL     1       4.267   7.226  16.578  0.00  0.00    +0.000 C 
ATOM     11  C   UNL     1       3.375   7.431  17.782  0.00  0.00    +0.000 A 
ATOM     12  C   UNL     1       3.123   6.366  18.669  0.00  0.00    +0.000 A 
ATOM     13  C   UNL     1       2.241   6.853  19.633  0.00  0.00    +0.000 A 
ATOM     14  C   UNL     1       1.775   5.938  20.677  0.00  0.00    +0.000 C 
ATOM     15  N   UNL     1       1.980   8.260  19.364  0.00  0.00    +0.000 N 
ATOM     16  N   UNL     1       2.717   8.557  18.152  0.00  0.00    +0.000 NA
ENDBRANCH   1  15
BRANCH   9  17
ATOM     17  C   UNL     1       2.122  13.596  20.485  0.00  0.00    +0.000 A 
ATOM     18  C   UNL     1       2.036  14.331  21.667  0.00  0.00    +0.000 A 
ATOM     19  C   UNL     1       2.998  15.307  21.941  0.00  0.00    +0.000 A 
ATOM     20  C   UNL     1       4.029  15.561  21.044  0.00  0.00    +0.000 A 
ATOM     21  C   UNL     1       4.147  14.790  19.899  0.00  0.00    +0.000 A 
ATOM     22 CL   UNL     1       5.380  15.130  18.749  0.00  0.00    +0.000 Cl
ATOM     23  C   UNL     1       3.237  13.771  19.649  0.00  0.00    +0.000 A 
ENDBRANCH   9  17
BRANCH   7  24
ATOM     24  C   UNL     1      -2.064  11.923  18.414  0.00  0.00    +0.000 A 
ATOM     25  C   UNL     1      -2.315  11.456  17.076  0.00  0.00    +0.000 A 
ATOM     26  C   UNL     1      -3.579  10.992  16.612  0.00  0.00    +0.000 A 
ATOM     27  C   UNL     1      -4.685  11.082  17.435  0.00  0.00    +0.000 A 
ATOM     28  C   UNL     1      -4.512  11.659  18.698  0.00  0.00    +0.000 A 
ATOM     29  C   UNL     1      -3.216  12.058  19.193  0.00  0.00    +0.000 A 
ENDBRANCH   7  24
BRANCH   8  30
ATOM     30  C   UNL     1      -0.559  14.512  19.257  0.00  0.00    +0.000 A 
ATOM     31  C   UNL     1      -1.428  15.105  20.212  0.00  0.00    +0.000 A 
ATOM     32  C   UNL     1      -1.667  16.495  20.248  0.00  0.00    +0.000 A 
ATOM     33  C   UNL     1      -1.131  17.327  19.275  0.00  0.00    +0.000 A 
ATOM     34  C   UNL     1      -0.366  16.760  18.257  0.00  0.00    +0.000 A 
ATOM     35  C   UNL     1      -0.070  15.380  18.264  0.00  0.00    +0.000 A 
ENDBRANCH   8  30
TORSDOF 4
ENDMDL
MODEL 3
REMARK VINA RESULT:      -6.9      0.887      1.148
REMARK  Name = 
REMARK  6 active torsions:
REMARK  status: ('A' for Active; 'I' for Inactive)
REMARK    1  A    between atoms: C_1  and  C_2
REMARK    2  A    between atoms: C_4  and  C_5
REMARK    3  A    between atoms: N_6  and  C_7
REMARK    4  A    between atoms: C_13  and  C_14
REMARK    5  A    between atoms: C_20  and  C_21
REMARK    6  A    between atoms: N_27  and  C_28
REMARK                            x       y       z     vdW  Elec       q    Type
REMARK                         _______ _______ _______ _____ _____    ______ ____
ROOT
ATOM      1  C   UNL     1      -5.144  13.390  20.788  0.00  0.00    +0.000 A 
ATOM      2  N   UNL     1      -5.500  13.430  22.131  0.00  0.00    +0.000 NA
ATOM      3  C   UNL     1      -4.653  12.929  23.039  0.00  0.00    +0.000 A 
ATOM      4  N   UNL     1      -3.452  12.400  22.808  0.00  0.00    +0.000 NA
ATOM      5  C   UNL     1      -2.959  12.732  21.597  0.00  0.00    +0.000 A 
ATOM      6  C   UNL     1      -3.612  13.477  20.603  0.00  0.00    +0.000 A 
ATOM      7  C   UNL     1      -2.350  14.526  20.470  0.00  0.00    +0.000 A 
ATOM      8  C   UNL     1      -1.161  13.752  20.732  0.00  0.00    +0.000 A 
ATOM      9  N   UNL     1      -1.661  12.514  21.159  0.00  0.00    +0.000 N 
ENDROOT
BRANCH   1  15
ATOM     10  C   UNL     1      -7.672   8.906  20.529  0.00  0.00    +0.000 C 
ATOM     11  C   UNL     1      -7.040  10.222  20.136  0.00  0.00    +0.000 A 
ATOM     12  C   UNL     1      -6.662  10.458  18.799  0.00  0.00    +0.000 A 
ATOM     13  C   UNL     1      -6.076  11.722  18.770  0.00  0.00    +0.000 A 
ATOM     14  C   UNL     1      -5.552  12.219  17.495  0.00  0.00    +0.000 C 
ATOM     15  N   UNL     1      -6.135  12.300  20.105  0.00  0.00    +0.000 N 
ATOM     16  N   UNL     1      -6.740  11.277  20.934  0.00  0.00    +0.000 NA
ENDBRANCH   1  15
BRANCH   9  17
ATOM     17  C   UNL     1      -0.908  11.306  21.310  0.00  0.00    +0.000 A 
ATOM     18  C   UNL     1      -0.684  10.766  22.576  0.00  0.00    +0.000 A 
ATOM     19  C   UNL     1       0.184   9.680  22.715  0.00  0.00    +0.000 A 
ATOM     20  C   UNL     1       0.833   9.141  21.610  0.00  0.00    +0.000 A 
ATOM     21  C   UNL     1       0.564   9.641  20.347  0.00  0.00    +0.000 A 
ATOM     22 CL   UNL     1       1.403   9.028  18.976  0.00  0.00    +0.000 Cl
ATOM     23  C   UNL     1      -0.349  10.675  20.187  0.00  0.00    +0.000 A 
ENDBRANCH   9  17
BRANCH   7  24
ATOM     24  C   UNL     1      -2.028  16.015  20.220  0.00  0.00    +0.000 A 
ATOM     25  C   UNL     1      -1.131  16.373  19.153  0.00  0.00    +0.000 A 
ATOM     26  C   UNL     1      -1.180  17.608  18.445  0.00  0.00    +0.000 A 
ATOM     27  C   UNL     1      -2.057  18.595  18.849  0.00  0.00    +0.000 A 
ATOM     28  C   UNL     1      -2.853  18.339  19.971  0.00  0.00    +0.000 A 
ATOM     29  C   UNL     1      -2.856  17.059  20.640  0.00  0.00    +0.000 A 
ENDBRANCH   7  24
BRANCH   8  30
ATOM     30  C   UNL     1       0.344  14.075  20.763  0.00  0.00    +0.000 A 
ATOM     31  C   UNL     1       0.948  14.744  21.861  0.00  0.00    +0.000 A 
ATOM     32  C   UNL     1       2.349  14.821  22.013  0.00  0.00    +0.000 A 
ATOM     33  C   UNL     1       3.193  14.326  21.028  0.00  0.00    +0.000 A 
ATOM     34  C   UNL     1       2.628  13.766  19.884  0.00  0.00    +0.000 A 
ATOM     35  C   UNL     1       1.229  13.626  19.767  0.00  0.00    +0.000 A 
ENDBRANCH   8  30
TORSDOF 4
ENDMDL
MODEL 4
REMARK VINA RESULT:      -6.9      2.920      7.755
REMARK  Name = 
REMARK  6 active torsions:
REMARK  status: ('A' for Active; 'I' for Inactive)
REMARK    1  A    between atoms: C_1  and  C_2
REMARK    2  A    between atoms: C_4  and  C_5
REMARK    3  A    between atoms: N_6  and  C_7
REMARK    4  A    between atoms: C_13  and  C_14
REMARK    5  A    between atoms: C_20  and  C_21
REMARK    6  A    between atoms: N_27  and  C_28
REMARK                            x       y       z     vdW  Elec       q    Type
REMARK                         _______ _______ _______ _____ _____    ______ ____
ROOT
ATOM      1  C   UNL     1       0.375  11.963  20.518  0.00  0.00    +0.000 A 
ATOM      2  N   UNL     1       0.487  11.004  21.518  0.00  0.00    +0.000 NA
ATOM      3  C   UNL     1      -0.406  11.003  22.516  0.00  0.00    +0.000 A 
ATOM      4  N   UNL     1      -1.446  11.824  22.660  0.00  0.00    +0.000 NA
ATOM      5  C   UNL     1      -1.775  12.457  21.515  0.00  0.00    +0.000 A 
ATOM      6  C   UNL     1      -1.096  12.377  20.289  0.00  0.00    +0.000 A 
ATOM      7  C   UNL     1      -2.474  11.983  19.478  0.00  0.00    +0.000 A 
ATOM      8  C   UNL     1      -3.545  12.672  20.157  0.00  0.00    +0.000 A 
ATOM      9  N   UNL     1      -2.926  13.201  21.298  0.00  0.00    +0.000 N 
ENDROOT
BRANCH   1  15
ATOM     10  C   UNL     1       2.758  16.113  22.433  0.00  0.00    +0.000 C 
ATOM     11  C   UNL     1       2.437  14.911  21.572  0.00  0.00    +0.000 A 
ATOM     12  C   UNL     1       2.962  14.809  20.269  0.00  0.00    +0.000 A 
ATOM     13  C   UNL     1       2.453  13.630  19.727  0.00  0.00    +0.000 A 
ATOM     14  C   UNL     1       2.811  13.284  18.350  0.00  0.00    +0.000 C 
ATOM     15  N   UNL     1       1.635  12.966  20.731  0.00  0.00    +0.000 N 
ATOM     16  N   UNL     1       1.647  13.852  21.878  0.00  0.00    +0.000 NA
ENDBRANCH   1  15
BRANCH   9  17
ATOM     17  C   UNL     1      -3.481  14.178  22.184  0.00  0.00    +0.000 A 
ATOM     18  C   UNL     1      -4.401  13.803  23.162  0.00  0.00    +0.000 A 
ATOM     19  C   UNL     1      -5.050  14.790  23.909  0.00  0.00    +0.000 A 
ATOM     20  C   UNL     1      -4.799  16.138  23.678  0.00  0.00    +0.000 A 
ATOM     21  C   UNL     1      -3.842  16.507  22.747  0.00  0.00    +0.000 A 
ATOM     22 CL   UNL     1      -3.560  18.169  22.404  0.00  0.00    +0.000 Cl
ATOM     23  C   UNL     1      -3.140  15.534  22.047  0.00  0.00    +0.000 A 
ENDBRANCH   9  17
BRANCH   7  24
ATOM     24  C   UNL     1      -2.991  11.114  18.313  0.00  0.00    +0.000 A 
ATOM     25  C   UNL     1      -3.911  11.684  17.363  0.00  0.00    +0.000 A 
ATOM     26  C   UNL     1      -4.020  11.271  16.004  0.00  0.00    +0.000 A 
ATOM     27  C   UNL     1      -3.292  10.185  15.559  0.00  0.00    +0.000 A 
ATOM     28  C   UNL     1      -2.488   9.515  16.488  0.00  0.00    +0.000 A 
ATOM     29  C   UNL     1      -2.321   9.982  17.843  0.00  0.00    +0.000 A 
ENDBRANCH   7  24
BRANCH   8  30
ATOM     30  C   UNL     1      -5.065  12.769  19.939  0.00  0.00    +0.000 A 
ATOM     31  C   UNL     1      -5.957  11.759  20.388  0.00  0.00    +0.000 A 
ATOM     32  C   UNL     1      -7.355  11.952  20.419  0.00  0.00    +0.000 A 
ATOM     33  C   UNL     1      -7.917  13.114  19.908  0.00  0.00    +0.000 A 
ATOM     34  C   UNL     1      -7.075  14.076  19.354  0.00  0.00    +0.000 A 
ATOM     35  C   UNL     1      -5.674  13.913  19.390  0.00  0.00    +0.000 A 
ENDBRANCH   8  30
TORSDOF 4
ENDMDL
MODEL 5
REMARK VINA RESULT:      -6.8      2.901      7.088
REMARK  Name = 
REMARK  6 active torsions:
REMARK  status: ('A' for Active; 'I' for Inactive)
REMARK    1  A    between atoms: C_1  and  C_2
REMARK    2  A    between atoms: C_4  and  C_5
REMARK    3  A    between atoms: N_6  and  C_7
REMARK    4  A    between atoms: C_13  and  C_14
REMARK    5  A    between atoms: C_20  and  C_21
REMARK    6  A    between atoms: N_27  and  C_28
REMARK                            x       y       z     vdW  Elec       q    Type
REMARK                         _______ _______ _______ _____ _____    ______ ____
ROOT
ATOM      1  C   UNL     1       1.821  16.061  20.354  0.00  0.00    +0.000 A 
ATOM      2  N   UNL     1       1.367  16.851  19.305  0.00  0.00    +0.000 NA
ATOM      3  C   UNL     1       0.335  16.416  18.569  0.00  0.00    +0.000 A 
ATOM      4  N   UNL     1      -0.354  15.290  18.743  0.00  0.00    +0.000 NA
ATOM      5  C   UNL     1      -0.181  14.754  19.969  0.00  0.00    +0.000 A 
ATOM      6  C   UNL     1       0.678  15.226  20.975  0.00  0.00    +0.000 A 
ATOM      7  C   UNL     1      -0.537  15.261  22.085  0.00  0.00    +0.000 A 
ATOM      8  C   UNL     1      -1.418  14.170  21.744  0.00  0.00    +0.000 A 
ATOM      9  N   UNL     1      -0.919  13.715  20.516  0.00  0.00    +0.000 N 
ENDROOT
BRANCH   1  15
ATOM     10  C   UNL     1       6.674  16.528  18.681  0.00  0.00    +0.000 C 
ATOM     11  C   UNL     1       5.324  15.938  19.025  0.00  0.00    +0.000 A 
ATOM     12  C   UNL     1       4.863  14.785  18.360  0.00  0.00    +0.000 A 
ATOM     13  C   UNL     1       3.588  14.523  18.859  0.00  0.00    +0.000 A 
ATOM     14  C   UNL     1       2.846  13.383  18.313  0.00  0.00    +0.000 C 
ATOM     15  N   UNL     1       3.273  15.505  19.886  0.00  0.00    +0.000 N 
ATOM     16  N   UNL     1       4.416  16.395  19.923  0.00  0.00    +0.000 NA
ENDBRANCH   1  15
BRANCH   9  17
ATOM     17  C   UNL     1      -1.275  12.494  19.860  0.00  0.00    +0.000 A 
ATOM     18  C   UNL     1      -0.450  11.373  19.957  0.00  0.00    +0.000 A 
ATOM     19  C   UNL     1      -0.732  10.245  19.183  0.00  0.00    +0.000 A 
ATOM     20  C   UNL     1      -1.815  10.232  18.310  0.00  0.00    +0.000 A 
ATOM     21  C   UNL     1      -2.666  11.323  18.260  0.00  0.00    +0.000 A 
ATOM     22 CL   UNL     1      -3.975  11.350  17.144  0.00  0.00    +0.000 Cl
ATOM     23  C   UNL     1      -2.437  12.424  19.075  0.00  0.00    +0.000 A 
ENDBRANCH   9  17
BRANCH   7  24
ATOM     24  C   UNL     1      -1.058  16.070  23.292  0.00  0.00    +0.000 A 
ATOM     25  C   UNL     1      -2.055  17.086  23.081  0.00  0.00    +0.000 A 
ATOM     26  C   UNL     1      -3.012  17.485  24.058  0.00  0.00    +0.000 A 
ATOM     27  C   UNL     1      -2.944  16.966  25.336  0.00  0.00    +0.000 A 
ATOM     28  C   UNL     1      -1.902  16.077  25.622  0.00  0.00    +0.000 A 
ATOM     29  C   UNL     1      -0.980  15.616  24.611  0.00  0.00    +0.000 A 
ENDBRANCH   7  24
BRANCH   8  30
ATOM     30  C   UNL     1      -2.720  13.614  22.348  0.00  0.00    +0.000 A 
ATOM     31  C   UNL     1      -2.715  12.640  23.382  0.00  0.00    +0.000 A 
ATOM     32  C   UNL     1      -3.879  12.312  24.110  0.00  0.00    +0.000 A 
ATOM     33  C   UNL     1      -5.104  12.866  23.765  0.00  0.00    +0.000 A 
ATOM     34  C   UNL     1      -5.162  13.738  22.680  0.00  0.00    +0.000 A 
ATOM     35  C   UNL     1      -3.986  14.120  22.001  0.00  0.00    +0.000 A 
ENDBRANCH   8  30
TORSDOF 4
ENDMDL
MODEL 6
REMARK VINA RESULT:      -6.8      3.185      6.898
REMARK  Name = 
REMARK  6 active torsions:
REMARK  status: ('A' for Active; 'I' for Inactive)
REMARK    1  A    between atoms: C_1  and  C_2
REMARK    2  A    between atoms: C_4  and  C_5
REMARK    3  A    between atoms: N_6  and  C_7
REMARK    4  A    between atoms: C_13  and  C_14
REMARK    5  A    between atoms: C_20  and  C_21
REMARK    6  A    between atoms: N_27  and  C_28
REMARK                            x       y       z     vdW  Elec       q    Type
REMARK                         _______ _______ _______ _____ _____    ______ ____
ROOT
ATOM      1  C   UNL     1      -2.417  14.190  23.195  0.00  0.00    +0.000 A 
ATOM      2  N   UNL     1      -2.903  13.330  24.172  0.00  0.00    +0.000 NA
ATOM      3  C   UNL     1      -3.934  12.528  23.873  0.00  0.00    +0.000 A 
ATOM      4  N   UNL     1      -4.557  12.430  22.699  0.00  0.00    +0.000 NA
ATOM      5  C   UNL     1      -3.839  12.946  21.681  0.00  0.00    +0.000 A 
ATOM      6  C   UNL     1      -2.602  13.604  21.777  0.00  0.00    +0.000 A 
ATOM      7  C   UNL     1      -1.917  12.619  20.650  0.00  0.00    +0.000 A 
ATOM      8  C   UNL     1      -2.972  12.282  19.724  0.00  0.00    +0.000 A 
ATOM      9  N   UNL     1      -4.122  12.804  20.330  0.00  0.00    +0.000 N 
ENDROOT
BRANCH   1  15
ATOM     10  C   UNL     1      -1.941  18.477  26.018  0.00  0.00    +0.000 C 
ATOM     11  C   UNL     1      -2.518  17.408  25.116  0.00  0.00    +0.000 A 
ATOM     12  C   UNL     1      -3.913  17.241  25.016  0.00  0.00    +0.000 A 
ATOM     13  C   UNL     1      -4.123  16.162  24.158  0.00  0.00    +0.000 A 
ATOM     14  C   UNL     1      -5.500  15.738  23.895  0.00  0.00    +0.000 C 
ATOM     15  N   UNL     1      -2.834  15.683  23.681  0.00  0.00    +0.000 N 
ATOM     16  N   UNL     1      -1.850  16.508  24.353  0.00  0.00    +0.000 NA
ENDBRANCH   1  15
BRANCH   9  17
ATOM     17  C   UNL     1      -5.404  12.961  19.714  0.00  0.00    +0.000 A 
ATOM     18  C   UNL     1      -6.247  11.863  19.545  0.00  0.00    +0.000 A 
ATOM     19  C   UNL     1      -7.421  12.005  18.801  0.00  0.00    +0.000 A 
ATOM     20  C   UNL     1      -7.750  13.224  18.218  0.00  0.00    +0.000 A 
ATOM     21  C   UNL     1      -6.943  14.328  18.436  0.00  0.00    +0.000 A 
ATOM     22 CL   UNL     1      -7.301  15.828  17.674  0.00  0.00    +0.000 Cl
ATOM     23  C   UNL     1      -5.809  14.216  19.231  0.00  0.00    +0.000 A 
ENDBRANCH   9  17
BRANCH   7  24
ATOM     24  C   UNL     1      -0.589  11.919  20.294  0.00  0.00    +0.000 A 
ATOM     25  C   UNL     1      -0.465  10.499  20.495  0.00  0.00    +0.000 A 
ATOM     26  C   UNL     1       0.391   9.653  19.731  0.00  0.00    +0.000 A 
ATOM     27  C   UNL     1       1.252  10.207  18.804  0.00  0.00    +0.000 A 
ATOM     28  C   UNL     1       1.262  11.601  18.677  0.00  0.00    +0.000 A 
ATOM     29  C   UNL     1       0.341  12.448  19.396  0.00  0.00    +0.000 A 
ENDBRANCH   7  24
BRANCH   8  30
ATOM     30  C   UNL     1      -3.043  11.429  18.445  0.00  0.00    +0.000 A 
ATOM     31  C   UNL     1      -2.524  11.887  17.204  0.00  0.00    +0.000 A 
ATOM     32  C   UNL     1      -2.358  11.028  16.097  0.00  0.00    +0.000 A 
ATOM     33  C   UNL     1      -2.797   9.713  16.155  0.00  0.00    +0.000 A 
ATOM     34  C   UNL     1      -3.415   9.265  17.320  0.00  0.00    +0.000 A 
ATOM     35  C   UNL     1      -3.515  10.104  18.450  0.00  0.00    +0.000 A 
ENDBRANCH   8  30
TORSDOF 4
ENDMDL
MODEL 7
REMARK VINA RESULT:      -6.8      2.940      5.938
REMARK  Name = 
REMARK  6 active torsions:
REMARK  status: ('A' for Active; 'I' for Inactive)
REMARK    1  A    between atoms: C_1  and  C_2
REMARK    2  A    between atoms: C_4  and  C_5
REMARK    3  A    between atoms: N_6  and  C_7
REMARK    4  A    between atoms: C_13  and  C_14
REMARK    5  A    between atoms: C_20  and  C_21
REMARK    6  A    between atoms: N_27  and  C_28
REMARK                            x       y       z     vdW  Elec       q    Type
REMARK                         _______ _______ _______ _____ _____    ______ ____
ROOT
ATOM      1  C   UNL     1       0.346  11.651  19.627  0.00  0.00    +0.000 A 
ATOM      2  N   UNL     1      -0.409  11.153  18.572  0.00  0.00    +0.000 NA
ATOM      3  C   UNL     1      -1.739  11.314  18.597  0.00  0.00    +0.000 A 
ATOM      4  N   UNL     1      -2.452  11.942  19.531  0.00  0.00    +0.000 NA
ATOM      5  C   UNL     1      -1.702  12.751  20.307  0.00  0.00    +0.000 A 
ATOM      6  C   UNL     1      -0.307  12.905  20.253  0.00  0.00    +0.000 A 
ATOM      7  C   UNL     1      -0.429  14.542  20.122  0.00  0.00    +0.000 A 
ATOM      8  C   UNL     1      -1.599  14.915  20.880  0.00  0.00    +0.000 A 
ATOM      9  N   UNL     1      -2.182  13.684  21.213  0.00  0.00    +0.000 N 
ENDROOT
BRANCH   1  15
ATOM     10  C   UNL     1       1.984   6.782  20.046  0.00  0.00    +0.000 C 
ATOM     11  C   UNL     1       1.450   8.153  20.399  0.00  0.00    +0.000 A 
ATOM     12  C   UNL     1       0.688   8.339  21.570  0.00  0.00    +0.000 A 
ATOM     13  C   UNL     1       0.311   9.681  21.587  0.00  0.00    +0.000 A 
ATOM     14  C   UNL     1      -0.530  10.154  22.690  0.00  0.00    +0.000 C 
ATOM     15  N   UNL     1       0.889  10.349  20.430  0.00  0.00    +0.000 N 
ATOM     16  N   UNL     1       1.584   9.307  19.700  0.00  0.00    +0.000 NA
ENDBRANCH   1  15
BRANCH   9  17
ATOM     17  C   UNL     1      -3.227  13.476  22.168  0.00  0.00    +0.000 A 
ATOM     18  C   UNL     1      -2.925  13.250  23.510  0.00  0.00    +0.000 A 
ATOM     19  C   UNL     1      -3.946  12.892  24.394  0.00  0.00    +0.000 A 
ATOM     20  C   UNL     1      -5.255  12.747  23.948  0.00  0.00    +0.000 A 
ATOM     21  C   UNL     1      -5.564  13.029  22.628  0.00  0.00    +0.000 A 
ATOM     22 CL   UNL     1      -7.165  12.798  22.044  0.00  0.00    +0.000 Cl
ATOM     23  C   UNL     1      -4.570  13.454  21.755  0.00  0.00    +0.000 A 
ENDBRANCH   9  17
BRANCH   7  24
ATOM     24  C   UNL     1       0.234  15.759  19.444  0.00  0.00    +0.000 A 
ATOM     25  C   UNL     1      -0.383  16.339  18.280  0.00  0.00    +0.000 A 
ATOM     26  C   UNL     1      -0.263  17.709  17.907  0.00  0.00    +0.000 A 
ATOM     27  C   UNL     1       0.577  18.541  18.621  0.00  0.00    +0.000 A 
ATOM     28  C   UNL     1       1.304  17.982  19.678  0.00  0.00    +0.000 A 
ATOM     29  C   UNL     1       1.123  16.614  20.101  0.00  0.00    +0.000 A 
ENDBRANCH   7  24
BRANCH   8  30
ATOM     30  C   UNL     1      -2.288  16.253  21.198  0.00  0.00    +0.000 A 
ATOM     31  C   UNL     1      -3.383  16.737  20.434  0.00  0.00    +0.000 A 
ATOM     32  C   UNL     1      -4.175  17.824  20.862  0.00  0.00    +0.000 A 
ATOM     33  C   UNL     1      -3.842  18.529  22.010  0.00  0.00    +0.000 A 
ATOM     34  C   UNL     1      -2.705  18.150  22.721  0.00  0.00    +0.000 A 
ATOM     35  C   UNL     1      -1.957  17.019  22.331  0.00  0.00    +0.000 A 
ENDBRANCH   8  30
TORSDOF 4
ENDMDL
MODEL 8
REMARK VINA RESULT:      -6.8      1.557      2.206
REMARK  Name = 
REMARK  6 active torsions:
REMARK  status: ('A' for Active; 'I' for Inactive)
REMARK    1  A    between atoms: C_1  and  C_2
REMARK    2  A    between atoms: C_4  and  C_5
REMARK    3  A    between atoms: N_6  and  C_7
REMARK    4  A    between atoms: C_13  and  C_14
REMARK    5  A    between atoms: C_20  and  C_21
REMARK    6  A    between atoms: N_27  and  C_28
REMARK                            x       y       z     vdW  Elec       q    Type
REMARK                         _______ _______ _______ _____ _____    ______ ____
ROOT
ATOM      1  C   UNL     1      -4.131  13.912  22.515  0.00  0.00    +0.000 A 
ATOM      2  N   UNL     1      -3.945  13.198  23.693  0.00  0.00    +0.000 NA
ATOM      3  C   UNL     1      -3.040  12.211  23.714  0.00  0.00    +0.000 A 
ATOM      4  N   UNL     1      -2.245  11.833  22.714  0.00  0.00    +0.000 NA
ATOM      5  C   UNL     1      -2.143  12.765  21.745  0.00  0.00    +0.000 A 
ATOM      6  C   UNL     1      -2.831  13.987  21.683  0.00  0.00    +0.000 A 
ATOM      7  C   UNL     1      -1.435  14.836  21.480  0.00  0.00    +0.000 A 
ATOM      8  C   UNL     1      -0.552  13.975  20.731  0.00  0.00    +0.000 A 
ATOM      9  N   UNL     1      -1.237  12.752  20.694  0.00  0.00    +0.000 N 
ENDROOT
BRANCH   1  15
ATOM     10  C   UNL     1      -7.539  10.718  20.334  0.00  0.00    +0.000 C 
ATOM     11  C   UNL     1      -6.886  11.973  20.869  0.00  0.00    +0.000 A 
ATOM     12  C   UNL     1      -7.268  13.237  20.378  0.00  0.00    +0.000 A 
ATOM     13  C   UNL     1      -6.462  14.173  21.025  0.00  0.00    +0.000 A 
ATOM     14  C   UNL     1      -6.622  15.588  20.678  0.00  0.00    +0.000 C 
ATOM     15  N   UNL     1      -5.598  13.479  21.968  0.00  0.00    +0.000 N 
ATOM     16  N   UNL     1      -5.903  12.073  21.799  0.00  0.00    +0.000 NA
ENDBRANCH   1  15
BRANCH   9  17
ATOM     17  C   UNL     1      -0.917  11.630  19.867  0.00  0.00    +0.000 A 
ATOM     18  C   UNL     1       0.239  10.885  20.100  0.00  0.00    +0.000 A 
ATOM     19  C   UNL     1       0.615   9.896  19.188  0.00  0.00    +0.000 A 
ATOM     20  C   UNL     1      -0.141   9.656  18.046  0.00  0.00    +0.000 A 
ATOM     21  C   UNL     1      -1.320  10.355  17.846  0.00  0.00    +0.000 A 
ATOM     22 CL   UNL     1      -2.237  10.115  16.411  0.00  0.00    +0.000 Cl
ATOM     23  C   UNL     1      -1.742  11.293  18.781  0.00  0.00    +0.000 A 
ENDBRANCH   9  17
BRANCH   7  24
ATOM     24  C   UNL     1      -0.760  16.173  21.852  0.00  0.00    +0.000 A 
ATOM     25  C   UNL     1       0.067  16.243  23.027  0.00  0.00    +0.000 A 
ATOM     26  C   UNL     1       1.160  17.142  23.188  0.00  0.00    +0.000 A 
ATOM     27  C   UNL     1       1.406  18.099  22.222  0.00  0.00    +0.000 A 
ATOM     28  C   UNL     1       0.538  18.156  21.126  0.00  0.00    +0.000 A 
ATOM     29  C   UNL     1      -0.521  17.195  20.929  0.00  0.00    +0.000 A 
ENDBRANCH   7  24
BRANCH   8  30
ATOM     30  C   UNL     1       0.879  14.121  20.184  0.00  0.00    +0.000 A 
ATOM     31  C   UNL     1       1.138  14.558  18.858  0.00  0.00    +0.000 A 
ATOM     32  C   UNL     1       2.430  14.933  18.430  0.00  0.00    +0.000 A 
ATOM     33  C   UNL     1       3.521  14.788  19.275  0.00  0.00    +0.000 A 
ATOM     34  C   UNL     1       3.317  14.253  20.545  0.00  0.00    +0.000 A 
ATOM     35  C   UNL     1       2.015  13.947  20.996  0.00  0.00    +0.000 A 
ENDBRANCH   8  30
TORSDOF 4
ENDMDL
MODEL 9
REMARK VINA RESULT:      -6.8      0.831      1.183
REMARK  Name = 
REMARK  6 active torsions:
REMARK  status: ('A' for Active; 'I' for Inactive)
REMARK    1  A    between atoms: C_1  and  C_2
REMARK    2  A    between atoms: C_4  and  C_5
REMARK    3  A    between atoms: N_6  and  C_7
REMARK    4  A    between atoms: C_13  and  C_14
REMARK    5  A    between atoms: C_20  and  C_21
REMARK    6  A    between atoms: N_27  and  C_28
REMARK                            x       y       z     vdW  Elec       q    Type
REMARK                         _______ _______ _______ _____ _____    ______ ____
ROOT
ATOM      1  C   UNL     1      -4.191  13.951  21.115  0.00  0.00    +0.000 A 
ATOM      2  N   UNL     1      -4.252  13.964  22.503  0.00  0.00    +0.000 NA
ATOM      3  C   UNL     1      -3.315  13.305  23.197  0.00  0.00    +0.000 A 
ATOM      4  N   UNL     1      -2.275  12.636  22.702  0.00  0.00    +0.000 NA
ATOM      5  C   UNL     1      -2.001  12.966  21.423  0.00  0.00    +0.000 A 
ATOM      6  C   UNL     1      -2.734  13.845  20.610  0.00  0.00    +0.000 A 
ATOM      7  C   UNL     1      -1.392  14.723  20.239  0.00  0.00    +0.000 A 
ATOM      8  C   UNL     1      -0.296  13.785  20.222  0.00  0.00    +0.000 A 
ATOM      9  N   UNL     1      -0.866  12.602  20.713  0.00  0.00    +0.000 N 
ENDROOT
BRANCH   1  15
ATOM     10  C   UNL     1      -7.915  10.441  21.726  0.00  0.00    +0.000 C 
ATOM     11  C   UNL     1      -6.919  11.380  21.083  0.00  0.00    +0.000 A 
ATOM     12  C   UNL     1      -6.467  11.145  19.770  0.00  0.00    +0.000 A 
ATOM     13  C   UNL     1      -5.536  12.144  19.487  0.00  0.00    +0.000 A 
ATOM     14  C   UNL     1      -4.868  12.126  18.183  0.00  0.00    +0.000 C 
ATOM     15  N   UNL     1      -5.446  13.041  20.630  0.00  0.00    +0.000 N 
ATOM     16  N   UNL     1      -6.338  12.480  21.624  0.00  0.00    +0.000 NA
ENDBRANCH   1  15
BRANCH   9  17
ATOM     17  C   UNL     1      -0.277  11.299  20.669  0.00  0.00    +0.000 A 
ATOM     18  C   UNL     1       0.019  10.616  21.848  0.00  0.00    +0.000 A 
ATOM     19  C   UNL     1       0.737   9.419  21.788  0.00  0.00    +0.000 A 
ATOM     20  C   UNL     1       1.169   8.910  20.568  0.00  0.00    +0.000 A 
ATOM     21  C   UNL     1       0.824   9.558  19.394  0.00  0.00    +0.000 A 
ATOM     22 CL   UNL     1       1.400   8.976  17.881  0.00  0.00    +0.000 Cl
ATOM     23  C   UNL     1       0.051  10.712  19.436  0.00  0.00    +0.000 A 
ENDBRANCH   9  17
BRANCH   7  24
ATOM     24  C   UNL     1      -0.922  16.167  19.965  0.00  0.00    +0.000 A 
ATOM     25  C   UNL     1      -0.248  16.898  21.005  0.00  0.00    +0.000 A 
ATOM     26  C   UNL     1       0.709  17.927  20.771  0.00  0.00    +0.000 A 
ATOM     27  C   UNL     1       0.953  18.355  19.481  0.00  0.00    +0.000 A 
ATOM     28  C   UNL     1       0.215  17.765  18.449  0.00  0.00    +0.000 A 
ATOM     29  C   UNL     1      -0.698  16.670  18.681  0.00  0.00    +0.000 A 
ENDBRANCH   7  24
BRANCH   8  30
ATOM     30  C   UNL     1       1.213  13.904  19.940  0.00  0.00    +0.000 A 
ATOM     31  C   UNL     1       1.737  13.884  18.620  0.00  0.00    +0.000 A 
ATOM     32  C   UNL     1       3.073  14.240  18.338  0.00  0.00    +0.000 A 
ATOM     33  C   UNL     1       3.958  14.527  19.368  0.00  0.00    +0.000 A 
ATOM     34  C   UNL     1       3.503  14.443  20.682  0.00  0.00    +0.000 A 
ATOM     35  C   UNL     1       2.150  14.158  20.959  0.00  0.00    +0.000 A 
ENDBRANCH   8  30
TORSDOF 4
ENDMDL
