MODEL 1
REMARK VINA RESULT:      -7.4      0.000      0.000
REMARK  Name = 
REMARK  4 active torsions:
REMARK  status: ('A' for Active; 'I' for Inactive)
REMARK    1  A    between atoms: C_1  and  O_2
REMARK    2  A    between atoms: O_2  and  C_3
REMARK    3  A    between atoms: C_6  and  N_7
REMARK    4  A    between atoms: C_12  and  C_13
REMARK                            x       y       z     vdW  Elec       q    Type
REMARK                         _______ _______ _______ _____ _____    ______ ____
ROOT
ATOM      1  N   UNL     1       1.833   7.371  21.200  0.00  0.00    +0.000 N 
ATOM      2  C   UNL     1       0.957   8.483  21.148  0.00  0.00    +0.000 A 
ATOM      3  C   UNL     1       0.527   9.019  22.361  0.00  0.00    +0.000 A 
ATOM      4  C   UNL     1      -0.312  10.131  22.281  0.00  0.00    +0.000 A 
ATOM      5  N   UNL     1      -0.909  10.884  23.267  0.00  0.00    +0.000 N 
ATOM      6  C   UNL     1      -1.650  11.893  22.706  0.00  0.00    +0.000 A 
ATOM      7  C   UNL     1      -1.540  11.784  21.338  0.00  0.00    +0.000 A 
ATOM      8  C   UNL     1      -0.687  10.683  21.057  0.00  0.00    +0.000 A 
ATOM      9  C   UNL     1      -0.195  10.096  19.889  0.00  0.00    +0.000 A 
ATOM     10  N   UNL     1       0.607   9.006  19.951  0.00  0.00    +0.000 NA
ATOM     11  H   UNL     1       2.715   7.672  21.598  0.00  0.00    +0.000 HD
ATOM     12  H   UNL     1      -0.811  10.719  24.257  0.00  0.00    +0.000 HD
ENDROOT
BRANCH   1  16
ATOM     13  C   UNL     1       2.156   4.538  18.077  0.00  0.00    +0.000 A 
ATOM     14  C   UNL     1       1.567   4.186  19.293  0.00  0.00    +0.000 A 
ATOM     15  C   UNL     1       1.464   5.119  20.330  0.00  0.00    +0.000 A 
ATOM     16  C   UNL     1       1.990   6.408  20.182  0.00  0.00    +0.000 A 
ATOM     17  C   UNL     1       2.588   6.743  18.961  0.00  0.00    +0.000 A 
ATOM     18  C   UNL     1       2.674   5.820  17.916  0.00  0.00    +0.000 A 
BRANCH  13  20
ATOM     19  C   UNL     1       2.616   2.272  17.604  0.00  0.00    +0.000 C 
ATOM     20  O   UNL     1       2.197   3.549  17.132  0.00  0.00    +0.000 OA
ENDBRANCH  13  20
ENDBRANCH   1  16
BRANCH   6  21
ATOM     21  C   UNL     1      -2.414  12.914  23.449  0.00  0.00    +0.000 A 
ATOM     22  C   UNL     1      -2.016  14.211  23.825  0.00  0.00    +0.000 A 
ATOM     23  N   UNL     1      -2.966  14.855  24.511  0.00  0.00    +0.000 NA
ATOM     24  N   UNL     1      -3.968  13.960  24.573  0.00  0.00    +0.000 N 
ATOM     25  C   UNL     1      -3.693  12.781  23.938  0.00  0.00    +0.000 A 
ATOM     26  H   UNL     1      -4.815  14.224  25.070  0.00  0.00    +0.000 HD
ENDBRANCH   6  21
TORSDOF 3
ENDMDL
MODEL 2
REMARK VINA RESULT:      -7.4      4.227      9.283
REMARK  Name = 
REMARK  4 active torsions:
REMARK  status: ('A' for Active; 'I' for Inactive)
REMARK    1  A    between atoms: C_1  and  O_2
REMARK    2  A    between atoms: O_2  and  C_3
REMARK    3  A    between atoms: C_6  and  N_7
REMARK    4  A    between atoms: C_12  and  C_13
REMARK                            x       y       z     vdW  Elec       q    Type
REMARK                         _______ _______ _______ _____ _____    ______ ____
ROOT
ATOM      1  N   UNL     1       0.317  10.824  20.282  0.00  0.00    +0.000 N 
ATOM      2  C   UNL     1       1.078   9.782  19.697  0.00  0.00    +0.000 A 
ATOM      3  C   UNL     1       1.300   8.640  20.466  0.00  0.00    +0.000 A 
ATOM      4  C   UNL     1       2.029   7.618  19.857  0.00  0.00    +0.000 A 
ATOM      5  N   UNL     1       2.422   6.386  20.327  0.00  0.00    +0.000 N 
ATOM      6  C   UNL     1       3.123   5.713  19.360  0.00  0.00    +0.000 A 
ATOM      7  C   UNL     1       3.194   6.526  18.251  0.00  0.00    +0.000 A 
ATOM      8  C   UNL     1       2.495   7.727  18.548  0.00  0.00    +0.000 A 
ATOM      9  C   UNL     1       2.211   8.897  17.840  0.00  0.00    +0.000 A 
ATOM     10  N   UNL     1       1.520   9.905  18.425  0.00  0.00    +0.000 NA
ATOM     11  H   UNL     1      -0.633  10.495  20.414  0.00  0.00    +0.000 HD
ATOM     12  H   UNL     1       2.220   6.029  21.249  0.00  0.00    +0.000 HD
ENDROOT
BRANCH   1  16
ATOM     13  C   UNL     1       0.609  14.860  19.054  0.00  0.00    +0.000 A 
ATOM     14  C   UNL     1       1.511  14.336  19.981  0.00  0.00    +0.000 A 
ATOM     15  C   UNL     1       1.414  13.002  20.394  0.00  0.00    +0.000 A 
ATOM     16  C   UNL     1       0.383  12.184  19.918  0.00  0.00    +0.000 A 
ATOM     17  C   UNL     1      -0.522  12.727  18.996  0.00  0.00    +0.000 A 
ATOM     18  C   UNL     1      -0.415  14.052  18.567  0.00  0.00    +0.000 A 
BRANCH  13  20
ATOM     19  C   UNL     1       2.096  16.486  18.209  0.00  0.00    +0.000 C 
ATOM     20  O   UNL     1       0.803  16.172  18.717  0.00  0.00    +0.000 OA
ENDBRANCH  13  20
ENDBRANCH   1  16
BRANCH   6  21
ATOM     21  C   UNL     1       3.685   4.354  19.491  0.00  0.00    +0.000 A 
ATOM     22  C   UNL     1       3.146   3.239  20.161  0.00  0.00    +0.000 A 
ATOM     23  N   UNL     1       3.944   2.169  20.090  0.00  0.00    +0.000 NA
ATOM     24  N   UNL     1       4.995   2.610  19.376  0.00  0.00    +0.000 N 
ATOM     25  C   UNL     1       4.883   3.914  18.979  0.00  0.00    +0.000 A 
ATOM     26  H   UNL     1       5.758   1.962  19.198  0.00  0.00    +0.000 HD
ENDBRANCH   6  21
TORSDOF 3
ENDMDL
MODEL 3
REMARK VINA RESULT:      -7.4      8.519     10.939
REMARK  Name = 
REMARK  4 active torsions:
REMARK  status: ('A' for Active; 'I' for Inactive)
REMARK    1  A    between atoms: C_1  and  O_2
REMARK    2  A    between atoms: O_2  and  C_3
REMARK    3  A    between atoms: C_6  and  N_7
REMARK    4  A    between atoms: C_12  and  C_13
REMARK                            x       y       z     vdW  Elec       q    Type
REMARK                         _______ _______ _______ _____ _____    ______ ____
ROOT
ATOM      1  N   UNL     1       8.098   9.223  17.402  0.00  0.00    +0.000 N 
ATOM      2  C   UNL     1       7.561   7.986  17.836  0.00  0.00    +0.000 A 
ATOM      3  C   UNL     1       6.328   7.602  17.310  0.00  0.00    +0.000 A 
ATOM      4  C   UNL     1       5.835   6.368  17.732  0.00  0.00    +0.000 A 
ATOM      5  N   UNL     1       4.669   5.706  17.418  0.00  0.00    +0.000 N 
ATOM      6  C   UNL     1       4.616   4.505  18.077  0.00  0.00    +0.000 A 
ATOM      7  C   UNL     1       5.758   4.393  18.839  0.00  0.00    +0.000 A 
ATOM      8  C   UNL     1       6.541   5.557  18.619  0.00  0.00    +0.000 A 
ATOM      9  C   UNL     1       7.779   6.009  19.083  0.00  0.00    +0.000 A 
ATOM     10  N   UNL     1       8.263   7.214  18.695  0.00  0.00    +0.000 NA
ATOM     11  H   UNL     1       8.327   9.148  16.417  0.00  0.00    +0.000 HD
ATOM     12  H   UNL     1       3.960   6.053  16.789  0.00  0.00    +0.000 HD
ENDROOT
BRANCH   1  16
ATOM     13  C   UNL     1      10.749  11.702  19.574  0.00  0.00    +0.000 A 
ATOM     14  C   UNL     1      10.767  11.698  18.178  0.00  0.00    +0.000 A 
ATOM     15  C   UNL     1       9.896  10.874  17.456  0.00  0.00    +0.000 A 
ATOM     16  C   UNL     1       9.022  10.008  18.123  0.00  0.00    +0.000 A 
ATOM     17  C   UNL     1       9.021  10.015  19.523  0.00  0.00    +0.000 A 
ATOM     18  C   UNL     1       9.876  10.851  20.246  0.00  0.00    +0.000 A 
BRANCH  13  20
ATOM     19  C   UNL     1      12.333  13.428  19.293  0.00  0.00    +0.000 C 
ATOM     20  O   UNL     1      11.638  12.551  20.174  0.00  0.00    +0.000 OA
ENDBRANCH  13  20
ENDBRANCH   1  16
BRANCH   6  21
ATOM     21  C   UNL     1       3.528   3.512  17.972  0.00  0.00    +0.000 A 
ATOM     22  C   UNL     1       2.146   3.734  17.818  0.00  0.00    +0.000 A 
ATOM     23  N   UNL     1       1.450   2.592  17.778  0.00  0.00    +0.000 NA
ATOM     24  N   UNL     1       2.396   1.645  17.912  0.00  0.00    +0.000 N 
ATOM     25  C   UNL     1       3.664   2.144  18.019  0.00  0.00    +0.000 A 
ATOM     26  H   UNL     1       2.100   0.672  17.925  0.00  0.00    +0.000 HD
ENDBRANCH   6  21
TORSDOF 3
ENDMDL
MODEL 4
REMARK VINA RESULT:      -7.4      4.306      9.338
REMARK  Name = 
REMARK  4 active torsions:
REMARK  status: ('A' for Active; 'I' for Inactive)
REMARK    1  A    between atoms: C_1  and  O_2
REMARK    2  A    between atoms: O_2  and  C_3
REMARK    3  A    between atoms: C_6  and  N_7
REMARK    4  A    between atoms: C_12  and  C_13
REMARK                            x       y       z     vdW  Elec       q    Type
REMARK                         _______ _______ _______ _____ _____    ______ ____
ROOT
ATOM      1  N   UNL     1       0.424  10.776  20.159  0.00  0.00    +0.000 N 
ATOM      2  C   UNL     1       1.149   9.698  19.595  0.00  0.00    +0.000 A 
ATOM      3  C   UNL     1       1.396   8.594  20.410  0.00  0.00    +0.000 A 
ATOM      4  C   UNL     1       2.088   7.535  19.822  0.00  0.00    +0.000 A 
ATOM      5  N   UNL     1       2.493   6.325  20.337  0.00  0.00    +0.000 N 
ATOM      6  C   UNL     1       3.143   5.596  19.375  0.00  0.00    +0.000 A 
ATOM      7  C   UNL     1       3.170   6.351  18.224  0.00  0.00    +0.000 A 
ATOM      8  C   UNL     1       2.496   7.572  18.490  0.00  0.00    +0.000 A 
ATOM      9  C   UNL     1       2.189   8.708  17.737  0.00  0.00    +0.000 A 
ATOM     10  N   UNL     1       1.533   9.752  18.300  0.00  0.00    +0.000 NA
ATOM     11  H   UNL     1      -0.522  10.465  20.350  0.00  0.00    +0.000 HD
ATOM     12  H   UNL     1       2.329   6.017  21.284  0.00  0.00    +0.000 HD
ENDROOT
BRANCH   1  16
ATOM     13  C   UNL     1       0.523  14.841  18.995  0.00  0.00    +0.000 A 
ATOM     14  C   UNL     1      -0.508  14.006  18.562  0.00  0.00    +0.000 A 
ATOM     15  C   UNL     1      -0.541  12.659  18.940  0.00  0.00    +0.000 A 
ATOM     16  C   UNL     1       0.484  12.116  19.723  0.00  0.00    +0.000 A 
ATOM     17  C   UNL     1       1.518  12.962  20.141  0.00  0.00    +0.000 A 
ATOM     18  C   UNL     1       1.543  14.312  19.782  0.00  0.00    +0.000 A 
BRANCH  13  20
ATOM     19  C   UNL     1       1.570  16.954  18.905  0.00  0.00    +0.000 C 
ATOM     20  O   UNL     1       0.450  16.139  18.570  0.00  0.00    +0.000 OA
ENDBRANCH  13  20
ENDBRANCH   1  16
BRANCH   6  21
ATOM     21  C   UNL     1       3.700   4.240  19.551  0.00  0.00    +0.000 A 
ATOM     22  C   UNL     1       3.122   3.128  20.193  0.00  0.00    +0.000 A 
ATOM     23  N   UNL     1       3.927   2.060  20.179  0.00  0.00    +0.000 NA
ATOM     24  N   UNL     1       5.019   2.499  19.529  0.00  0.00    +0.000 N 
ATOM     25  C   UNL     1       4.929   3.800  19.118  0.00  0.00    +0.000 A 
ATOM     26  H   UNL     1       5.794   1.852  19.404  0.00  0.00    +0.000 HD
ENDBRANCH   6  21
TORSDOF 3
ENDMDL
MODEL 5
REMARK VINA RESULT:      -7.3      0.629      1.182
REMARK  Name = 
REMARK  4 active torsions:
REMARK  status: ('A' for Active; 'I' for Inactive)
REMARK    1  A    between atoms: C_1  and  O_2
REMARK    2  A    between atoms: O_2  and  C_3
REMARK    3  A    between atoms: C_6  and  N_7
REMARK    4  A    between atoms: C_12  and  C_13
REMARK                            x       y       z     vdW  Elec       q    Type
REMARK                         _______ _______ _______ _____ _____    ______ ____
ROOT
ATOM      1  N   UNL     1       1.841   7.497  21.211  0.00  0.00    +0.000 N 
ATOM      2  C   UNL     1       0.961   8.606  21.154  0.00  0.00    +0.000 A 
ATOM      3  C   UNL     1       0.445   9.079  22.360  0.00  0.00    +0.000 A 
ATOM      4  C   UNL     1      -0.396  10.188  22.278  0.00  0.00    +0.000 A 
ATOM      5  N   UNL     1      -1.065  10.888  23.257  0.00  0.00    +0.000 N 
ATOM      6  C   UNL     1      -1.775  11.920  22.698  0.00  0.00    +0.000 A 
ATOM      7  C   UNL     1      -1.572  11.880  21.337  0.00  0.00    +0.000 A 
ATOM      8  C   UNL     1      -0.693  10.799  21.061  0.00  0.00    +0.000 A 
ATOM      9  C   UNL     1      -0.117  10.274  19.901  0.00  0.00    +0.000 A 
ATOM     10  N   UNL     1       0.688   9.185  19.963  0.00  0.00    +0.000 NA
ATOM     11  H   UNL     1       2.691   7.783  21.683  0.00  0.00    +0.000 HD
ATOM     12  H   UNL     1      -1.033  10.675  24.243  0.00  0.00    +0.000 HD
ENDROOT
BRANCH   1  16
ATOM     13  C   UNL     1       2.683   4.714  18.140  0.00  0.00    +0.000 A 
ATOM     14  C   UNL     1       3.115   6.037  18.034  0.00  0.00    +0.000 A 
ATOM     15  C   UNL     1       2.833   6.962  19.046  0.00  0.00    +0.000 A 
ATOM     16  C   UNL     1       2.074   6.587  20.160  0.00  0.00    +0.000 A 
ATOM     17  C   UNL     1       1.637   5.259  20.247  0.00  0.00    +0.000 A 
ATOM     18  C   UNL     1       1.935   4.329  19.249  0.00  0.00    +0.000 A 
BRANCH  13  20
ATOM     19  C   UNL     1       4.382   3.969  16.682  0.00  0.00    +0.000 C 
ATOM     20  O   UNL     1       3.021   3.896  17.096  0.00  0.00    +0.000 OA
ENDBRANCH  13  20
ENDBRANCH   1  16
BRANCH   6  21
ATOM     21  C   UNL     1      -2.597  12.899  23.436  0.00  0.00    +0.000 A 
ATOM     22  C   UNL     1      -2.290  14.232  23.769  0.00  0.00    +0.000 A 
ATOM     23  N   UNL     1      -3.269  14.819  24.466  0.00  0.00    +0.000 NA
ATOM     24  N   UNL     1      -4.197  13.852  24.577  0.00  0.00    +0.000 N 
ATOM     25  C   UNL     1      -3.848  12.681  23.964  0.00  0.00    +0.000 A 
ATOM     26  H   UNL     1      -5.049  14.063  25.092  0.00  0.00    +0.000 HD
ENDBRANCH   6  21
TORSDOF 3
ENDMDL
MODEL 6
REMARK VINA RESULT:      -7.2      4.055      9.113
REMARK  Name = 
REMARK  4 active torsions:
REMARK  status: ('A' for Active; 'I' for Inactive)
REMARK    1  A    between atoms: C_1  and  O_2
REMARK    2  A    between atoms: O_2  and  C_3
REMARK    3  A    between atoms: C_6  and  N_7
REMARK    4  A    between atoms: C_12  and  C_13
REMARK                            x       y       z     vdW  Elec       q    Type
REMARK                         _______ _______ _______ _____ _____    ______ ____
ROOT
ATOM      1  N   UNL     1      -0.122  11.068  18.321  0.00  0.00    +0.000 N 
ATOM      2  C   UNL     1       0.498   9.931  18.897  0.00  0.00    +0.000 A 
ATOM      3  C   UNL     1       1.452   9.264  18.131  0.00  0.00    +0.000 A 
ATOM      4  C   UNL     1       2.067   8.165  18.732  0.00  0.00    +0.000 A 
ATOM      5  N   UNL     1       3.028   7.299  18.261  0.00  0.00    +0.000 N 
ATOM      6  C   UNL     1       3.332   6.366  19.218  0.00  0.00    +0.000 A 
ATOM      7  C   UNL     1       2.549   6.625  20.320  0.00  0.00    +0.000 A 
ATOM      8  C   UNL     1       1.755   7.766  20.030  0.00  0.00    +0.000 A 
ATOM      9  C   UNL     1       0.801   8.503  20.736  0.00  0.00    +0.000 A 
ATOM     10  N   UNL     1       0.183   9.563  20.159  0.00  0.00    +0.000 NA
ATOM     11  H   UNL     1       0.576  11.795  18.211  0.00  0.00    +0.000 HD
ATOM     12  H   UNL     1       3.450   7.348  17.345  0.00  0.00    +0.000 HD
ENDROOT
BRANCH   1  16
ATOM     13  C   UNL     1      -3.941  12.453  19.498  0.00  0.00    +0.000 A 
ATOM     14  C   UNL     1      -3.804  11.601  18.401  0.00  0.00    +0.000 A 
ATOM     15  C   UNL     1      -2.541  11.145  18.005  0.00  0.00    +0.000 A 
ATOM     16  C   UNL     1      -1.390  11.572  18.676  0.00  0.00    +0.000 A 
ATOM     17  C   UNL     1      -1.541  12.436  19.768  0.00  0.00    +0.000 A 
ATOM     18  C   UNL     1      -2.802  12.876  20.177  0.00  0.00    +0.000 A 
BRANCH  13  20
ATOM     19  C   UNL     1      -6.099  11.766  20.161  0.00  0.00    +0.000 C 
ATOM     20  O   UNL     1      -5.222  12.828  19.799  0.00  0.00    +0.000 OA
ENDBRANCH  13  20
ENDBRANCH   1  16
BRANCH   6  21
ATOM     21  C   UNL     1       4.333   5.289  19.083  0.00  0.00    +0.000 A 
ATOM     22  C   UNL     1       5.724   5.398  18.896  0.00  0.00    +0.000 A 
ATOM     23  N   UNL     1       6.318   4.204  18.795  0.00  0.00    +0.000 NA
ATOM     24  N   UNL     1       5.297   3.336  18.915  0.00  0.00    +0.000 N 
ATOM     25  C   UNL     1       4.083   3.936  19.104  0.00  0.00    +0.000 A 
ATOM     26  H   UNL     1       5.505   2.342  18.855  0.00  0.00    +0.000 HD
ENDBRANCH   6  21
TORSDOF 3
ENDMDL
MODEL 7
REMARK VINA RESULT:      -7.2      2.661      3.240
REMARK  Name = 
REMARK  4 active torsions:
REMARK  status: ('A' for Active; 'I' for Inactive)
REMARK    1  A    between atoms: C_1  and  O_2
REMARK    2  A    between atoms: O_2  and  C_3
REMARK    3  A    between atoms: C_6  and  N_7
REMARK    4  A    between atoms: C_12  and  C_13
REMARK                            x       y       z     vdW  Elec       q    Type
REMARK                         _______ _______ _______ _____ _____    ______ ____
ROOT
ATOM      1  N   UNL     1       1.925   6.772  21.005  0.00  0.00    +0.000 N 
ATOM      2  C   UNL     1       1.628   7.952  20.279  0.00  0.00    +0.000 A 
ATOM      3  C   UNL     1       1.036   9.003  20.978  0.00  0.00    +0.000 A 
ATOM      4  C   UNL     1       0.779  10.163  20.247  0.00  0.00    +0.000 A 
ATOM      5  N   UNL     1       0.209  11.359  20.621  0.00  0.00    +0.000 N 
ATOM      6  C   UNL     1       0.169  12.218  19.553  0.00  0.00    +0.000 A 
ATOM      7  C   UNL     1       0.710  11.564  18.469  0.00  0.00    +0.000 A 
ATOM      8  C   UNL     1       1.111  10.270  18.897  0.00  0.00    +0.000 A 
ATOM      9  C   UNL     1       1.721   9.177  18.278  0.00  0.00    +0.000 A 
ATOM     10  N   UNL     1       1.960   8.037  18.972  0.00  0.00    +0.000 NA
ATOM     11  H   UNL     1       2.649   6.983  21.682  0.00  0.00    +0.000 HD
ATOM     12  H   UNL     1      -0.125  11.573  21.549  0.00  0.00    +0.000 HD
ENDROOT
BRANCH   1  16
ATOM     13  C   UNL     1       2.347   2.847  19.490  0.00  0.00    +0.000 A 
ATOM     14  C   UNL     1       3.408   3.751  19.417  0.00  0.00    +0.000 A 
ATOM     15  C   UNL     1       3.270   5.053  19.912  0.00  0.00    +0.000 A 
ATOM     16  C   UNL     1       2.051   5.483  20.448  0.00  0.00    +0.000 A 
ATOM     17  C   UNL     1       0.992   4.568  20.506  0.00  0.00    +0.000 A 
ATOM     18  C   UNL     1       1.134   3.262  20.031  0.00  0.00    +0.000 A 
BRANCH  13  20
ATOM     19  C   UNL     1       3.753   1.499  18.157  0.00  0.00    +0.000 C 
ATOM     20  O   UNL     1       2.597   1.601  18.983  0.00  0.00    +0.000 OA
ENDBRANCH  13  20
ENDBRANCH   1  16
BRANCH   6  21
ATOM     21  C   UNL     1      -0.353  13.598  19.578  0.00  0.00    +0.000 A 
ATOM     22  C   UNL     1       0.147  14.740  18.923  0.00  0.00    +0.000 A 
ATOM     23  N   UNL     1      -0.573  15.835  19.190  0.00  0.00    +0.000 NA
ATOM     24  N   UNL     1      -1.530  15.385  20.021  0.00  0.00    +0.000 N 
ATOM     25  C   UNL     1      -1.451  14.044  20.276  0.00  0.00    +0.000 A 
ATOM     26  H   UNL     1      -2.206  16.054  20.379  0.00  0.00    +0.000 HD
ENDBRANCH   6  21
TORSDOF 3
ENDMDL
MODEL 8
REMARK VINA RESULT:      -7.1      4.017      9.415
REMARK  Name = 
REMARK  4 active torsions:
REMARK  status: ('A' for Active; 'I' for Inactive)
REMARK    1  A    between atoms: C_1  and  O_2
REMARK    2  A    between atoms: O_2  and  C_3
REMARK    3  A    between atoms: C_6  and  N_7
REMARK    4  A    between atoms: C_12  and  C_13
REMARK                            x       y       z     vdW  Elec       q    Type
REMARK                         _______ _______ _______ _____ _____    ______ ____
ROOT
ATOM      1  N   UNL     1       1.258  10.567  18.267  0.00  0.00    +0.000 N 
ATOM      2  C   UNL     1       1.505   9.294  18.839  0.00  0.00    +0.000 A 
ATOM      3  C   UNL     1       2.009   8.301  18.000  0.00  0.00    +0.000 A 
ATOM      4  C   UNL     1       2.270   7.066  18.594  0.00  0.00    +0.000 A 
ATOM      5  N   UNL     1       2.755   5.893  18.063  0.00  0.00    +0.000 N 
ATOM      6  C   UNL     1       2.851   4.936  19.040  0.00  0.00    +0.000 A 
ATOM      7  C   UNL     1       2.411   5.494  20.219  0.00  0.00    +0.000 A 
ATOM      8  C   UNL     1       2.053   6.843  19.953  0.00  0.00    +0.000 A 
ATOM      9  C   UNL     1       1.566   7.899  20.727  0.00  0.00    +0.000 A 
ATOM     10  N   UNL     1       1.292   9.099  20.160  0.00  0.00    +0.000 NA
ATOM     11  H   UNL     1       2.145  10.977  17.996  0.00  0.00    +0.000 HD
ATOM     12  H   UNL     1       3.007   5.759  17.094  0.00  0.00    +0.000 HD
ENDROOT
BRANCH   1  16
ATOM     13  C   UNL     1      -1.482  13.344  19.898  0.00  0.00    +0.000 A 
ATOM     14  C   UNL     1      -1.939  12.178  19.283  0.00  0.00    +0.000 A 
ATOM     15  C   UNL     1      -1.035  11.259  18.737  0.00  0.00    +0.000 A 
ATOM     16  C   UNL     1       0.340  11.517  18.759  0.00  0.00    +0.000 A 
ATOM     17  C   UNL     1       0.783  12.697  19.369  0.00  0.00    +0.000 A 
ATOM     18  C   UNL     1      -0.115  13.605  19.933  0.00  0.00    +0.000 A 
BRANCH  13  20
ATOM     19  C   UNL     1      -2.482  14.275  21.822  0.00  0.00    +0.000 C 
ATOM     20  O   UNL     1      -2.454  14.166  20.402  0.00  0.00    +0.000 OA
ENDBRANCH  13  20
ENDBRANCH   1  16
BRANCH   6  21
ATOM     21  C   UNL     1       3.351   3.560  18.851  0.00  0.00    +0.000 A 
ATOM     22  C   UNL     1       2.905   2.577  17.947  0.00  0.00    +0.000 A 
ATOM     23  N   UNL     1       3.581   1.430  18.068  0.00  0.00    +0.000 NA
ATOM     24  N   UNL     1       4.457   1.686  19.056  0.00  0.00    +0.000 N 
ATOM     25  C   UNL     1       4.370   2.958  19.553  0.00  0.00    +0.000 A 
ATOM     26  H   UNL     1       5.086   0.941  19.344  0.00  0.00    +0.000 HD
ENDBRANCH   6  21
TORSDOF 3
ENDMDL
MODEL 9
REMARK VINA RESULT:      -7.0      4.026      9.533
REMARK  Name = 
REMARK  4 active torsions:
REMARK  status: ('A' for Active; 'I' for Inactive)
REMARK    1  A    between atoms: C_1  and  O_2
REMARK    2  A    between atoms: O_2  and  C_3
REMARK    3  A    between atoms: C_6  and  N_7
REMARK    4  A    between atoms: C_12  and  C_13
REMARK                            x       y       z     vdW  Elec       q    Type
REMARK                         _______ _______ _______ _____ _____    ______ ____
ROOT
ATOM      1  N   UNL     1       0.443  11.246  18.567  0.00  0.00    +0.000 N 
ATOM      2  C   UNL     1       1.057   9.988  18.777  0.00  0.00    +0.000 A 
ATOM      3  C   UNL     1       1.933   9.529  17.794  0.00  0.00    +0.000 A 
ATOM      4  C   UNL     1       2.547   8.300  18.038  0.00  0.00    +0.000 A 
ATOM      5  N   UNL     1       3.441   7.572  17.287  0.00  0.00    +0.000 N 
ATOM      6  C   UNL     1       3.775   6.414  17.941  0.00  0.00    +0.000 A 
ATOM      7  C   UNL     1       3.077   6.387  19.128  0.00  0.00    +0.000 A 
ATOM      8  C   UNL     1       2.308   7.579  19.207  0.00  0.00    +0.000 A 
ATOM      9  C   UNL     1       1.431   8.120  20.150  0.00  0.00    +0.000 A 
ATOM     10  N   UNL     1       0.815   9.305  19.918  0.00  0.00    +0.000 NA
ATOM     11  H   UNL     1       1.158  11.965  18.598  0.00  0.00    +0.000 HD
ATOM     12  H   UNL     1       3.802   7.853  16.387  0.00  0.00    +0.000 HD
ENDROOT
BRANCH   1  16
ATOM     13  C   UNL     1      -3.218  12.631  20.169  0.00  0.00    +0.000 A 
ATOM     14  C   UNL     1      -2.011  12.915  20.812  0.00  0.00    +0.000 A 
ATOM     15  C   UNL     1      -0.799  12.453  20.288  0.00  0.00    +0.000 A 
ATOM     16  C   UNL     1      -0.780  11.662  19.134  0.00  0.00    +0.000 A 
ATOM     17  C   UNL     1      -1.998  11.376  18.506  0.00  0.00    +0.000 A 
ATOM     18  C   UNL     1      -3.208  11.852  19.016  0.00  0.00    +0.000 A 
BRANCH  13  20
ATOM     19  C   UNL     1      -4.400  12.983  22.181  0.00  0.00    +0.000 C 
ATOM     20  O   UNL     1      -4.339  13.139  20.766  0.00  0.00    +0.000 OA
ENDBRANCH  13  20
ENDBRANCH   1  16
BRANCH   6  21
ATOM     21  C   UNL     1       4.724   5.393  17.455  0.00  0.00    +0.000 A 
ATOM     22  C   UNL     1       6.094   5.533  17.163  0.00  0.00    +0.000 A 
ATOM     23  N   UNL     1       6.638   4.394  16.722  0.00  0.00    +0.000 NA
ATOM     24  N   UNL     1       5.606   3.531  16.731  0.00  0.00    +0.000 N 
ATOM     25  C   UNL     1       4.435   4.078  17.176  0.00  0.00    +0.000 A 
ATOM     26  H   UNL     1       5.776   2.579  16.415  0.00  0.00    +0.000 HD
ENDBRANCH   6  21
TORSDOF 3
ENDMDL
