MODEL 1
REMARK VINA RESULT:      -6.6      0.000      0.000
REMARK  Name = 
REMARK  3 active torsions:
REMARK  status: ('A' for Active; 'I' for Inactive)
REMARK    1  A    between atoms: C_1  and  C_2
REMARK    2  A    between atoms: C_5  and  N_6
REMARK    3  A    between atoms: C_7  and  C_8
REMARK                            x       y       z     vdW  Elec       q    Type
REMARK                         _______ _______ _______ _____ _____    ______ ____
ROOT
ATOM      1  N   UNL     1       4.039   4.774  17.584  0.00  0.00    +0.000 N 
ATOM      2  C   UNL     1       3.460   5.936  18.113  0.00  0.00    +0.000 A 
ATOM      3  C   UNL     1       3.781   7.289  17.498  0.00  0.00    +0.000 C 
ATOM      4  N   UNL     1       2.592   5.975  19.089  0.00  0.00    +0.000 NA
ATOM      5  C   UNL     1       2.226   4.736  19.609  0.00  0.00    +0.000 A 
ATOM      6  C   UNL     1       1.287   4.560  20.650  0.00  0.00    +0.000 A 
ATOM      7  C   UNL     1       1.130   3.219  20.954  0.00  0.00    +0.000 A 
ATOM      8  S   UNL     1       2.114   2.215  19.963  0.00  0.00    +0.000 S 
ATOM      9  C   UNL     1       2.731   3.563  19.137  0.00  0.00    +0.000 A 
ATOM     10  C   UNL     1       3.682   3.497  18.068  0.00  0.00    +0.000 A 
ATOM     11  O   UNL     1       4.148   2.439  17.643  0.00  0.00    +0.000 OA
ENDROOT
BRANCH   1  16
ATOM     12  C   UNL     1       7.869   4.930  13.316  0.00  0.00    +0.000 C 
ATOM     13  C   UNL     1       6.870   4.873  14.433  0.00  0.00    +0.000 A 
ATOM     14  C   UNL     1       5.537   4.535  14.182  0.00  0.00    +0.000 A 
ATOM     15  C   UNL     1       4.610   4.494  15.225  0.00  0.00    +0.000 A 
ATOM     16  C   UNL     1       5.000   4.811  16.532  0.00  0.00    +0.000 A 
ATOM     17  C   UNL     1       6.339   5.127  16.792  0.00  0.00    +0.000 A 
ATOM     18  C   UNL     1       7.266   5.159  15.746  0.00  0.00    +0.000 A 
ENDBRANCH   1  16
TORSDOF 1
ENDMDL
MODEL 2
REMARK VINA RESULT:      -6.5      1.457      1.636
REMARK  Name = 
REMARK  3 active torsions:
REMARK  status: ('A' for Active; 'I' for Inactive)
REMARK    1  A    between atoms: C_1  and  C_2
REMARK    2  A    between atoms: C_5  and  N_6
REMARK    3  A    between atoms: C_7  and  C_8
REMARK                            x       y       z     vdW  Elec       q    Type
REMARK                         _______ _______ _______ _____ _____    ______ ____
ROOT
ATOM      1  N   UNL     1       4.290   4.270  17.924  0.00  0.00    +0.000 N 
ATOM      2  C   UNL     1       4.812   4.640  19.171  0.00  0.00    +0.000 A 
ATOM      3  C   UNL     1       6.139   5.379  19.247  0.00  0.00    +0.000 C 
ATOM      4  N   UNL     1       4.226   4.456  20.324  0.00  0.00    +0.000 NA
ATOM      5  C   UNL     1       2.971   3.853  20.264  0.00  0.00    +0.000 A 
ATOM      6  C   UNL     1       2.165   3.588  21.394  0.00  0.00    +0.000 A 
ATOM      7  C   UNL     1       0.977   2.984  21.023  0.00  0.00    +0.000 A 
ATOM      8  S   UNL     1       0.869   2.766  19.321  0.00  0.00    +0.000 S 
ATOM      9  C   UNL     1       2.390   3.482  19.090  0.00  0.00    +0.000 A 
ATOM     10  C   UNL     1       3.015   3.674  17.816  0.00  0.00    +0.000 A 
ATOM     11  O   UNL     1       2.497   3.333  16.752  0.00  0.00    +0.000 OA
ENDROOT
BRANCH   1  16
ATOM     12  C   UNL     1       7.144   5.063  13.011  0.00  0.00    +0.000 C 
ATOM     13  C   UNL     1       6.411   4.859  14.304  0.00  0.00    +0.000 A 
ATOM     14  C   UNL     1       6.435   3.618  14.949  0.00  0.00    +0.000 A 
ATOM     15  C   UNL     1       5.743   3.433  16.147  0.00  0.00    +0.000 A 
ATOM     16  C   UNL     1       5.000   4.480  16.706  0.00  0.00    +0.000 A 
ATOM     17  C   UNL     1       4.993   5.730  16.075  0.00  0.00    +0.000 A 
ATOM     18  C   UNL     1       5.694   5.915  14.880  0.00  0.00    +0.000 A 
ENDBRANCH   1  16
TORSDOF 1
ENDMDL
MODEL 3
REMARK VINA RESULT:      -6.5      1.453      1.639
REMARK  Name = 
REMARK  3 active torsions:
REMARK  status: ('A' for Active; 'I' for Inactive)
REMARK    1  A    between atoms: C_1  and  C_2
REMARK    2  A    between atoms: C_5  and  N_6
REMARK    3  A    between atoms: C_7  and  C_8
REMARK                            x       y       z     vdW  Elec       q    Type
REMARK                         _______ _______ _______ _____ _____    ______ ____
ROOT
ATOM      1  N   UNL     1       4.307   4.259  17.920  0.00  0.00    +0.000 N 
ATOM      2  C   UNL     1       4.824   4.637  19.167  0.00  0.00    +0.000 A 
ATOM      3  C   UNL     1       6.153   5.373  19.243  0.00  0.00    +0.000 C 
ATOM      4  N   UNL     1       4.231   4.466  20.318  0.00  0.00    +0.000 NA
ATOM      5  C   UNL     1       2.975   3.866  20.257  0.00  0.00    +0.000 A 
ATOM      6  C   UNL     1       2.162   3.613  21.384  0.00  0.00    +0.000 A 
ATOM      7  C   UNL     1       0.974   3.009  21.013  0.00  0.00    +0.000 A 
ATOM      8  S   UNL     1       0.874   2.778  19.312  0.00  0.00    +0.000 S 
ATOM      9  C   UNL     1       2.399   3.486  19.083  0.00  0.00    +0.000 A 
ATOM     10  C   UNL     1       3.030   3.666  17.810  0.00  0.00    +0.000 A 
ATOM     11  O   UNL     1       2.517   3.317  16.747  0.00  0.00    +0.000 OA
ENDROOT
BRANCH   1  16
ATOM     12  C   UNL     1       7.196   5.105  13.037  0.00  0.00    +0.000 C 
ATOM     13  C   UNL     1       6.427   4.882  14.305  0.00  0.00    +0.000 A 
ATOM     14  C   UNL     1       5.701   5.922  14.892  0.00  0.00    +0.000 A 
ATOM     15  C   UNL     1       4.995   5.708  16.078  0.00  0.00    +0.000 A 
ATOM     16  C   UNL     1       5.023   4.456  16.704  0.00  0.00    +0.000 A 
ATOM     17  C   UNL     1       5.730   3.406  16.106  0.00  0.00    +0.000 A 
ATOM     18  C   UNL     1       6.429   3.620  14.915  0.00  0.00    +0.000 A 
ENDBRANCH   1  16
TORSDOF 1
ENDMDL
MODEL 4
REMARK VINA RESULT:      -6.5      0.049      1.140
REMARK  Name = 
REMARK  3 active torsions:
REMARK  status: ('A' for Active; 'I' for Inactive)
REMARK    1  A    between atoms: C_1  and  C_2
REMARK    2  A    between atoms: C_5  and  N_6
REMARK    3  A    between atoms: C_7  and  C_8
REMARK                            x       y       z     vdW  Elec       q    Type
REMARK                         _______ _______ _______ _____ _____    ______ ____
ROOT
ATOM      1  N   UNL     1       4.053   4.761  17.593  0.00  0.00    +0.000 N 
ATOM      2  C   UNL     1       3.506   5.928  18.147  0.00  0.00    +0.000 A 
ATOM      3  C   UNL     1       3.840   7.281  17.540  0.00  0.00    +0.000 C 
ATOM      4  N   UNL     1       2.659   5.970  19.140  0.00  0.00    +0.000 NA
ATOM      5  C   UNL     1       2.280   4.732  19.654  0.00  0.00    +0.000 A 
ATOM      6  C   UNL     1       1.359   4.562  20.711  0.00  0.00    +0.000 A 
ATOM      7  C   UNL     1       1.183   3.221  21.003  0.00  0.00    +0.000 A 
ATOM      8  S   UNL     1       2.128   2.211  19.982  0.00  0.00    +0.000 S 
ATOM      9  C   UNL     1       2.754   3.556  19.159  0.00  0.00    +0.000 A 
ATOM     10  C   UNL     1       3.682   3.485  18.071  0.00  0.00    +0.000 A 
ATOM     11  O   UNL     1       4.120   2.424  17.625  0.00  0.00    +0.000 OA
ENDROOT
BRANCH   1  16
ATOM     12  C   UNL     1       7.881   4.875  13.322  0.00  0.00    +0.000 C 
ATOM     13  C   UNL     1       6.878   4.862  14.437  0.00  0.00    +0.000 A 
ATOM     14  C   UNL     1       7.266   5.152  15.749  0.00  0.00    +0.000 A 
ATOM     15  C   UNL     1       6.328   5.128  16.783  0.00  0.00    +0.000 A 
ATOM     16  C   UNL     1       4.994   4.792  16.524  0.00  0.00    +0.000 A 
ATOM     17  C   UNL     1       4.598   4.524  15.208  0.00  0.00    +0.000 A 
ATOM     18  C   UNL     1       5.536   4.557  14.173  0.00  0.00    +0.000 A 
ENDBRANCH   1  16
TORSDOF 1
ENDMDL
MODEL 5
REMARK VINA RESULT:      -6.4      2.485      3.608
REMARK  Name = 
REMARK  3 active torsions:
REMARK  status: ('A' for Active; 'I' for Inactive)
REMARK    1  A    between atoms: C_1  and  C_2
REMARK    2  A    between atoms: C_5  and  N_6
REMARK    3  A    between atoms: C_7  and  C_8
REMARK                            x       y       z     vdW  Elec       q    Type
REMARK                         _______ _______ _______ _____ _____    ______ ____
ROOT
ATOM      1  N   UNL     1       5.249   5.031  17.867  0.00  0.00    +0.000 N 
ATOM      2  C   UNL     1       5.290   4.074  16.843  0.00  0.00    +0.000 A 
ATOM      3  C   UNL     1       6.414   4.108  15.819  0.00  0.00    +0.000 C 
ATOM      4  N   UNL     1       4.457   3.078  16.702  0.00  0.00    +0.000 NA
ATOM      5  C   UNL     1       3.469   2.985  17.679  0.00  0.00    +0.000 A 
ATOM      6  C   UNL     1       2.487   1.970  17.720  0.00  0.00    +0.000 A 
ATOM      7  C   UNL     1       1.644   2.139  18.803  0.00  0.00    +0.000 A 
ATOM      8  S   UNL     1       2.073   3.514  19.744  0.00  0.00    +0.000 S 
ATOM      9  C   UNL     1       3.374   3.866  18.713  0.00  0.00    +0.000 A 
ATOM     10  C   UNL     1       4.277   4.963  18.888  0.00  0.00    +0.000 A 
ATOM     11  O   UNL     1       4.190   5.767  19.817  0.00  0.00    +0.000 OA
ENDROOT
BRANCH   1  16
ATOM     12  C   UNL     1       8.955   9.400  18.163  0.00  0.00    +0.000 C 
ATOM     13  C   UNL     1       7.993   8.253  18.072  0.00  0.00    +0.000 A 
ATOM     14  C   UNL     1       6.834   8.353  17.296  0.00  0.00    +0.000 A 
ATOM     15  C   UNL     1       5.938   7.285  17.224  0.00  0.00    +0.000 A 
ATOM     16  C   UNL     1       6.180   6.107  17.943  0.00  0.00    +0.000 A 
ATOM     17  C   UNL     1       7.351   5.994  18.701  0.00  0.00    +0.000 A 
ATOM     18  C   UNL     1       8.250   7.063  18.766  0.00  0.00    +0.000 A 
ENDBRANCH   1  16
TORSDOF 1
ENDMDL
MODEL 6
REMARK VINA RESULT:      -6.2      2.428      3.651
REMARK  Name = 
REMARK  3 active torsions:
REMARK  status: ('A' for Active; 'I' for Inactive)
REMARK    1  A    between atoms: C_1  and  C_2
REMARK    2  A    between atoms: C_5  and  N_6
REMARK    3  A    between atoms: C_7  and  C_8
REMARK                            x       y       z     vdW  Elec       q    Type
REMARK                         _______ _______ _______ _____ _____    ______ ____
ROOT
ATOM      1  N   UNL     1       5.108   4.976  17.858  0.00  0.00    +0.000 N 
ATOM      2  C   UNL     1       5.131   4.006  16.846  0.00  0.00    +0.000 A 
ATOM      3  C   UNL     1       6.243   4.021  15.808  0.00  0.00    +0.000 C 
ATOM      4  N   UNL     1       4.291   3.013  16.728  0.00  0.00    +0.000 NA
ATOM      5  C   UNL     1       3.314   2.938  17.719  0.00  0.00    +0.000 A 
ATOM      6  C   UNL     1       2.328   1.929  17.785  0.00  0.00    +0.000 A 
ATOM      7  C   UNL     1       1.499   2.117  18.877  0.00  0.00    +0.000 A 
ATOM      8  S   UNL     1       1.947   3.501  19.794  0.00  0.00    +0.000 S 
ATOM      9  C   UNL     1       3.238   3.832  18.743  0.00  0.00    +0.000 A 
ATOM     10  C   UNL     1       4.149   4.927  18.892  0.00  0.00    +0.000 A 
ATOM     11  O   UNL     1       4.079   5.743  19.812  0.00  0.00    +0.000 OA
ENDROOT
BRANCH   1  16
ATOM     12  C   UNL     1       8.921   9.257  18.074  0.00  0.00    +0.000 C 
ATOM     13  C   UNL     1       7.918   8.143  18.031  0.00  0.00    +0.000 A 
ATOM     14  C   UNL     1       8.146   6.950  18.725  0.00  0.00    +0.000 A 
ATOM     15  C   UNL     1       7.212   5.914  18.673  0.00  0.00    +0.000 A 
ATOM     16  C   UNL     1       6.046   6.048  17.909  0.00  0.00    +0.000 A 
ATOM     17  C   UNL     1       5.803   7.249  17.232  0.00  0.00    +0.000 A 
ATOM     18  C   UNL     1       6.736   8.288  17.293  0.00  0.00    +0.000 A 
ENDBRANCH   1  16
TORSDOF 1
ENDMDL
MODEL 7
REMARK VINA RESULT:      -6.1      2.479      6.111
REMARK  Name = 
REMARK  3 active torsions:
REMARK  status: ('A' for Active; 'I' for Inactive)
REMARK    1  A    between atoms: C_1  and  C_2
REMARK    2  A    between atoms: C_5  and  N_6
REMARK    3  A    between atoms: C_7  and  C_8
REMARK                            x       y       z     vdW  Elec       q    Type
REMARK                         _______ _______ _______ _____ _____    ______ ____
ROOT
ATOM      1  N   UNL     1       5.597   4.975  16.573  0.00  0.00    +0.000 N 
ATOM      2  C   UNL     1       6.775   5.735  16.553  0.00  0.00    +0.000 A 
ATOM      3  C   UNL     1       7.238   6.445  17.816  0.00  0.00    +0.000 C 
ATOM      4  N   UNL     1       7.582   5.858  15.533  0.00  0.00    +0.000 NA
ATOM      5  C   UNL     1       7.213   5.147  14.393  0.00  0.00    +0.000 A 
ATOM      6  C   UNL     1       7.960   5.130  13.195  0.00  0.00    +0.000 A 
ATOM      7  C   UNL     1       7.346   4.339  12.240  0.00  0.00    +0.000 A 
ATOM      8  S   UNL     1       5.891   3.634  12.827  0.00  0.00    +0.000 S 
ATOM      9  C   UNL     1       6.093   4.374  14.340  0.00  0.00    +0.000 A 
ATOM     10  C   UNL     1       5.196   4.224  15.446  0.00  0.00    +0.000 A 
ATOM     11  O   UNL     1       4.178   3.533  15.401  0.00  0.00    +0.000 OA
ENDROOT
BRANCH   1  16
ATOM     12  C   UNL     1       2.154   4.729  21.155  0.00  0.00    +0.000 C 
ATOM     13  C   UNL     1       3.064   4.804  19.965  0.00  0.00    +0.000 A 
ATOM     14  C   UNL     1       2.951   5.850  19.044  0.00  0.00    +0.000 A 
ATOM     15  C   UNL     1       3.795   5.907  17.933  0.00  0.00    +0.000 A 
ATOM     16  C   UNL     1       4.751   4.907  17.717  0.00  0.00    +0.000 A 
ATOM     17  C   UNL     1       4.883   3.871  18.650  0.00  0.00    +0.000 A 
ATOM     18  C   UNL     1       4.042   3.820  19.765  0.00  0.00    +0.000 A 
ENDBRANCH   1  16
TORSDOF 1
ENDMDL
MODEL 8
REMARK VINA RESULT:      -6.1      2.482      6.143
REMARK  Name = 
REMARK  3 active torsions:
REMARK  status: ('A' for Active; 'I' for Inactive)
REMARK    1  A    between atoms: C_1  and  C_2
REMARK    2  A    between atoms: C_5  and  N_6
REMARK    3  A    between atoms: C_7  and  C_8
REMARK                            x       y       z     vdW  Elec       q    Type
REMARK                         _______ _______ _______ _____ _____    ______ ____
ROOT
ATOM      1  N   UNL     1       5.581   4.985  16.531  0.00  0.00    +0.000 N 
ATOM      2  C   UNL     1       6.770   5.728  16.510  0.00  0.00    +0.000 A 
ATOM      3  C   UNL     1       7.244   6.435  17.770  0.00  0.00    +0.000 C 
ATOM      4  N   UNL     1       7.579   5.834  15.489  0.00  0.00    +0.000 NA
ATOM      5  C   UNL     1       7.200   5.124  14.352  0.00  0.00    +0.000 A 
ATOM      6  C   UNL     1       7.947   5.090  13.154  0.00  0.00    +0.000 A 
ATOM      7  C   UNL     1       7.322   4.305  12.202  0.00  0.00    +0.000 A 
ATOM      8  S   UNL     1       5.856   3.625  12.791  0.00  0.00    +0.000 S 
ATOM      9  C   UNL     1       6.069   4.368  14.302  0.00  0.00    +0.000 A 
ATOM     10  C   UNL     1       5.169   4.236  15.408  0.00  0.00    +0.000 A 
ATOM     11  O   UNL     1       4.140   3.560  15.364  0.00  0.00    +0.000 OA
ENDROOT
BRANCH   1  16
ATOM     12  C   UNL     1       2.205   4.752  21.164  0.00  0.00    +0.000 C 
ATOM     13  C   UNL     1       3.078   4.803  19.945  0.00  0.00    +0.000 A 
ATOM     14  C   UNL     1       4.023   3.803  19.702  0.00  0.00    +0.000 A 
ATOM     15  C   UNL     1       4.838   3.862  18.570  0.00  0.00    +0.000 A 
ATOM     16  C   UNL     1       4.733   4.935  17.676  0.00  0.00    +0.000 A 
ATOM     17  C   UNL     1       3.772   5.926  17.904  0.00  0.00    +0.000 A 
ATOM     18  C   UNL     1       2.951   5.860  19.034  0.00  0.00    +0.000 A 
ENDBRANCH   1  16
TORSDOF 1
ENDMDL
MODEL 9
REMARK VINA RESULT:      -6.1      3.100      6.105
REMARK  Name = 
REMARK  3 active torsions:
REMARK  status: ('A' for Active; 'I' for Inactive)
REMARK    1  A    between atoms: C_1  and  C_2
REMARK    2  A    between atoms: C_5  and  N_6
REMARK    3  A    between atoms: C_7  and  C_8
REMARK                            x       y       z     vdW  Elec       q    Type
REMARK                         _______ _______ _______ _____ _____    ______ ____
ROOT
ATOM      1  N   UNL     1       3.348   6.133  17.859  0.00  0.00    +0.000 N 
ATOM      2  C   UNL     1       2.870   4.844  17.586  0.00  0.00    +0.000 A 
ATOM      3  C   UNL     1       1.450   4.464  17.977  0.00  0.00    +0.000 C 
ATOM      4  N   UNL     1       3.528   3.910  16.952  0.00  0.00    +0.000 NA
ATOM      5  C   UNL     1       4.800   4.270  16.515  0.00  0.00    +0.000 A 
ATOM      6  C   UNL     1       5.662   3.414  15.794  0.00  0.00    +0.000 A 
ATOM      7  C   UNL     1       6.856   4.046  15.499  0.00  0.00    +0.000 A 
ATOM      8  S   UNL     1       6.894   5.659  16.095  0.00  0.00    +0.000 S 
ATOM      9  C   UNL     1       5.327   5.507  16.728  0.00  0.00    +0.000 A 
ATOM     10  C   UNL     1       4.624   6.546  17.419  0.00  0.00    +0.000 A 
ATOM     11  O   UNL     1       5.099   7.664  17.621  0.00  0.00    +0.000 OA
ENDROOT
BRANCH   1  16
ATOM     12  C   UNL     1       0.237  10.018  20.713  0.00  0.00    +0.000 C 
ATOM     13  C   UNL     1       1.063   9.012  19.969  0.00  0.00    +0.000 A 
ATOM     14  C   UNL     1       1.316   9.166  18.602  0.00  0.00    +0.000 A 
ATOM     15  C   UNL     1       2.079   8.220  17.914  0.00  0.00    +0.000 A 
ATOM     16  C   UNL     1       2.581   7.095  18.580  0.00  0.00    +0.000 A 
ATOM     17  C   UNL     1       2.350   6.949  19.952  0.00  0.00    +0.000 A 
ATOM     18  C   UNL     1       1.593   7.902  20.641  0.00  0.00    +0.000 A 
ENDBRANCH   1  16
TORSDOF 1
ENDMDL
