MODEL 1
REMARK VINA RESULT:      -8.0      0.000      0.000
REMARK  Name = 
REMARK  10 active torsions:
REMARK  status: ('A' for Active; 'I' for Inactive)
REMARK    1  A    between atoms: C_1  and  O_2
REMARK    2  A    between atoms: O_2  and  C_3
REMARK    3  A    between atoms: C_7  and  C_8
REMARK    4  A    between atoms: C_8  and  N_9
REMARK    5  A    between atoms: N_9  and  C_10
REMARK    6  A    between atoms: N_9  and  C_11
REMARK    7  A    between atoms: C_11  and  C_12
REMARK    8  A    between atoms: C_12  and  C_13
REMARK    9  A    between atoms: C_13  and  O_14
REMARK   10  A    between atoms: O_14  and  C_15
REMARK                            x       y       z     vdW  Elec       q    Type
REMARK                         _______ _______ _______ _____ _____    ______ ____
ROOT
ATOM      1  O   UNL     1       2.328   8.213  18.381  0.00  0.00    +0.000 OA
ENDROOT
BRANCH   1   2
ATOM      2  C   UNL     1       1.442   9.147  18.875  0.00  0.00    +0.000 A 
ATOM      3  C   UNL     1       0.465   9.714  18.033  0.00  0.00    +0.000 A 
ATOM      4  C   UNL     1      -0.546  10.631  18.518  0.00  0.00    +0.000 A 
ATOM      5  C   UNL     1      -0.583  11.015  19.863  0.00  0.00    +0.000 A 
ATOM      6  C   UNL     1      -1.618  11.782  20.667  0.00  0.00    +0.000 A 
ATOM      7  C   UNL     1      -1.536  11.573  21.997  0.00  0.00    +0.000 A 
ATOM      8  C   UNL     1      -0.457  10.744  22.576  0.00  0.00    +0.000 A 
ATOM      9  O   UNL     1      -0.554  10.149  23.648  0.00  0.00    +0.000 OA
ATOM     10  O   UNL     1       0.719  10.903  21.925  0.00  0.00    +0.000 OA
ATOM     11  C   UNL     1       0.497  10.516  20.611  0.00  0.00    +0.000 A 
ATOM     12  C   UNL     1       1.457   9.590  20.178  0.00  0.00    +0.000 A 
ATOM     13  C   UNL     1      -2.415  12.089  23.076  0.00  0.00    +0.000 C 
ATOM     14  C   UNL     1      -3.448  13.100  22.708  0.00  0.00    +0.000 C 
ATOM     15  C   UNL     1      -3.697  13.332  21.220  0.00  0.00    +0.000 C 
ATOM     16  C   UNL     1      -2.763  12.642  20.159  0.00  0.00    +0.000 C 
ENDBRANCH   1   2
BRANCH   1  17
ATOM     17  C   UNL     1       2.347   6.921  19.050  0.00  0.00    +0.000 C 
BRANCH  17  18
ATOM     18  C   UNL     1       2.455   5.781  18.030  0.00  0.00    +0.000 C 
BRANCH  18  19
ATOM     19  C   UNL     1       2.097   4.384  18.599  0.00  0.00    +0.000 C 
BRANCH  19  20
ATOM     20  N   UNL     1       3.126   3.331  18.437  0.00  0.00    +0.000 NA
ATOM     21  C   UNL     1       2.797   2.187  19.307  0.00  0.00    +0.000 C 
BRANCH  20  22
ATOM     22  C   UNL     1       4.464   3.853  18.764  0.00  0.00    +0.000 C 
BRANCH  22  27
ATOM     23  C   UNL     1       6.904   5.766  16.552  0.00  0.00    +0.000 A 
ATOM     24  C   UNL     1       6.673   5.167  15.312  0.00  0.00    +0.000 A 
ATOM     25  C   UNL     1       5.795   4.088  15.197  0.00  0.00    +0.000 A 
ATOM     26  C   UNL     1       5.109   3.628  16.319  0.00  0.00    +0.000 A 
ATOM     27  C   UNL     1       5.314   4.229  17.568  0.00  0.00    +0.000 A 
ATOM     28  C   UNL     1       6.248   5.272  17.680  0.00  0.00    +0.000 A 
BRANCH  23  30
ATOM     29  C   UNL     1       7.664   7.747  17.621  0.00  0.00    +0.000 C 
ATOM     30  O   UNL     1       7.749   6.841  16.528  0.00  0.00    +0.000 OA
ENDBRANCH  23  30
ENDBRANCH  22  27
ENDBRANCH  20  22
ENDBRANCH  19  20
ENDBRANCH  18  19
ENDBRANCH  17  18
ENDBRANCH   1  17
TORSDOF 8
ENDMDL
MODEL 2
REMARK VINA RESULT:      -8.0      2.956      9.673
REMARK  Name = 
REMARK  10 active torsions:
REMARK  status: ('A' for Active; 'I' for Inactive)
REMARK    1  A    between atoms: C_1  and  O_2
REMARK    2  A    between atoms: O_2  and  C_3
REMARK    3  A    between atoms: C_7  and  C_8
REMARK    4  A    between atoms: C_8  and  N_9
REMARK    5  A    between atoms: N_9  and  C_10
REMARK    6  A    between atoms: N_9  and  C_11
REMARK    7  A    between atoms: C_11  and  C_12
REMARK    8  A    between atoms: C_12  and  C_13
REMARK    9  A    between atoms: C_13  and  O_14
REMARK   10  A    between atoms: O_14  and  C_15
REMARK                            x       y       z     vdW  Elec       q    Type
REMARK                         _______ _______ _______ _____ _____    ______ ____
ROOT
ATOM      1  O   UNL     1       1.083   7.823  21.239  0.00  0.00    +0.000 OA
ENDROOT
BRANCH   1   2
ATOM      2  C   UNL     1       1.801   7.352  20.160  0.00  0.00    +0.000 A 
ATOM      3  C   UNL     1       2.080   8.199  19.069  0.00  0.00    +0.000 A 
ATOM      4  C   UNL     1       2.903   7.785  17.951  0.00  0.00    +0.000 A 
ATOM      5  C   UNL     1       3.447   6.497  17.897  0.00  0.00    +0.000 A 
ATOM      6  C   UNL     1       4.479   5.874  16.973  0.00  0.00    +0.000 A 
ATOM      7  C   UNL     1       5.079   4.782  17.488  0.00  0.00    +0.000 A 
ATOM      8  C   UNL     1       4.664   4.225  18.794  0.00  0.00    +0.000 A 
ATOM      9  O   UNL     1       5.404   3.561  19.519  0.00  0.00    +0.000 OA
ATOM     10  O   UNL     1       3.329   4.318  18.991  0.00  0.00    +0.000 OA
ATOM     11  C   UNL     1       3.018   5.670  18.949  0.00  0.00    +0.000 A 
ATOM     12  C   UNL     1       2.265   6.060  20.065  0.00  0.00    +0.000 A 
ATOM     13  C   UNL     1       6.175   3.963  16.911  0.00  0.00    +0.000 C 
ATOM     14  C   UNL     1       6.599   4.254  15.511  0.00  0.00    +0.000 C 
ATOM     15  C   UNL     1       6.059   5.532  14.872  0.00  0.00    +0.000 C 
ATOM     16  C   UNL     1       4.974   6.381  15.629  0.00  0.00    +0.000 C 
ENDBRANCH   1   2
BRANCH   1  17
ATOM     17  C   UNL     1       0.043   8.799  20.949  0.00  0.00    +0.000 C 
BRANCH  17  18
ATOM     18  C   UNL     1       0.253  10.079  21.768  0.00  0.00    +0.000 C 
BRANCH  18  19
ATOM     19  C   UNL     1       1.046  11.183  21.026  0.00  0.00    +0.000 C 
BRANCH  19  20
ATOM     20  N   UNL     1       0.629  11.463  19.633  0.00  0.00    +0.000 NA
ATOM     21  C   UNL     1       1.689  12.226  18.947  0.00  0.00    +0.000 C 
BRANCH  20  22
ATOM     22  C   UNL     1      -0.638  12.214  19.608  0.00  0.00    +0.000 C 
BRANCH  22  27
ATOM     23  C   UNL     1      -4.102  11.399  18.249  0.00  0.00    +0.000 A 
ATOM     24  C   UNL     1      -3.826  10.285  17.453  0.00  0.00    +0.000 A 
ATOM     25  C   UNL     1      -2.513   9.843  17.281  0.00  0.00    +0.000 A 
ATOM     26  C   UNL     1      -1.470  10.489  17.941  0.00  0.00    +0.000 A 
ATOM     27  C   UNL     1      -1.730  11.597  18.758  0.00  0.00    +0.000 A 
ATOM     28  C   UNL     1      -3.048  12.070  18.871  0.00  0.00    +0.000 A 
BRANCH  23  30
ATOM     29  C   UNL     1      -6.052  12.328  17.259  0.00  0.00    +0.000 C 
ATOM     30  O   UNL     1      -5.428  11.707  18.376  0.00  0.00    +0.000 OA
ENDBRANCH  23  30
ENDBRANCH  22  27
ENDBRANCH  20  22
ENDBRANCH  19  20
ENDBRANCH  18  19
ENDBRANCH  17  18
ENDBRANCH   1  17
TORSDOF 8
ENDMDL
MODEL 3
REMARK VINA RESULT:      -7.9      2.059      4.245
REMARK  Name = 
REMARK  10 active torsions:
REMARK  status: ('A' for Active; 'I' for Inactive)
REMARK    1  A    between atoms: C_1  and  O_2
REMARK    2  A    between atoms: O_2  and  C_3
REMARK    3  A    between atoms: C_7  and  C_8
REMARK    4  A    between atoms: C_8  and  N_9
REMARK    5  A    between atoms: N_9  and  C_10
REMARK    6  A    between atoms: N_9  and  C_11
REMARK    7  A    between atoms: C_11  and  C_12
REMARK    8  A    between atoms: C_12  and  C_13
REMARK    9  A    between atoms: C_13  and  O_14
REMARK   10  A    between atoms: O_14  and  C_15
REMARK                            x       y       z     vdW  Elec       q    Type
REMARK                         _______ _______ _______ _____ _____    ______ ____
ROOT
ATOM      1  O   UNL     1       3.801   6.999  17.318  0.00  0.00    +0.000 OA
ENDROOT
BRANCH   1   2
ATOM      2  C   UNL     1       2.904   7.565  18.199  0.00  0.00    +0.000 A 
ATOM      3  C   UNL     1       2.635   6.945  19.435  0.00  0.00    +0.000 A 
ATOM      4  C   UNL     1       1.770   7.539  20.433  0.00  0.00    +0.000 A 
ATOM      5  C   UNL     1       1.137   8.765  20.200  0.00  0.00    +0.000 A 
ATOM      6  C   UNL     1       0.360   9.692  21.117  0.00  0.00    +0.000 A 
ATOM      7  C   UNL     1       0.292  10.964  20.673  0.00  0.00    +0.000 A 
ATOM      8  C   UNL     1       0.855  11.347  19.360  0.00  0.00    +0.000 A 
ATOM      9  O   UNL     1       1.236  12.484  19.086  0.00  0.00    +0.000 OA
ATOM     10  O   UNL     1       0.685  10.382  18.427  0.00  0.00    +0.000 OA
ATOM     11  C   UNL     1       1.346   9.256  18.899  0.00  0.00    +0.000 A 
ATOM     12  C   UNL     1       2.215   8.727  17.936  0.00  0.00    +0.000 A 
ATOM     13  C   UNL     1      -0.315  12.148  21.331  0.00  0.00    +0.000 C 
ATOM     14  C   UNL     1      -1.101  11.925  22.578  0.00  0.00    +0.000 C 
ATOM     15  C   UNL     1      -1.006  10.544  23.224  0.00  0.00    +0.000 C 
ATOM     16  C   UNL     1      -0.239   9.390  22.480  0.00  0.00    +0.000 C 
ENDBRANCH   1   2
BRANCH   1  17
ATOM     17  C   UNL     1       5.055   7.712  17.123  0.00  0.00    +0.000 C 
BRANCH  17  18
ATOM     18  C   UNL     1       6.252   6.778  17.336  0.00  0.00    +0.000 C 
BRANCH  18  19
ATOM     19  C   UNL     1       5.866   5.332  17.737  0.00  0.00    +0.000 C 
BRANCH  19  20
ATOM     20  N   UNL     1       6.298   4.261  16.810  0.00  0.00    +0.000 NA
ATOM     21  C   UNL     1       6.669   4.855  15.512  0.00  0.00    +0.000 C 
BRANCH  20  22
ATOM     22  C   UNL     1       5.228   3.265  16.628  0.00  0.00    +0.000 C 
BRANCH  22  27
ATOM     23  C   UNL     1       2.993   3.016  19.702  0.00  0.00    +0.000 A 
ATOM     24  C   UNL     1       1.767   3.437  19.182  0.00  0.00    +0.000 A 
ATOM     25  C   UNL     1       1.672   3.884  17.863  0.00  0.00    +0.000 A 
ATOM     26  C   UNL     1       2.798   3.873  17.042  0.00  0.00    +0.000 A 
ATOM     27  C   UNL     1       4.032   3.437  17.542  0.00  0.00    +0.000 A 
ATOM     28  C   UNL     1       4.126   3.049  18.889  0.00  0.00    +0.000 A 
BRANCH  23  30
ATOM     29  C   UNL     1       1.769   2.841  21.731  0.00  0.00    +0.000 C 
ATOM     30  O   UNL     1       2.949   2.558  20.991  0.00  0.00    +0.000 OA
ENDBRANCH  23  30
ENDBRANCH  22  27
ENDBRANCH  20  22
ENDBRANCH  19  20
ENDBRANCH  18  19
ENDBRANCH  17  18
ENDBRANCH   1  17
TORSDOF 8
ENDMDL
MODEL 4
REMARK VINA RESULT:      -7.8      1.666      2.158
REMARK  Name = 
REMARK  10 active torsions:
REMARK  status: ('A' for Active; 'I' for Inactive)
REMARK    1  A    between atoms: C_1  and  O_2
REMARK    2  A    between atoms: O_2  and  C_3
REMARK    3  A    between atoms: C_7  and  C_8
REMARK    4  A    between atoms: C_8  and  N_9
REMARK    5  A    between atoms: N_9  and  C_10
REMARK    6  A    between atoms: N_9  and  C_11
REMARK    7  A    between atoms: C_11  and  C_12
REMARK    8  A    between atoms: C_12  and  C_13
REMARK    9  A    between atoms: C_13  and  O_14
REMARK   10  A    between atoms: O_14  and  C_15
REMARK                            x       y       z     vdW  Elec       q    Type
REMARK                         _______ _______ _______ _____ _____    ______ ____
ROOT
ATOM      1  O   UNL     1       2.270   6.550  20.118  0.00  0.00    +0.000 OA
ENDROOT
BRANCH   1   2
ATOM      2  C   UNL     1       1.821   7.853  20.156  0.00  0.00    +0.000 A 
ATOM      3  C   UNL     1       1.758   8.617  18.973  0.00  0.00    +0.000 A 
ATOM      4  C   UNL     1       1.214   9.958  18.940  0.00  0.00    +0.000 A 
ATOM      5  C   UNL     1       0.737  10.571  20.104  0.00  0.00    +0.000 A 
ATOM      6  C   UNL     1      -0.047  11.852  20.323  0.00  0.00    +0.000 A 
ATOM      7  C   UNL     1      -0.709  11.890  21.497  0.00  0.00    +0.000 A 
ATOM      8  C   UNL     1      -0.571  10.800  22.488  0.00  0.00    +0.000 A 
ATOM      9  O   UNL     1      -1.429  10.527  23.326  0.00  0.00    +0.000 OA
ATOM     10  O   UNL     1       0.685  10.299  22.530  0.00  0.00    +0.000 OA
ATOM     11  C   UNL     1       0.953   9.803  21.261  0.00  0.00    +0.000 A 
ATOM     12  C   UNL     1       1.431   8.487  21.313  0.00  0.00    +0.000 A 
ATOM     13  C   UNL     1      -1.625  12.936  22.017  0.00  0.00    +0.000 C 
ATOM     14  C   UNL     1      -1.742  14.205  21.243  0.00  0.00    +0.000 C 
ATOM     15  C   UNL     1      -1.118  14.232  19.850  0.00  0.00    +0.000 C 
ATOM     16  C   UNL     1      -0.253  13.012  19.363  0.00  0.00    +0.000 C 
ENDBRANCH   1   2
BRANCH   1  17
ATOM     17  C   UNL     1       1.395   5.546  20.707  0.00  0.00    +0.000 C 
BRANCH  17  18
ATOM     18  C   UNL     1       2.204   4.340  21.201  0.00  0.00    +0.000 C 
BRANCH  18  19
ATOM     19  C   UNL     1       2.534   3.304  20.097  0.00  0.00    +0.000 C 
BRANCH  19  20
ATOM     20  N   UNL     1       1.764   3.423  18.838  0.00  0.00    +0.000 NA
ATOM     21  C   UNL     1       0.725   2.377  18.798  0.00  0.00    +0.000 C 
BRANCH  20  22
ATOM     22  C   UNL     1       2.653   3.305  17.669  0.00  0.00    +0.000 C 
BRANCH  22  27
ATOM     23  C   UNL     1       6.086   4.896  18.105  0.00  0.00    +0.000 A 
ATOM     24  C   UNL     1       5.802   6.235  17.826  0.00  0.00    +0.000 A 
ATOM     25  C   UNL     1       4.524   6.619  17.414  0.00  0.00    +0.000 A 
ATOM     26  C   UNL     1       3.510   5.669  17.318  0.00  0.00    +0.000 A 
ATOM     27  C   UNL     1       3.772   4.323  17.611  0.00  0.00    +0.000 A 
ATOM     28  C   UNL     1       5.078   3.942  17.964  0.00  0.00    +0.000 A 
BRANCH  23  30
ATOM     29  C   UNL     1       8.030   5.725  19.191  0.00  0.00    +0.000 C 
ATOM     30  O   UNL     1       7.358   4.652  18.543  0.00  0.00    +0.000 OA
ENDBRANCH  23  30
ENDBRANCH  22  27
ENDBRANCH  20  22
ENDBRANCH  19  20
ENDBRANCH  18  19
ENDBRANCH  17  18
ENDBRANCH   1  17
TORSDOF 8
ENDMDL
MODEL 5
REMARK VINA RESULT:      -7.7      2.385      4.184
REMARK  Name = 
REMARK  10 active torsions:
REMARK  status: ('A' for Active; 'I' for Inactive)
REMARK    1  A    between atoms: C_1  and  O_2
REMARK    2  A    between atoms: O_2  and  C_3
REMARK    3  A    between atoms: C_7  and  C_8
REMARK    4  A    between atoms: C_8  and  N_9
REMARK    5  A    between atoms: N_9  and  C_10
REMARK    6  A    between atoms: N_9  and  C_11
REMARK    7  A    between atoms: C_11  and  C_12
REMARK    8  A    between atoms: C_12  and  C_13
REMARK    9  A    between atoms: C_13  and  O_14
REMARK   10  A    between atoms: O_14  and  C_15
REMARK                            x       y       z     vdW  Elec       q    Type
REMARK                         _______ _______ _______ _____ _____    ______ ____
ROOT
ATOM      1  O   UNL     1       3.682   6.042  18.234  0.00  0.00    +0.000 OA
ENDROOT
BRANCH   1   2
ATOM      2  C   UNL     1       2.788   6.815  18.946  0.00  0.00    +0.000 A 
ATOM      3  C   UNL     1       2.304   6.374  20.193  0.00  0.00    +0.000 A 
ATOM      4  C   UNL     1       1.434   7.183  21.022  0.00  0.00    +0.000 A 
ATOM      5  C   UNL     1       1.014   8.450  20.603  0.00  0.00    +0.000 A 
ATOM      6  C   UNL     1       0.287   9.565  21.331  0.00  0.00    +0.000 A 
ATOM      7  C   UNL     1       0.451  10.779  20.768  0.00  0.00    +0.000 A 
ATOM      8  C   UNL     1       1.199  10.940  19.501  0.00  0.00    +0.000 A 
ATOM      9  O   UNL     1       1.767  11.980  19.171  0.00  0.00    +0.000 OA
ATOM     10  O   UNL     1       0.990   9.911  18.647  0.00  0.00    +0.000 OA
ATOM     11  C   UNL     1       1.427   8.765  19.297  0.00  0.00    +0.000 A 
ATOM     12  C   UNL     1       2.307   8.023  18.496  0.00  0.00    +0.000 A 
ATOM     13  C   UNL     1      -0.043  12.098  21.236  0.00  0.00    +0.000 C 
ATOM     14  C   UNL     1      -0.980  12.118  22.396  0.00  0.00    +0.000 C 
ATOM     15  C   UNL     1      -1.154  10.815  23.173  0.00  0.00    +0.000 C 
ATOM     16  C   UNL     1      -0.490   9.496  22.636  0.00  0.00    +0.000 C 
ENDBRANCH   1   2
BRANCH   1  17
ATOM     17  C   UNL     1       3.582   4.602  18.418  0.00  0.00    +0.000 C 
BRANCH  17  18
ATOM     18  C   UNL     1       4.675   3.874  17.627  0.00  0.00    +0.000 C 
BRANCH  18  19
ATOM     19  C   UNL     1       6.104   4.423  17.867  0.00  0.00    +0.000 C 
BRANCH  19  20
ATOM     20  N   UNL     1       6.672   5.261  16.786  0.00  0.00    +0.000 NA
ATOM     21  C   UNL     1       7.080   6.566  17.340  0.00  0.00    +0.000 C 
BRANCH  20  22
ATOM     22  C   UNL     1       5.691   5.451  15.703  0.00  0.00    +0.000 C 
BRANCH  22  27
ATOM     23  C   UNL     1       5.801   3.500  12.433  0.00  0.00    +0.000 A 
ATOM     24  C   UNL     1       7.077   3.822  11.968  0.00  0.00    +0.000 A 
ATOM     25  C   UNL     1       7.876   4.735  12.660  0.00  0.00    +0.000 A 
ATOM     26  C   UNL     1       7.417   5.301  13.847  0.00  0.00    +0.000 A 
ATOM     27  C   UNL     1       6.145   4.975  14.339  0.00  0.00    +0.000 A 
ATOM     28  C   UNL     1       5.328   4.104  13.599  0.00  0.00    +0.000 A 
BRANCH  23  30
ATOM     29  C   UNL     1       3.902   2.963  11.110  0.00  0.00    +0.000 C 
ATOM     30  O   UNL     1       5.134   2.561  11.696  0.00  0.00    +0.000 OA
ENDBRANCH  23  30
ENDBRANCH  22  27
ENDBRANCH  20  22
ENDBRANCH  19  20
ENDBRANCH  18  19
ENDBRANCH  17  18
ENDBRANCH   1  17
TORSDOF 8
ENDMDL
MODEL 6
REMARK VINA RESULT:      -7.7      5.406      9.681
REMARK  Name = 
REMARK  10 active torsions:
REMARK  status: ('A' for Active; 'I' for Inactive)
REMARK    1  A    between atoms: C_1  and  O_2
REMARK    2  A    between atoms: O_2  and  C_3
REMARK    3  A    between atoms: C_7  and  C_8
REMARK    4  A    between atoms: C_8  and  N_9
REMARK    5  A    between atoms: N_9  and  C_10
REMARK    6  A    between atoms: N_9  and  C_11
REMARK    7  A    between atoms: C_11  and  C_12
REMARK    8  A    between atoms: C_12  and  C_13
REMARK    9  A    between atoms: C_13  and  O_14
REMARK   10  A    between atoms: O_14  and  C_15
REMARK                            x       y       z     vdW  Elec       q    Type
REMARK                         _______ _______ _______ _____ _____    ______ ____
ROOT
ATOM      1  O   UNL     1       8.123   7.785  17.368  0.00  0.00    +0.000 OA
ENDROOT
BRANCH   1   2
ATOM      2  C   UNL     1       7.092   6.870  17.392  0.00  0.00    +0.000 A 
ATOM      3  C   UNL     1       7.366   5.490  17.317  0.00  0.00    +0.000 A 
ATOM      4  C   UNL     1       6.332   4.482  17.426  0.00  0.00    +0.000 A 
ATOM      5  C   UNL     1       4.990   4.844  17.593  0.00  0.00    +0.000 A 
ATOM      6  C   UNL     1       3.757   4.023  17.926  0.00  0.00    +0.000 A 
ATOM      7  C   UNL     1       2.746   4.750  18.444  0.00  0.00    +0.000 A 
ATOM      8  C   UNL     1       2.844   6.220  18.563  0.00  0.00    +0.000 A 
ATOM      9  O   UNL     1       2.217   6.882  19.390  0.00  0.00    +0.000 OA
ATOM     10  O   UNL     1       3.503   6.778  17.522  0.00  0.00    +0.000 OA
ATOM     11  C   UNL     1       4.779   6.231  17.525  0.00  0.00    +0.000 A 
ATOM     12  C   UNL     1       5.766   7.225  17.471  0.00  0.00    +0.000 A 
ATOM     13  C   UNL     1       1.429   4.285  18.949  0.00  0.00    +0.000 C 
ATOM     14  C   UNL     1       1.068   2.854  18.737  0.00  0.00    +0.000 C 
ATOM     15  C   UNL     1       2.175   1.920  18.254  0.00  0.00    +0.000 C 
ATOM     16  C   UNL     1       3.572   2.517  17.847  0.00  0.00    +0.000 C 
ENDBRANCH   1   2
BRANCH   1  17
ATOM     17  C   UNL     1       7.786   9.150  17.747  0.00  0.00    +0.000 C 
BRANCH  17  18
ATOM     18  C   UNL     1       8.909   9.777  18.583  0.00  0.00    +0.000 C 
BRANCH  18  19
ATOM     19  C   UNL     1       9.229  11.247  18.214  0.00  0.00    +0.000 C 
BRANCH  19  20
ATOM     20  N   UNL     1      10.243  11.924  19.053  0.00  0.00    +0.000 NA
ATOM     21  C   UNL     1      11.592  11.592  18.558  0.00  0.00    +0.000 C 
BRANCH  20  22
ATOM     22  C   UNL     1      10.106  11.524  20.464  0.00  0.00    +0.000 C 
BRANCH  22  27
ATOM     23  C   UNL     1       9.817  14.876  22.251  0.00  0.00    +0.000 A 
ATOM     24  C   UNL     1       8.925  14.560  23.278  0.00  0.00    +0.000 A 
ATOM     25  C   UNL     1       8.347  13.291  23.351  0.00  0.00    +0.000 A 
ATOM     26  C   UNL     1       8.691  12.316  22.418  0.00  0.00    +0.000 A 
ATOM     27  C   UNL     1       9.597  12.609  21.390  0.00  0.00    +0.000 A 
ATOM     28  C   UNL     1      10.122  13.909  21.292  0.00  0.00    +0.000 A 
BRANCH  23  30
ATOM     29  C   UNL     1      11.079  16.576  21.174  0.00  0.00    +0.000 C 
ATOM     30  O   UNL     1      10.350  16.134  22.312  0.00  0.00    +0.000 OA
ENDBRANCH  23  30
ENDBRANCH  22  27
ENDBRANCH  20  22
ENDBRANCH  19  20
ENDBRANCH  18  19
ENDBRANCH  17  18
ENDBRANCH   1  17
TORSDOF 8
ENDMDL
MODEL 7
REMARK VINA RESULT:      -7.7      1.956      3.195
REMARK  Name = 
REMARK  10 active torsions:
REMARK  status: ('A' for Active; 'I' for Inactive)
REMARK    1  A    between atoms: C_1  and  O_2
REMARK    2  A    between atoms: O_2  and  C_3
REMARK    3  A    between atoms: C_7  and  C_8
REMARK    4  A    between atoms: C_8  and  N_9
REMARK    5  A    between atoms: N_9  and  C_10
REMARK    6  A    between atoms: N_9  and  C_11
REMARK    7  A    between atoms: C_11  and  C_12
REMARK    8  A    between atoms: C_12  and  C_13
REMARK    9  A    between atoms: C_13  and  O_14
REMARK   10  A    between atoms: O_14  and  C_15
REMARK                            x       y       z     vdW  Elec       q    Type
REMARK                         _______ _______ _______ _____ _____    ______ ____
ROOT
ATOM      1  O   UNL     1       1.890   4.522  20.448  0.00  0.00    +0.000 OA
ENDROOT
BRANCH   1   2
ATOM      2  C   UNL     1       1.870   5.884  20.231  0.00  0.00    +0.000 A 
ATOM      3  C   UNL     1       2.256   6.409  18.982  0.00  0.00    +0.000 A 
ATOM      4  C   UNL     1       2.171   7.821  18.669  0.00  0.00    +0.000 A 
ATOM      5  C   UNL     1       1.714   8.741  19.619  0.00  0.00    +0.000 A 
ATOM      6  C   UNL     1       1.342  10.209  19.505  0.00  0.00    +0.000 A 
ATOM      7  C   UNL     1       0.530  10.641  20.492  0.00  0.00    +0.000 A 
ATOM      8  C   UNL     1       0.147   9.753  21.610  0.00  0.00    +0.000 A 
ATOM      9  O   UNL     1      -0.886   9.887  22.265  0.00  0.00    +0.000 OA
ATOM     10  O   UNL     1       1.157   8.936  21.987  0.00  0.00    +0.000 OA
ATOM     11  C   UNL     1       1.474   8.165  20.878  0.00  0.00    +0.000 A 
ATOM     12  C   UNL     1       1.502   6.798  21.190  0.00  0.00    +0.000 A 
ATOM     13  C   UNL     1      -0.090  11.978  20.668  0.00  0.00    +0.000 C 
ATOM     14  C   UNL     1       0.331  13.069  19.742  0.00  0.00    +0.000 C 
ATOM     15  C   UNL     1       1.166  12.668  18.528  0.00  0.00    +0.000 C 
ATOM     16  C   UNL     1       1.679  11.187  18.392  0.00  0.00    +0.000 C 
ENDBRANCH   1   2
BRANCH   1  17
ATOM     17  C   UNL     1       0.870   3.742  19.763  0.00  0.00    +0.000 C 
BRANCH  17  18
ATOM     18  C   UNL     1       1.495   2.543  19.040  0.00  0.00    +0.000 C 
BRANCH  18  19
ATOM     19  C   UNL     1       2.391   2.924  17.835  0.00  0.00    +0.000 C 
BRANCH  19  20
ATOM     20  N   UNL     1       3.814   2.526  17.929  0.00  0.00    +0.000 NA
ATOM     21  C   UNL     1       3.904   1.126  18.384  0.00  0.00    +0.000 C 
BRANCH  20  22
ATOM     22  C   UNL     1       4.544   3.411  18.854  0.00  0.00    +0.000 C 
BRANCH  22  27
ATOM     23  C   UNL     1       6.539   5.244  16.177  0.00  0.00    +0.000 A 
ATOM     24  C   UNL     1       7.264   6.152  16.952  0.00  0.00    +0.000 A 
ATOM     25  C   UNL     1       7.052   6.236  18.330  0.00  0.00    +0.000 A 
ATOM     26  C   UNL     1       6.141   5.383  18.947  0.00  0.00    +0.000 A 
ATOM     27  C   UNL     1       5.417   4.453  18.187  0.00  0.00    +0.000 A 
ATOM     28  C   UNL     1       5.595   4.422  16.794  0.00  0.00    +0.000 A 
BRANCH  23  30
ATOM     29  C   UNL     1       6.282   4.194  14.061  0.00  0.00    +0.000 C 
ATOM     30  O   UNL     1       6.867   5.223  14.849  0.00  0.00    +0.000 OA
ENDBRANCH  23  30
ENDBRANCH  22  27
ENDBRANCH  20  22
ENDBRANCH  19  20
ENDBRANCH  18  19
ENDBRANCH  17  18
ENDBRANCH   1  17
TORSDOF 8
ENDMDL
MODEL 8
REMARK VINA RESULT:      -7.7      5.385      9.649
REMARK  Name = 
REMARK  10 active torsions:
REMARK  status: ('A' for Active; 'I' for Inactive)
REMARK    1  A    between atoms: C_1  and  O_2
REMARK    2  A    between atoms: O_2  and  C_3
REMARK    3  A    between atoms: C_7  and  C_8
REMARK    4  A    between atoms: C_8  and  N_9
REMARK    5  A    between atoms: N_9  and  C_10
REMARK    6  A    between atoms: N_9  and  C_11
REMARK    7  A    between atoms: C_11  and  C_12
REMARK    8  A    between atoms: C_12  and  C_13
REMARK    9  A    between atoms: C_13  and  O_14
REMARK   10  A    between atoms: O_14  and  C_15
REMARK                            x       y       z     vdW  Elec       q    Type
REMARK                         _______ _______ _______ _____ _____    ______ ____
ROOT
ATOM      1  O   UNL     1       7.761   7.398  16.959  0.00  0.00    +0.000 OA
ENDROOT
BRANCH   1   2
ATOM      2  C   UNL     1       6.665   6.574  17.108  0.00  0.00    +0.000 A 
ATOM      3  C   UNL     1       6.763   5.201  16.807  0.00  0.00    +0.000 A 
ATOM      4  C   UNL     1       5.673   4.274  17.028  0.00  0.00    +0.000 A 
ATOM      5  C   UNL     1       4.447   4.714  17.540  0.00  0.00    +0.000 A 
ATOM      6  C   UNL     1       3.233   3.956  18.046  0.00  0.00    +0.000 A 
ATOM      7  C   UNL     1       2.443   4.680  18.865  0.00  0.00    +0.000 A 
ATOM      8  C   UNL     1       2.726   6.107  19.135  0.00  0.00    +0.000 A 
ATOM      9  O   UNL     1       2.369   6.692  20.157  0.00  0.00    +0.000 OA
ATOM     10  O   UNL     1       3.201   6.752  18.045  0.00  0.00    +0.000 OA
ATOM     11  C   UNL     1       4.379   6.110  17.691  0.00  0.00    +0.000 A 
ATOM     12  C   UNL     1       5.434   7.020  17.531  0.00  0.00    +0.000 A 
ATOM     13  C   UNL     1       1.225   4.256  19.599  0.00  0.00    +0.000 C 
ATOM     14  C   UNL     1       0.671   2.903  19.305  0.00  0.00    +0.000 C 
ATOM     15  C   UNL     1       1.539   1.961  18.472  0.00  0.00    +0.000 C 
ATOM     16  C   UNL     1       2.871   2.496  17.831  0.00  0.00    +0.000 C 
ENDBRANCH   1   2
BRANCH   1  17
ATOM     17  C   UNL     1       8.304   7.980  18.178  0.00  0.00    +0.000 C 
BRANCH  17  18
ATOM     18  C   UNL     1       8.460   9.498  18.036  0.00  0.00    +0.000 C 
BRANCH  18  19
ATOM     19  C   UNL     1       9.047  10.196  19.288  0.00  0.00    +0.000 C 
BRANCH  19  20
ATOM     20  N   UNL     1       9.686  11.513  19.062  0.00  0.00    +0.000 NA
ATOM     21  C   UNL     1      10.542  11.444  17.864  0.00  0.00    +0.000 C 
BRANCH  20  22
ATOM     22  C   UNL     1      10.481  11.916  20.235  0.00  0.00    +0.000 C 
BRANCH  22  27
ATOM     23  C   UNL     1      10.692  15.716  20.397  0.00  0.00    +0.000 A 
ATOM     24  C   UNL     1      10.155  15.964  21.662  0.00  0.00    +0.000 A 
ATOM     25  C   UNL     1       9.644  14.918  22.434  0.00  0.00    +0.000 A 
ATOM     26  C   UNL     1       9.706  13.610  21.960  0.00  0.00    +0.000 A 
ATOM     27  C   UNL     1      10.258  13.340  20.701  0.00  0.00    +0.000 A 
ATOM     28  C   UNL     1      10.711  14.409  19.909  0.00  0.00    +0.000 A 
BRANCH  23  30
ATOM     29  C   UNL     1      10.684  18.079  20.148  0.00  0.00    +0.000 C 
ATOM     30  O   UNL     1      11.201  16.813  19.758  0.00  0.00    +0.000 OA
ENDBRANCH  23  30
ENDBRANCH  22  27
ENDBRANCH  20  22
ENDBRANCH  19  20
ENDBRANCH  18  19
ENDBRANCH  17  18
ENDBRANCH   1  17
TORSDOF 8
ENDMDL
MODEL 9
REMARK VINA RESULT:      -7.7      1.796      3.267
REMARK  Name = 
REMARK  10 active torsions:
REMARK  status: ('A' for Active; 'I' for Inactive)
REMARK    1  A    between atoms: C_1  and  O_2
REMARK    2  A    between atoms: O_2  and  C_3
REMARK    3  A    between atoms: C_7  and  C_8
REMARK    4  A    between atoms: C_8  and  N_9
REMARK    5  A    between atoms: N_9  and  C_10
REMARK    6  A    between atoms: N_9  and  C_11
REMARK    7  A    between atoms: C_11  and  C_12
REMARK    8  A    between atoms: C_12  and  C_13
REMARK    9  A    between atoms: C_13  and  O_14
REMARK   10  A    between atoms: O_14  and  C_15
REMARK                            x       y       z     vdW  Elec       q    Type
REMARK                         _______ _______ _______ _____ _____    ______ ____
ROOT
ATOM      1  O   UNL     1       1.428   8.540  17.572  0.00  0.00    +0.000 OA
ENDROOT
BRANCH   1   2
ATOM      2  C   UNL     1       0.671   9.445  18.285  0.00  0.00    +0.000 A 
ATOM      3  C   UNL     1      -0.483  10.015  17.711  0.00  0.00    +0.000 A 
ATOM      4  C   UNL     1      -1.363  10.901  18.444  0.00  0.00    +0.000 A 
ATOM      5  C   UNL     1      -1.088  11.251  19.771  0.00  0.00    +0.000 A 
ATOM      6  C   UNL     1      -1.916  11.979  20.816  0.00  0.00    +0.000 A 
ATOM      7  C   UNL     1      -1.522  11.739  22.083  0.00  0.00    +0.000 A 
ATOM      8  C   UNL     1      -0.328  10.915  22.370  0.00  0.00    +0.000 A 
ATOM      9  O   UNL     1      -0.164  10.292  23.419  0.00  0.00    +0.000 OA
ATOM     10  O   UNL     1       0.661  11.112  21.468  0.00  0.00    +0.000 OA
ATOM     11  C   UNL     1       0.143  10.753  20.231  0.00  0.00    +0.000 A 
ATOM     12  C   UNL     1       0.985   9.856  19.560  0.00  0.00    +0.000 A 
ATOM     13  C   UNL     1      -2.130  12.212  23.352  0.00  0.00    +0.000 C 
ATOM     14  C   UNL     1      -3.233  13.212  23.265  0.00  0.00    +0.000 C 
ATOM     15  C   UNL     1      -3.826  13.477  21.882  0.00  0.00    +0.000 C 
ATOM     16  C   UNL     1      -3.158  12.830  20.614  0.00  0.00    +0.000 C 
ENDBRANCH   1   2
BRANCH   1  17
ATOM     17  C   UNL     1       2.855   8.523  17.856  0.00  0.00    +0.000 C 
BRANCH  17  18
ATOM     18  C   UNL     1       3.331   7.101  18.176  0.00  0.00    +0.000 C 
BRANCH  18  19
ATOM     19  C   UNL     1       4.478   6.596  17.265  0.00  0.00    +0.000 C 
BRANCH  19  20
ATOM     20  N   UNL     1       5.685   6.089  17.956  0.00  0.00    +0.000 NA
ATOM     21  C   UNL     1       6.875   6.797  17.449  0.00  0.00    +0.000 C 
BRANCH  20  22
ATOM     22  C   UNL     1       5.832   4.637  17.755  0.00  0.00    +0.000 C 
BRANCH  22  27
ATOM     23  C   UNL     1       3.291   2.776  19.897  0.00  0.00    +0.000 A 
ATOM     24  C   UNL     1       2.597   2.050  18.926  0.00  0.00    +0.000 A 
ATOM     25  C   UNL     1       2.887   2.220  17.571  0.00  0.00    +0.000 A 
ATOM     26  C   UNL     1       3.903   3.089  17.181  0.00  0.00    +0.000 A 
ATOM     27  C   UNL     1       4.622   3.812  18.142  0.00  0.00    +0.000 A 
ATOM     28  C   UNL     1       4.277   3.678  19.498  0.00  0.00    +0.000 A 
BRANCH  23  30
ATOM     29  C   UNL     1       2.161   3.456  21.873  0.00  0.00    +0.000 C 
ATOM     30  O   UNL     1       2.949   2.490  21.190  0.00  0.00    +0.000 OA
ENDBRANCH  23  30
ENDBRANCH  22  27
ENDBRANCH  20  22
ENDBRANCH  19  20
ENDBRANCH  18  19
ENDBRANCH  17  18
ENDBRANCH   1  17
TORSDOF 8
ENDMDL
