MODEL 1
REMARK VINA RESULT:      -8.3      0.000      0.000
REMARK  Name = 
REMARK  7 active torsions:
REMARK  status: ('A' for Active; 'I' for Inactive)
REMARK    1  A    between atoms: C_1  and  C_2
REMARK    2  A    between atoms: N_4  and  C_5
REMARK    3  A    between atoms: N_14  and  C_15
REMARK    4  A    between atoms: C_15  and  C_16
REMARK    5  A    between atoms: N_18  and  C_19
REMARK    6  A    between atoms: C_19  and  C_20
REMARK    7  A    between atoms: C_26  and  C_27
REMARK                            x       y       z     vdW  Elec       q    Type
REMARK                         _______ _______ _______ _____ _____    ______ ____
ROOT
ATOM      1  C   UNL     1      -2.624  12.119  19.555  0.00  0.00    +0.000 C 
ATOM      2  C   UNL     1      -2.372  13.277  20.510  0.00  0.00    +0.000 C 
ATOM      3  S   UNL     1      -0.831  13.109  21.507  0.00  0.00    +0.000 S 
ATOM      4  C   UNL     1      -0.626  11.314  21.615  0.00  0.00    +0.000 A 
ATOM      5  C   UNL     1      -0.471  10.856  22.929  0.00  0.00    +0.000 A 
ATOM      6  C   UNL     1      -0.267   9.505  23.191  0.00  0.00    +0.000 A 
ATOM      7  C   UNL     1      -0.210   8.590  22.156  0.00  0.00    +0.000 A 
ATOM      8  C   UNL     1      -0.322   9.027  20.831  0.00  0.00    +0.000 A 
ATOM      9  C   UNL     1      -0.507  10.397  20.544  0.00  0.00    +0.000 A 
ATOM     10  N   UNL     1      -0.535  10.835  19.180  0.00  0.00    +0.000 N 
ATOM     11  C   UNL     1      -1.267  11.975  18.863  0.00  0.00    +0.000 C 
ATOM     12  O   UNL     1      -0.875  12.876  18.115  0.00  0.00    +0.000 OA
ENDROOT
BRANCH   1  16
ATOM     13  C   UNL     1      -5.425  11.916  16.944  0.00  0.00    +0.000 C 
ATOM     14  C   UNL     1      -4.289  11.434  17.816  0.00  0.00    +0.000 C 
ATOM     15  O   UNL     1      -3.932  10.263  17.836  0.00  0.00    +0.000 OA
ATOM     16  N   UNL     1      -3.710  12.417  18.595  0.00  0.00    +0.000 N 
ATOM     17  H   UNL     1      -3.844  13.383  18.318  0.00  0.00    +0.000 HD
ENDBRANCH   1  16
BRANCH  10  18
ATOM     18  C   UNL     1       0.199  10.074  18.148  0.00  0.00    +0.000 C 
BRANCH  18  19
ATOM     19  C   UNL     1       1.715  10.249  18.136  0.00  0.00    +0.000 C 
ATOM     20  O   UNL     1       2.244  11.359  18.087  0.00  0.00    +0.000 OA
ATOM     21  N   UNL     1       2.501   9.131  18.200  0.00  0.00    +0.000 N 
ATOM     22  H   UNL     1       3.475   9.344  18.028  0.00  0.00    +0.000 HD
BRANCH  21  23
ATOM     23  C   UNL     1       2.075   7.747  18.119  0.00  0.00    +0.000 C 
BRANCH  23  24
ATOM     24  C   UNL     1       3.186   6.776  18.285  0.00  0.00    +0.000 A 
ATOM     25  C   UNL     1       4.280   6.834  17.404  0.00  0.00    +0.000 A 
ATOM     26  C   UNL     1       5.291   5.911  17.528  0.00  0.00    +0.000 A 
ATOM     27  C   UNL     1       5.190   4.974  18.537  0.00  0.00    +0.000 A 
ATOM     28  N   UNL     1       6.164   3.985  18.660  0.00  0.00    +0.000 N 
ATOM     29  N   UNL     1       4.177   4.935  19.416  0.00  0.00    +0.000 NA
ATOM     30  C   UNL     1       3.176   5.831  19.287  0.00  0.00    +0.000 A 
ATOM     31  C   UNL     1       2.047   5.804  20.284  0.00  0.00    +0.000 C 
ATOM     32  H   UNL     1       7.088   4.391  18.702  0.00  0.00    +0.000 HD
ATOM     33  H   UNL     1       5.927   3.450  19.488  0.00  0.00    +0.000 HD
ENDBRANCH  23  24
ENDBRANCH  21  23
ENDBRANCH  18  19
ENDBRANCH  10  18
TORSDOF 5
ENDMDL
MODEL 2
REMARK VINA RESULT:      -8.3      2.077      3.013
REMARK  Name = 
REMARK  7 active torsions:
REMARK  status: ('A' for Active; 'I' for Inactive)
REMARK    1  A    between atoms: C_1  and  C_2
REMARK    2  A    between atoms: N_4  and  C_5
REMARK    3  A    between atoms: N_14  and  C_15
REMARK    4  A    between atoms: C_15  and  C_16
REMARK    5  A    between atoms: N_18  and  C_19
REMARK    6  A    between atoms: C_19  and  C_20
REMARK    7  A    between atoms: C_26  and  C_27
REMARK                            x       y       z     vdW  Elec       q    Type
REMARK                         _______ _______ _______ _____ _____    ______ ____
ROOT
ATOM      1  C   UNL     1      -0.875  12.298  18.547  0.00  0.00    +0.000 C 
ATOM      2  C   UNL     1       0.044  13.507  18.455  0.00  0.00    +0.000 C 
ATOM      3  S   UNL     1       0.951  13.883  20.016  0.00  0.00    +0.000 S 
ATOM      4  C   UNL     1      -0.166  13.236  21.285  0.00  0.00    +0.000 A 
ATOM      5  C   UNL     1      -0.471  14.175  22.279  0.00  0.00    +0.000 A 
ATOM      6  C   UNL     1      -1.290  13.834  23.351  0.00  0.00    +0.000 A 
ATOM      7  C   UNL     1      -1.814  12.559  23.456  0.00  0.00    +0.000 A 
ATOM      8  C   UNL     1      -1.491  11.591  22.498  0.00  0.00    +0.000 A 
ATOM      9  C   UNL     1      -0.644  11.911  21.414  0.00  0.00    +0.000 A 
ATOM     10  N   UNL     1      -0.260  10.886  20.491  0.00  0.00    +0.000 N 
ATOM     11  C   UNL     1       0.039  11.248  19.182  0.00  0.00    +0.000 C 
ATOM     12  O   UNL     1       1.002  10.821  18.537  0.00  0.00    +0.000 OA
ENDROOT
BRANCH   1  16
ATOM     13  C   UNL     1      -2.741  10.624  15.644  0.00  0.00    +0.000 C 
ATOM     14  C   UNL     1      -2.310  10.874  17.071  0.00  0.00    +0.000 C 
ATOM     15  O   UNL     1      -2.776  10.245  18.013  0.00  0.00    +0.000 OA
ATOM     16  N   UNL     1      -1.370  11.875  17.217  0.00  0.00    +0.000 N 
ATOM     17  H   UNL     1      -0.823  12.135  16.405  0.00  0.00    +0.000 HD
ENDBRANCH   1  16
BRANCH  10  18
ATOM     18  C   UNL     1      -0.195   9.480  20.940  0.00  0.00    +0.000 C 
BRANCH  18  19
ATOM     19  C   UNL     1       1.041   9.088  21.745  0.00  0.00    +0.000 C 
ATOM     20  O   UNL     1       1.266   9.552  22.863  0.00  0.00    +0.000 OA
ATOM     21  N   UNL     1       1.910   8.179  21.205  0.00  0.00    +0.000 N 
ATOM     22  H   UNL     1       2.765   8.110  21.741  0.00  0.00    +0.000 HD
BRANCH  21  23
ATOM     23  C   UNL     1       1.896   7.636  19.861  0.00  0.00    +0.000 C 
BRANCH  23  24
ATOM     24  C   UNL     1       2.331   6.218  19.792  0.00  0.00    +0.000 A 
ATOM     25  C   UNL     1       1.813   5.300  20.721  0.00  0.00    +0.000 A 
ATOM     26  C   UNL     1       2.244   3.995  20.687  0.00  0.00    +0.000 A 
ATOM     27  C   UNL     1       3.161   3.643  19.717  0.00  0.00    +0.000 A 
ATOM     28  N   UNL     1       3.667   2.345  19.685  0.00  0.00    +0.000 N 
ATOM     29  N   UNL     1       3.628   4.495  18.792  0.00  0.00    +0.000 NA
ATOM     30  C   UNL     1       3.218   5.780  18.833  0.00  0.00    +0.000 A 
ATOM     31  C   UNL     1       3.724   6.735  17.784  0.00  0.00    +0.000 C 
ATOM     32  H   UNL     1       2.920   1.665  19.670  0.00  0.00    +0.000 HD
ATOM     33  H   UNL     1       4.269   2.291  18.871  0.00  0.00    +0.000 HD
ENDBRANCH  23  24
ENDBRANCH  21  23
ENDBRANCH  18  19
ENDBRANCH  10  18
TORSDOF 5
ENDMDL
MODEL 3
REMARK VINA RESULT:      -8.3      2.528      4.458
REMARK  Name = 
REMARK  7 active torsions:
REMARK  status: ('A' for Active; 'I' for Inactive)
REMARK    1  A    between atoms: C_1  and  C_2
REMARK    2  A    between atoms: N_4  and  C_5
REMARK    3  A    between atoms: N_14  and  C_15
REMARK    4  A    between atoms: C_15  and  C_16
REMARK    5  A    between atoms: N_18  and  C_19
REMARK    6  A    between atoms: C_19  and  C_20
REMARK    7  A    between atoms: C_26  and  C_27
REMARK                            x       y       z     vdW  Elec       q    Type
REMARK                         _______ _______ _______ _____ _____    ______ ____
ROOT
ATOM      1  C   UNL     1       0.526  13.311  19.333  0.00  0.00    +0.000 C 
ATOM      2  C   UNL     1      -0.563  14.035  20.111  0.00  0.00    +0.000 C 
ATOM      3  S   UNL     1      -2.009  12.976  20.546  0.00  0.00    +0.000 S 
ATOM      4  C   UNL     1      -2.007  11.745  19.219  0.00  0.00    +0.000 A 
ATOM      5  C   UNL     1      -3.245  11.633  18.573  0.00  0.00    +0.000 A 
ATOM      6  C   UNL     1      -3.430  10.707  17.550  0.00  0.00    +0.000 A 
ATOM      7  C   UNL     1      -2.395   9.880  17.156  0.00  0.00    +0.000 A 
ATOM      8  C   UNL     1      -1.161   9.945  17.813  0.00  0.00    +0.000 A 
ATOM      9  C   UNL     1      -0.960  10.861  18.868  0.00  0.00    +0.000 A 
ATOM     10  N   UNL     1       0.282  10.855  19.581  0.00  0.00    +0.000 N 
ATOM     11  C   UNL     1       0.721  12.040  20.163  0.00  0.00    +0.000 C 
ATOM     12  O   UNL     1       1.199  12.131  21.298  0.00  0.00    +0.000 OA
ENDROOT
BRANCH   1  16
ATOM     13  C   UNL     1       4.008  14.670  18.473  0.00  0.00    +0.000 C 
ATOM     14  C   UNL     1       2.856  13.691  18.502  0.00  0.00    +0.000 C 
ATOM     15  O   UNL     1       2.890  12.624  17.901  0.00  0.00    +0.000 OA
ATOM     16  N   UNL     1       1.768  14.111  19.241  0.00  0.00    +0.000 N 
ATOM     17  H   UNL     1       1.916  14.835  19.934  0.00  0.00    +0.000 HD
ENDBRANCH   1  16
BRANCH  10  18
ATOM     18  C   UNL     1       1.067   9.607  19.680  0.00  0.00    +0.000 C 
BRANCH  18  19
ATOM     19  C   UNL     1       0.781   8.728  20.895  0.00  0.00    +0.000 C 
ATOM     20  O   UNL     1       0.038   9.095  21.805  0.00  0.00    +0.000 OA
ATOM     21  N   UNL     1       1.359   7.490  20.954  0.00  0.00    +0.000 N 
ATOM     22  H   UNL     1       1.235   7.058  21.861  0.00  0.00    +0.000 HD
BRANCH  21  23
ATOM     23  C   UNL     1       2.364   6.942  20.065  0.00  0.00    +0.000 C 
BRANCH  23  24
ATOM     24  C   UNL     1       2.127   5.520  19.709  0.00  0.00    +0.000 A 
ATOM     25  C   UNL     1       1.278   4.747  20.520  0.00  0.00    +0.000 A 
ATOM     26  C   UNL     1       1.087   3.419  20.219  0.00  0.00    +0.000 A 
ATOM     27  C   UNL     1       1.733   2.910  19.109  0.00  0.00    +0.000 A 
ATOM     28  N   UNL     1       1.613   1.556  18.803  0.00  0.00    +0.000 N 
ATOM     29  N   UNL     1       2.507   3.646  18.297  0.00  0.00    +0.000 NA
ATOM     30  C   UNL     1       2.707   4.946  18.600  0.00  0.00    +0.000 A 
ATOM     31  C   UNL     1       3.560   5.780  17.679  0.00  0.00    +0.000 C 
ATOM     32  H   UNL     1       0.643   1.280  18.754  0.00  0.00    +0.000 HD
ATOM     33  H   UNL     1       2.111   1.414  17.931  0.00  0.00    +0.000 HD
ENDBRANCH  23  24
ENDBRANCH  21  23
ENDBRANCH  18  19
ENDBRANCH  10  18
TORSDOF 5
ENDMDL
MODEL 4
REMARK VINA RESULT:      -7.9      1.896      2.610
REMARK  Name = 
REMARK  7 active torsions:
REMARK  status: ('A' for Active; 'I' for Inactive)
REMARK    1  A    between atoms: C_1  and  C_2
REMARK    2  A    between atoms: N_4  and  C_5
REMARK    3  A    between atoms: N_14  and  C_15
REMARK    4  A    between atoms: C_15  and  C_16
REMARK    5  A    between atoms: N_18  and  C_19
REMARK    6  A    between atoms: C_19  and  C_20
REMARK    7  A    between atoms: C_26  and  C_27
REMARK                            x       y       z     vdW  Elec       q    Type
REMARK                         _______ _______ _______ _____ _____    ______ ____
ROOT
ATOM      1  C   UNL     1      -0.984  11.774  18.577  0.00  0.00    +0.000 C 
ATOM      2  C   UNL     1      -0.109  12.999  18.354  0.00  0.00    +0.000 C 
ATOM      3  S   UNL     1       0.831  13.534  19.847  0.00  0.00    +0.000 S 
ATOM      4  C   UNL     1      -0.225  12.964  21.202  0.00  0.00    +0.000 A 
ATOM      5  C   UNL     1      -0.532  13.974  22.122  0.00  0.00    +0.000 A 
ATOM      6  C   UNL     1      -1.306  13.700  23.246  0.00  0.00    +0.000 A 
ATOM      7  C   UNL     1      -1.783  12.423  23.475  0.00  0.00    +0.000 A 
ATOM      8  C   UNL     1      -1.457  11.387  22.591  0.00  0.00    +0.000 A 
ATOM      9  C   UNL     1      -0.654  11.640  21.458  0.00  0.00    +0.000 A 
ATOM     10  N   UNL     1      -0.264  10.553  20.612  0.00  0.00    +0.000 N 
ATOM     11  C   UNL     1      -0.016  10.810  19.268  0.00  0.00    +0.000 C 
ATOM     12  O   UNL     1       0.941  10.361  18.630  0.00  0.00    +0.000 OA
ENDROOT
BRANCH   1  16
ATOM     13  C   UNL     1      -3.184  10.696  15.626  0.00  0.00    +0.000 C 
ATOM     14  C   UNL     1      -2.849  11.242  16.995  0.00  0.00    +0.000 C 
ATOM     15  O   UNL     1      -3.708  11.679  17.751  0.00  0.00    +0.000 OA
ATOM     16  N   UNL     1      -1.504  11.224  17.305  0.00  0.00    +0.000 N 
ATOM     17  H   UNL     1      -0.905  10.595  16.783  0.00  0.00    +0.000 HD
ENDBRANCH   1  16
BRANCH  10  18
ATOM     18  C   UNL     1      -0.138   9.192  21.175  0.00  0.00    +0.000 C 
BRANCH  18  19
ATOM     19  C   UNL     1       1.224   8.832  21.762  0.00  0.00    +0.000 C 
ATOM     20  O   UNL     1       1.740   9.489  22.667  0.00  0.00    +0.000 OA
ATOM     21  N   UNL     1       1.874   7.732  21.274  0.00  0.00    +0.000 N 
ATOM     22  H   UNL     1       2.826   7.674  21.614  0.00  0.00    +0.000 HD
BRANCH  21  23
ATOM     23  C   UNL     1       1.504   6.925  20.128  0.00  0.00    +0.000 C 
BRANCH  23  24
ATOM     24  C   UNL     1       2.638   6.156  19.555  0.00  0.00    +0.000 A 
ATOM     25  C   UNL     1       3.410   6.737  18.535  0.00  0.00    +0.000 A 
ATOM     26  C   UNL     1       4.434   6.014  17.973  0.00  0.00    +0.000 A 
ATOM     27  C   UNL     1       4.669   4.743  18.458  0.00  0.00    +0.000 A 
ATOM     28  N   UNL     1       5.660   3.954  17.877  0.00  0.00    +0.000 N 
ATOM     29  N   UNL     1       3.973   4.191  19.465  0.00  0.00    +0.000 NA
ATOM     30  C   UNL     1       2.957   4.895  20.008  0.00  0.00    +0.000 A 
ATOM     31  C   UNL     1       2.187   4.288  21.151  0.00  0.00    +0.000 C 
ATOM     32  H   UNL     1       6.542   4.445  17.847  0.00  0.00    +0.000 HD
ATOM     33  H   UNL     1       5.700   3.098  18.419  0.00  0.00    +0.000 HD
ENDBRANCH  23  24
ENDBRANCH  21  23
ENDBRANCH  18  19
ENDBRANCH  10  18
TORSDOF 5
ENDMDL
MODEL 5
REMARK VINA RESULT:      -7.7      2.403      4.263
REMARK  Name = 
REMARK  7 active torsions:
REMARK  status: ('A' for Active; 'I' for Inactive)
REMARK    1  A    between atoms: C_1  and  C_2
REMARK    2  A    between atoms: N_4  and  C_5
REMARK    3  A    between atoms: N_14  and  C_15
REMARK    4  A    between atoms: C_15  and  C_16
REMARK    5  A    between atoms: N_18  and  C_19
REMARK    6  A    between atoms: C_19  and  C_20
REMARK    7  A    between atoms: C_26  and  C_27
REMARK                            x       y       z     vdW  Elec       q    Type
REMARK                         _______ _______ _______ _____ _____    ______ ____
ROOT
ATOM      1  C   UNL     1       0.575  13.148  19.688  0.00  0.00    +0.000 C 
ATOM      2  C   UNL     1      -0.538  13.663  20.590  0.00  0.00    +0.000 C 
ATOM      3  S   UNL     1      -1.911  12.461  20.853  0.00  0.00    +0.000 S 
ATOM      4  C   UNL     1      -1.866  11.475  19.335  0.00  0.00    +0.000 A 
ATOM      5  C   UNL     1      -3.108  11.399  18.693  0.00  0.00    +0.000 A 
ATOM      6  C   UNL     1      -3.261  10.652  17.529  0.00  0.00    +0.000 A 
ATOM      7  C   UNL     1      -2.188   9.967  16.989  0.00  0.00    +0.000 A 
ATOM      8  C   UNL     1      -0.946   9.994  17.634  0.00  0.00    +0.000 A 
ATOM      9  C   UNL     1      -0.777  10.728  18.828  0.00  0.00    +0.000 A 
ATOM     10  N   UNL     1       0.477  10.675  19.517  0.00  0.00    +0.000 N 
ATOM     11  C   UNL     1       0.860  11.769  20.288  0.00  0.00    +0.000 C 
ATOM     12  O   UNL     1       1.354  11.695  21.417  0.00  0.00    +0.000 OA
ENDROOT
BRANCH   1  16
ATOM     13  C   UNL     1       3.886  14.937  18.947  0.00  0.00    +0.000 C 
ATOM     14  C   UNL     1       2.784  13.913  18.794  0.00  0.00    +0.000 C 
ATOM     15  O   UNL     1       2.794  13.071  17.905  0.00  0.00    +0.000 OA
ATOM     16  N   UNL     1       1.767  14.026  19.721  0.00  0.00    +0.000 N 
ATOM     17  H   UNL     1       1.960  14.527  20.580  0.00  0.00    +0.000 HD
ENDBRANCH   1  16
BRANCH  10  18
ATOM     18  C   UNL     1       1.335   9.479  19.393  0.00  0.00    +0.000 C 
BRANCH  18  19
ATOM     19  C   UNL     1       1.194   8.435  20.498  0.00  0.00    +0.000 C 
ATOM     20  O   UNL     1       0.503   8.631  21.498  0.00  0.00    +0.000 OA
ATOM     21  N   UNL     1       1.847   7.242  20.355  0.00  0.00    +0.000 N 
ATOM     22  H   UNL     1       1.818   6.691  21.203  0.00  0.00    +0.000 HD
BRANCH  21  23
ATOM     23  C   UNL     1       2.812   6.881  19.334  0.00  0.00    +0.000 C 
BRANCH  23  24
ATOM     24  C   UNL     1       3.335   5.499  19.478  0.00  0.00    +0.000 A 
ATOM     25  C   UNL     1       2.650   4.593  20.305  0.00  0.00    +0.000 A 
ATOM     26  C   UNL     1       3.152   3.324  20.474  0.00  0.00    +0.000 A 
ATOM     27  C   UNL     1       4.310   2.994  19.797  0.00  0.00    +0.000 A 
ATOM     28  N   UNL     1       4.884   1.738  19.986  0.00  0.00    +0.000 N 
ATOM     29  N   UNL     1       4.949   3.831  18.965  0.00  0.00    +0.000 NA
ATOM     30  C   UNL     1       4.465   5.081  18.810  0.00  0.00    +0.000 A 
ATOM     31  C   UNL     1       5.169   6.016  17.862  0.00  0.00    +0.000 C 
ATOM     32  H   UNL     1       4.209   1.004  19.828  0.00  0.00    +0.000 HD
ATOM     33  H   UNL     1       5.679   1.689  19.358  0.00  0.00    +0.000 HD
ENDBRANCH  23  24
ENDBRANCH  21  23
ENDBRANCH  18  19
ENDBRANCH  10  18
TORSDOF 5
ENDMDL
MODEL 6
REMARK VINA RESULT:      -7.6      2.317      3.901
REMARK  Name = 
REMARK  7 active torsions:
REMARK  status: ('A' for Active; 'I' for Inactive)
REMARK    1  A    between atoms: C_1  and  C_2
REMARK    2  A    between atoms: N_4  and  C_5
REMARK    3  A    between atoms: N_14  and  C_15
REMARK    4  A    between atoms: C_15  and  C_16
REMARK    5  A    between atoms: N_18  and  C_19
REMARK    6  A    between atoms: C_19  and  C_20
REMARK    7  A    between atoms: C_26  and  C_27
REMARK                            x       y       z     vdW  Elec       q    Type
REMARK                         _______ _______ _______ _____ _____    ______ ____
ROOT
ATOM      1  C   UNL     1       0.419  13.145  19.774  0.00  0.00    +0.000 C 
ATOM      2  C   UNL     1      -0.592  13.671  20.782  0.00  0.00    +0.000 C 
ATOM      3  S   UNL     1      -2.057  12.577  21.020  0.00  0.00    +0.000 S 
ATOM      4  C   UNL     1      -2.184  11.737  19.422  0.00  0.00    +0.000 A 
ATOM      5  C   UNL     1      -3.459  11.832  18.851  0.00  0.00    +0.000 A 
ATOM      6  C   UNL     1      -3.742  11.213  17.637  0.00  0.00    +0.000 A 
ATOM      7  C   UNL     1      -2.768  10.489  16.975  0.00  0.00    +0.000 A 
ATOM      8  C   UNL     1      -1.498  10.344  17.545  0.00  0.00    +0.000 A 
ATOM      9  C   UNL     1      -1.198  10.946  18.786  0.00  0.00    +0.000 A 
ATOM     10  N   UNL     1       0.079  10.718  19.391  0.00  0.00    +0.000 N 
ATOM     11  C   UNL     1       0.603  11.696  20.231  0.00  0.00    +0.000 C 
ATOM     12  O   UNL     1       1.146  11.473  21.317  0.00  0.00    +0.000 OA
ENDROOT
BRANCH   1  16
ATOM     13  C   UNL     1       3.166  15.797  19.413  0.00  0.00    +0.000 C 
ATOM     14  C   UNL     1       1.817  15.144  19.214  0.00  0.00    +0.000 C 
ATOM     15  O   UNL     1       0.914  15.687  18.589  0.00  0.00    +0.000 OA
ATOM     16  N   UNL     1       1.688  13.906  19.812  0.00  0.00    +0.000 N 
ATOM     17  H   UNL     1       2.535  13.400  20.044  0.00  0.00    +0.000 HD
ENDBRANCH   1  16
BRANCH  10  18
ATOM     18  C   UNL     1       0.812   9.466  19.111  0.00  0.00    +0.000 C 
BRANCH  18  19
ATOM     19  C   UNL     1       1.944   9.564  18.091  0.00  0.00    +0.000 C 
ATOM     20  O   UNL     1       2.195  10.611  17.494  0.00  0.00    +0.000 OA
ATOM     21  N   UNL     1       2.706   8.454  17.854  0.00  0.00    +0.000 N 
ATOM     22  H   UNL     1       3.317   8.578  17.057  0.00  0.00    +0.000 HD
BRANCH  21  23
ATOM     23  C   UNL     1       2.481   7.108  18.343  0.00  0.00    +0.000 C 
BRANCH  23  24
ATOM     24  C   UNL     1       3.412   6.105  17.767  0.00  0.00    +0.000 A 
ATOM     25  C   UNL     1       4.681   6.524  17.332  0.00  0.00    +0.000 A 
ATOM     26  C   UNL     1       5.531   5.608  16.759  0.00  0.00    +0.000 A 
ATOM     27  C   UNL     1       5.097   4.301  16.657  0.00  0.00    +0.000 A 
ATOM     28  N   UNL     1       5.905   3.354  16.030  0.00  0.00    +0.000 N 
ATOM     29  N   UNL     1       3.909   3.875  17.111  0.00  0.00    +0.000 NA
ATOM     30  C   UNL     1       3.067   4.776  17.660  0.00  0.00    +0.000 A 
ATOM     31  C   UNL     1       1.740   4.297  18.189  0.00  0.00    +0.000 C 
ATOM     32  H   UNL     1       6.831   3.345  16.433  0.00  0.00    +0.000 HD
ATOM     33  H   UNL     1       5.425   2.465  16.118  0.00  0.00    +0.000 HD
ENDBRANCH  23  24
ENDBRANCH  21  23
ENDBRANCH  18  19
ENDBRANCH  10  18
TORSDOF 5
ENDMDL
MODEL 7
REMARK VINA RESULT:      -7.5      1.163      1.871
REMARK  Name = 
REMARK  7 active torsions:
REMARK  status: ('A' for Active; 'I' for Inactive)
REMARK    1  A    between atoms: C_1  and  C_2
REMARK    2  A    between atoms: N_4  and  C_5
REMARK    3  A    between atoms: N_14  and  C_15
REMARK    4  A    between atoms: C_15  and  C_16
REMARK    5  A    between atoms: N_18  and  C_19
REMARK    6  A    between atoms: C_19  and  C_20
REMARK    7  A    between atoms: C_26  and  C_27
REMARK                            x       y       z     vdW  Elec       q    Type
REMARK                         _______ _______ _______ _____ _____    ______ ____
ROOT
ATOM      1  C   UNL     1      -2.163  11.962  19.205  0.00  0.00    +0.000 C 
ATOM      2  C   UNL     1      -2.385  13.132  20.152  0.00  0.00    +0.000 C 
ATOM      3  S   UNL     1      -1.186  13.207  21.551  0.00  0.00    +0.000 S 
ATOM      4  C   UNL     1      -0.733  11.468  21.773  0.00  0.00    +0.000 A 
ATOM      5  C   UNL     1      -0.888  11.025  23.092  0.00  0.00    +0.000 A 
ATOM      6  C   UNL     1      -0.551   9.722  23.447  0.00  0.00    +0.000 A 
ATOM      7  C   UNL     1      -0.054   8.843  22.503  0.00  0.00    +0.000 A 
ATOM      8  C   UNL     1       0.148   9.274  21.186  0.00  0.00    +0.000 A 
ATOM      9  C   UNL     1      -0.166  10.599  20.812  0.00  0.00    +0.000 A 
ATOM     10  N   UNL     1       0.125  11.044  19.482  0.00  0.00    +0.000 N 
ATOM     11  C   UNL     1      -0.660  12.052  18.931  0.00  0.00    +0.000 C 
ATOM     12  O   UNL     1      -0.222  13.016  18.295  0.00  0.00    +0.000 OA
ENDROOT
BRANCH   1  16
ATOM     13  C   UNL     1      -4.347  11.325  16.118  0.00  0.00    +0.000 C 
ATOM     14  C   UNL     1      -3.508  10.992  17.330  0.00  0.00    +0.000 C 
ATOM     15  O   UNL     1      -3.347   9.842  17.718  0.00  0.00    +0.000 OA
ATOM     16  N   UNL     1      -2.963  12.090  17.966  0.00  0.00    +0.000 N 
ATOM     17  H   UNL     1      -2.885  12.953  17.441  0.00  0.00    +0.000 HD
ENDBRANCH   1  16
BRANCH  10  18
ATOM     18  C   UNL     1       1.236  10.428  18.727  0.00  0.00    +0.000 C 
BRANCH  18  19
ATOM     19  C   UNL     1       0.854   9.301  17.772  0.00  0.00    +0.000 C 
ATOM     20  O   UNL     1      -0.169   9.342  17.089  0.00  0.00    +0.000 OA
ATOM     21  N   UNL     1       1.692   8.225  17.666  0.00  0.00    +0.000 N 
ATOM     22  H   UNL     1       1.275   7.472  17.134  0.00  0.00    +0.000 HD
BRANCH  21  23
ATOM     23  C   UNL     1       2.854   7.928  18.480  0.00  0.00    +0.000 C 
BRANCH  23  24
ATOM     24  C   UNL     1       2.840   6.558  19.053  0.00  0.00    +0.000 A 
ATOM     25  C   UNL     1       2.040   6.297  20.178  0.00  0.00    +0.000 A 
ATOM     26  C   UNL     1       2.055   5.042  20.737  0.00  0.00    +0.000 A 
ATOM     27  C   UNL     1       2.852   4.082  20.146  0.00  0.00    +0.000 A 
ATOM     28  N   UNL     1       2.941   2.813  20.715  0.00  0.00    +0.000 N 
ATOM     29  N   UNL     1       3.585   4.300  19.042  0.00  0.00    +0.000 NA
ATOM     30  C   UNL     1       3.582   5.537  18.501  0.00  0.00    +0.000 A 
ATOM     31  C   UNL     1       4.387   5.781  17.252  0.00  0.00    +0.000 C 
ATOM     32  H   UNL     1       2.024   2.414  20.856  0.00  0.00    +0.000 HD
ATOM     33  H   UNL     1       3.524   2.260  20.095  0.00  0.00    +0.000 HD
ENDBRANCH  23  24
ENDBRANCH  21  23
ENDBRANCH  18  19
ENDBRANCH  10  18
TORSDOF 5
ENDMDL
MODEL 8
REMARK VINA RESULT:      -7.5      1.185      1.208
REMARK  Name = 
REMARK  7 active torsions:
REMARK  status: ('A' for Active; 'I' for Inactive)
REMARK    1  A    between atoms: C_1  and  C_2
REMARK    2  A    between atoms: N_4  and  C_5
REMARK    3  A    between atoms: N_14  and  C_15
REMARK    4  A    between atoms: C_15  and  C_16
REMARK    5  A    between atoms: N_18  and  C_19
REMARK    6  A    between atoms: C_19  and  C_20
REMARK    7  A    between atoms: C_26  and  C_27
REMARK                            x       y       z     vdW  Elec       q    Type
REMARK                         _______ _______ _______ _____ _____    ______ ____
ROOT
ATOM      1  C   UNL     1      -2.054  11.897  19.167  0.00  0.00    +0.000 C 
ATOM      2  C   UNL     1      -2.262  13.082  20.100  0.00  0.00    +0.000 C 
ATOM      3  S   UNL     1      -1.076  13.147  21.510  0.00  0.00    +0.000 S 
ATOM      4  C   UNL     1      -0.660  11.403  21.755  0.00  0.00    +0.000 A 
ATOM      5  C   UNL     1      -0.837  10.976  23.077  0.00  0.00    +0.000 A 
ATOM      6  C   UNL     1      -0.530   9.671  23.449  0.00  0.00    +0.000 A 
ATOM      7  C   UNL     1      -0.041   8.773  22.519  0.00  0.00    +0.000 A 
ATOM      8  C   UNL     1       0.182   9.186  21.200  0.00  0.00    +0.000 A 
ATOM      9  C   UNL     1      -0.101  10.512  20.809  0.00  0.00    +0.000 A 
ATOM     10  N   UNL     1       0.213  10.938  19.478  0.00  0.00    +0.000 N 
ATOM     11  C   UNL     1      -0.546  11.955  18.908  0.00  0.00    +0.000 C 
ATOM     12  O   UNL     1      -0.083  12.903  18.267  0.00  0.00    +0.000 OA
ENDROOT
BRANCH   1  16
ATOM     13  C   UNL     1      -4.232  11.274  16.073  0.00  0.00    +0.000 C 
ATOM     14  C   UNL     1      -3.414  10.938  17.299  0.00  0.00    +0.000 C 
ATOM     15  O   UNL     1      -3.296   9.790  17.709  0.00  0.00    +0.000 OA
ATOM     16  N   UNL     1      -2.839  12.028  17.919  0.00  0.00    +0.000 N 
ATOM     17  H   UNL     1      -2.727  12.878  17.379  0.00  0.00    +0.000 HD
ENDBRANCH   1  16
BRANCH  10  18
ATOM     18  C   UNL     1       1.318  10.292  18.741  0.00  0.00    +0.000 C 
BRANCH  18  19
ATOM     19  C   UNL     1       0.920   9.192  17.760  0.00  0.00    +0.000 C 
ATOM     20  O   UNL     1      -0.085   9.279  17.055  0.00  0.00    +0.000 OA
ATOM     21  N   UNL     1       1.721   8.089  17.657  0.00  0.00    +0.000 N 
ATOM     22  H   UNL     1       1.290   7.359  17.105  0.00  0.00    +0.000 HD
BRANCH  21  23
ATOM     23  C   UNL     1       2.853   7.739  18.494  0.00  0.00    +0.000 C 
BRANCH  23  24
ATOM     24  C   UNL     1       3.271   6.321  18.360  0.00  0.00    +0.000 A 
ATOM     25  C   UNL     1       4.133   5.959  17.311  0.00  0.00    +0.000 A 
ATOM     26  C   UNL     1       4.490   4.641  17.159  0.00  0.00    +0.000 A 
ATOM     27  C   UNL     1       3.992   3.728  18.067  0.00  0.00    +0.000 A 
ATOM     28  N   UNL     1       4.282   2.374  17.914  0.00  0.00    +0.000 N 
ATOM     29  N   UNL     1       3.207   4.063  19.103  0.00  0.00    +0.000 NA
ATOM     30  C   UNL     1       2.844   5.355  19.246  0.00  0.00    +0.000 A 
ATOM     31  C   UNL     1       1.980   5.739  20.418  0.00  0.00    +0.000 C 
ATOM     32  H   UNL     1       5.278   2.223  17.834  0.00  0.00    +0.000 HD
ATOM     33  H   UNL     1       3.872   1.900  18.712  0.00  0.00    +0.000 HD
ENDBRANCH  23  24
ENDBRANCH  21  23
ENDBRANCH  18  19
ENDBRANCH  10  18
TORSDOF 5
ENDMDL
MODEL 9
REMARK VINA RESULT:      -7.5      1.777      2.195
REMARK  Name = 
REMARK  7 active torsions:
REMARK  status: ('A' for Active; 'I' for Inactive)
REMARK    1  A    between atoms: C_1  and  C_2
REMARK    2  A    between atoms: N_4  and  C_5
REMARK    3  A    between atoms: N_14  and  C_15
REMARK    4  A    between atoms: C_15  and  C_16
REMARK    5  A    between atoms: N_18  and  C_19
REMARK    6  A    between atoms: C_19  and  C_20
REMARK    7  A    between atoms: C_26  and  C_27
REMARK                            x       y       z     vdW  Elec       q    Type
REMARK                         _______ _______ _______ _____ _____    ______ ____
ROOT
ATOM      1  C   UNL     1      -1.149  11.720  18.656  0.00  0.00    +0.000 C 
ATOM      2  C   UNL     1      -1.286  13.077  19.331  0.00  0.00    +0.000 C 
ATOM      3  S   UNL     1      -0.388  13.213  20.936  0.00  0.00    +0.000 S 
ATOM      4  C   UNL     1      -0.375  11.502  21.525  0.00  0.00    +0.000 A 
ATOM      5  C   UNL     1      -0.870  11.366  22.828  0.00  0.00    +0.000 A 
ATOM      6  C   UNL     1      -0.899  10.122  23.451  0.00  0.00    +0.000 A 
ATOM      7  C   UNL     1      -0.435   8.998  22.794  0.00  0.00    +0.000 A 
ATOM      8  C   UNL     1       0.102   9.113  21.507  0.00  0.00    +0.000 A 
ATOM      9  C   UNL     1       0.161  10.371  20.867  0.00  0.00    +0.000 A 
ATOM     10  N   UNL     1       0.789  10.482  19.585  0.00  0.00    +0.000 N 
ATOM     11  C   UNL     1       0.362  11.483  18.719  0.00  0.00    +0.000 C 
ATOM     12  O   UNL     1       1.112  12.205  18.055  0.00  0.00    +0.000 OA
ENDROOT
BRANCH   1  16
ATOM     13  C   UNL     1      -2.868  10.922  15.321  0.00  0.00    +0.000 C 
ATOM     14  C   UNL     1      -2.385  10.695  16.736  0.00  0.00    +0.000 C 
ATOM     15  O   UNL     1      -2.645   9.673  17.359  0.00  0.00    +0.000 OA
ATOM     16  N   UNL     1      -1.652  11.739  17.263  0.00  0.00    +0.000 N 
ATOM     17  H   UNL     1      -1.230  12.397  16.618  0.00  0.00    +0.000 HD
ENDBRANCH   1  16
BRANCH  10  18
ATOM     18  C   UNL     1       1.862   9.538  19.208  0.00  0.00    +0.000 C 
BRANCH  18  19
ATOM     19  C   UNL     1       1.599   8.682  17.972  0.00  0.00    +0.000 C 
ATOM     20  O   UNL     1       0.860   9.058  17.062  0.00  0.00    +0.000 OA
ATOM     21  N   UNL     1       2.223   7.469  17.874  0.00  0.00    +0.000 N 
ATOM     22  H   UNL     1       1.864   6.919  17.105  0.00  0.00    +0.000 HD
BRANCH  21  23
ATOM     23  C   UNL     1       3.006   6.795  18.892  0.00  0.00    +0.000 C 
BRANCH  23  24
ATOM     24  C   UNL     1       3.086   5.325  18.700  0.00  0.00    +0.000 A 
ATOM     25  C   UNL     1       1.933   4.625  18.306  0.00  0.00    +0.000 A 
ATOM     26  C   UNL     1       1.991   3.259  18.166  0.00  0.00    +0.000 A 
ATOM     27  C   UNL     1       3.200   2.637  18.405  0.00  0.00    +0.000 A 
ATOM     28  N   UNL     1       3.287   1.248  18.331  0.00  0.00    +0.000 N 
ATOM     29  N   UNL     1       4.322   3.295  18.734  0.00  0.00    +0.000 NA
ATOM     30  C   UNL     1       4.263   4.634  18.886  0.00  0.00    +0.000 A 
ATOM     31  C   UNL     1       5.525   5.379  19.236  0.00  0.00    +0.000 C 
ATOM     32  H   UNL     1       2.930   0.909  17.450  0.00  0.00    +0.000 HD
ATOM     33  H   UNL     1       4.262   1.013  18.481  0.00  0.00    +0.000 HD
ENDBRANCH  23  24
ENDBRANCH  21  23
ENDBRANCH  18  19
ENDBRANCH  10  18
TORSDOF 5
ENDMDL
