MODEL 1
REMARK VINA RESULT:      -5.9      0.000      0.000
REMARK  Name = 
REMARK  4 active torsions:
REMARK  status: ('A' for Active; 'I' for Inactive)
REMARK    1  A    between atoms: C_1  and  O_2
REMARK    2  A    between atoms: O_2  and  C_3
REMARK    3  A    between atoms: C_6  and  C_7
REMARK    4  A    between atoms: C_7  and  C_9
REMARK                            x       y       z     vdW  Elec       q    Type
REMARK                         _______ _______ _______ _____ _____    ______ ____
ROOT
ATOM      1  C   UNL     1       2.046   4.114  17.756  0.00  0.00    +0.000 A 
ATOM      2  C   UNL     1       3.095   3.494  17.077  0.00  0.00    +0.000 A 
ATOM      3  C   UNL     1       4.286   4.182  16.834  0.00  0.00    +0.000 A 
ATOM      4  C   UNL     1       4.438   5.505  17.263  0.00  0.00    +0.000 A 
ATOM      5  C   UNL     1       3.371   6.140  17.912  0.00  0.00    +0.000 A 
ATOM      6  C   UNL     1       2.179   5.444  18.156  0.00  0.00    +0.000 A 
ENDROOT
BRANCH   1   8
ATOM      7  C   UNL     1       1.030   2.324  18.918  0.00  0.00    +0.000 C 
ATOM      8  O   UNL     1       0.930   3.346  17.932  0.00  0.00    +0.000 OA
ENDBRANCH   1   8
BRANCH   4   9
ATOM      9  C   UNL     1       5.742   6.188  16.992  0.00  0.00    +0.000 C 
ATOM     10  O   UNL     1       5.842   6.811  15.935  0.00  0.00    +0.000 OA
BRANCH   9  11
ATOM     11  C   UNL     1       6.847   6.095  18.036  0.00  0.00    +0.000 C 
ATOM     12 CL   UNL     1       7.797   4.611  17.781  0.00  0.00    +0.000 Cl
ATOM     13 CL   UNL     1       7.931   7.504  17.952  0.00  0.00    +0.000 Cl
ENDBRANCH   9  11
ENDBRANCH   4   9
TORSDOF 3
ENDMDL
MODEL 2
REMARK VINA RESULT:      -5.8      3.092      5.139
REMARK  Name = 
REMARK  4 active torsions:
REMARK  status: ('A' for Active; 'I' for Inactive)
REMARK    1  A    between atoms: C_1  and  O_2
REMARK    2  A    between atoms: O_2  and  C_3
REMARK    3  A    between atoms: C_6  and  C_7
REMARK    4  A    between atoms: C_7  and  C_9
REMARK                            x       y       z     vdW  Elec       q    Type
REMARK                         _______ _______ _______ _____ _____    ______ ____
ROOT
ATOM      1  C   UNL     1       5.553   5.549  16.074  0.00  0.00    +0.000 A 
ATOM      2  C   UNL     1       5.142   4.216  16.098  0.00  0.00    +0.000 A 
ATOM      3  C   UNL     1       4.018   3.835  16.835  0.00  0.00    +0.000 A 
ATOM      4  C   UNL     1       3.295   4.787  17.564  0.00  0.00    +0.000 A 
ATOM      5  C   UNL     1       3.730   6.118  17.569  0.00  0.00    +0.000 A 
ATOM      6  C   UNL     1       4.856   6.496  16.826  0.00  0.00    +0.000 A 
ENDROOT
BRANCH   1   8
ATOM      7  C   UNL     1       7.020   4.795  14.380  0.00  0.00    +0.000 C 
ATOM      8  O   UNL     1       6.667   5.801  15.323  0.00  0.00    +0.000 OA
ENDBRANCH   1   8
BRANCH   4   9
ATOM      9  C   UNL     1       2.089   4.327  18.320  0.00  0.00    +0.000 C 
ATOM     10  O   UNL     1       1.092   4.028  17.661  0.00  0.00    +0.000 OA
BRANCH   9  11
ATOM     11  C   UNL     1       2.168   4.232  19.838  0.00  0.00    +0.000 C 
ATOM     12 CL   UNL     1       1.798   5.815  20.563  0.00  0.00    +0.000 Cl
ATOM     13 CL   UNL     1       1.026   3.021  20.467  0.00  0.00    +0.000 Cl
ENDBRANCH   9  11
ENDBRANCH   4   9
TORSDOF 3
ENDMDL
MODEL 3
REMARK VINA RESULT:      -5.8      0.768      1.820
REMARK  Name = 
REMARK  4 active torsions:
REMARK  status: ('A' for Active; 'I' for Inactive)
REMARK    1  A    between atoms: C_1  and  O_2
REMARK    2  A    between atoms: O_2  and  C_3
REMARK    3  A    between atoms: C_6  and  C_7
REMARK    4  A    between atoms: C_7  and  C_9
REMARK                            x       y       z     vdW  Elec       q    Type
REMARK                         _______ _______ _______ _____ _____    ______ ____
ROOT
ATOM      1  C   UNL     1       2.184   3.975  17.985  0.00  0.00    +0.000 A 
ATOM      2  C   UNL     1       2.317   5.341  18.238  0.00  0.00    +0.000 A 
ATOM      3  C   UNL     1       3.448   6.035  17.801  0.00  0.00    +0.000 A 
ATOM      4  C   UNL     1       4.465   5.366  17.110  0.00  0.00    +0.000 A 
ATOM      5  C   UNL     1       4.348   3.988  16.889  0.00  0.00    +0.000 A 
ATOM      6  C   UNL     1       3.210   3.297  17.326  0.00  0.00    +0.000 A 
ENDROOT
BRANCH   1   8
ATOM      7  C   UNL     1       0.915   3.356  19.880  0.00  0.00    +0.000 C 
ATOM      8  O   UNL     1       1.039   3.403  18.463  0.00  0.00    +0.000 OA
ENDBRANCH   1   8
BRANCH   4   9
ATOM      9  C   UNL     1       5.645   6.162  16.649  0.00  0.00    +0.000 C 
ATOM     10  O   UNL     1       5.497   6.854  15.641  0.00  0.00    +0.000 OA
BRANCH   9  11
ATOM     11  C   UNL     1       6.935   6.093  17.454  0.00  0.00    +0.000 C 
ATOM     12 CL   UNL     1       7.705   7.697  17.503  0.00  0.00    +0.000 Cl
ATOM     13 CL   UNL     1       6.626   5.543  19.119  0.00  0.00    +0.000 Cl
ENDBRANCH   9  11
ENDBRANCH   4   9
TORSDOF 3
ENDMDL
MODEL 4
REMARK VINA RESULT:      -5.7      0.856      1.326
REMARK  Name = 
REMARK  4 active torsions:
REMARK  status: ('A' for Active; 'I' for Inactive)
REMARK    1  A    between atoms: C_1  and  O_2
REMARK    2  A    between atoms: O_2  and  C_3
REMARK    3  A    between atoms: C_6  and  C_7
REMARK    4  A    between atoms: C_7  and  C_9
REMARK                            x       y       z     vdW  Elec       q    Type
REMARK                         _______ _______ _______ _____ _____    ______ ____
ROOT
ATOM      1  C   UNL     1       2.375   4.668  17.997  0.00  0.00    +0.000 A 
ATOM      2  C   UNL     1       3.229   3.761  17.369  0.00  0.00    +0.000 A 
ATOM      3  C   UNL     1       4.469   4.179  16.879  0.00  0.00    +0.000 A 
ATOM      4  C   UNL     1       4.864   5.516  17.005  0.00  0.00    +0.000 A 
ATOM      5  C   UNL     1       3.991   6.433  17.602  0.00  0.00    +0.000 A 
ATOM      6  C   UNL     1       2.750   6.008  18.095  0.00  0.00    +0.000 A 
ENDROOT
BRANCH   1   8
ATOM      7  C   UNL     1       1.159   2.733  18.603  0.00  0.00    +0.000 C 
ATOM      8  O   UNL     1       1.189   4.146  18.432  0.00  0.00    +0.000 OA
ENDBRANCH   1   8
BRANCH   4   9
ATOM      9  C   UNL     1       6.210   5.905  16.479  0.00  0.00    +0.000 C 
ATOM     10  O   UNL     1       6.327   6.013  15.258  0.00  0.00    +0.000 OA
BRANCH   9  11
ATOM     11  C   UNL     1       7.337   6.165  17.470  0.00  0.00    +0.000 C 
ATOM     12 CL   UNL     1       7.672   7.910  17.560  0.00  0.00    +0.000 Cl
ATOM     13 CL   UNL     1       6.916   5.567  19.093  0.00  0.00    +0.000 Cl
ENDBRANCH   9  11
ENDBRANCH   4   9
TORSDOF 3
ENDMDL
MODEL 5
REMARK VINA RESULT:      -5.6      2.683      4.832
REMARK  Name = 
REMARK  4 active torsions:
REMARK  status: ('A' for Active; 'I' for Inactive)
REMARK    1  A    between atoms: C_1  and  O_2
REMARK    2  A    between atoms: O_2  and  C_3
REMARK    3  A    between atoms: C_6  and  C_7
REMARK    4  A    between atoms: C_7  and  C_9
REMARK                            x       y       z     vdW  Elec       q    Type
REMARK                         _______ _______ _______ _____ _____    ______ ____
ROOT
ATOM      1  C   UNL     1       5.679   5.464  16.303  0.00  0.00    +0.000 A 
ATOM      2  C   UNL     1       5.219   4.149  16.213  0.00  0.00    +0.000 A 
ATOM      3  C   UNL     1       4.016   3.777  16.819  0.00  0.00    +0.000 A 
ATOM      4  C   UNL     1       3.263   4.717  17.531  0.00  0.00    +0.000 A 
ATOM      5  C   UNL     1       3.743   6.027  17.652  0.00  0.00    +0.000 A 
ATOM      6  C   UNL     1       4.948   6.397  17.040  0.00  0.00    +0.000 A 
ENDROOT
BRANCH   1   8
ATOM      7  C   UNL     1       7.109   4.959  14.490  0.00  0.00    +0.000 C 
ATOM      8  O   UNL     1       6.867   5.710  15.676  0.00  0.00    +0.000 OA
ENDBRANCH   1   8
BRANCH   4   9
ATOM      9  C   UNL     1       1.974   4.268  18.143  0.00  0.00    +0.000 C 
ATOM     10  O   UNL     1       1.007   4.141  17.391  0.00  0.00    +0.000 OA
BRANCH   9  11
ATOM     11  C   UNL     1       1.936   3.973  19.637  0.00  0.00    +0.000 C 
ATOM     12 CL   UNL     1       3.440   3.158  20.130  0.00  0.00    +0.000 Cl
ATOM     13 CL   UNL     1       1.745   5.468  20.584  0.00  0.00    +0.000 Cl
ENDBRANCH   9  11
ENDBRANCH   4   9
TORSDOF 3
ENDMDL
MODEL 6
REMARK VINA RESULT:      -5.6      2.590      5.075
REMARK  Name = 
REMARK  4 active torsions:
REMARK  status: ('A' for Active; 'I' for Inactive)
REMARK    1  A    between atoms: C_1  and  O_2
REMARK    2  A    between atoms: O_2  and  C_3
REMARK    3  A    between atoms: C_6  and  C_7
REMARK    4  A    between atoms: C_7  and  C_9
REMARK                            x       y       z     vdW  Elec       q    Type
REMARK                         _______ _______ _______ _____ _____    ______ ____
ROOT
ATOM      1  C   UNL     1       5.453   6.211  16.796  0.00  0.00    +0.000 A 
ATOM      2  C   UNL     1       4.383   6.712  17.537  0.00  0.00    +0.000 A 
ATOM      3  C   UNL     1       3.311   5.885  17.883  0.00  0.00    +0.000 A 
ATOM      4  C   UNL     1       3.297   4.544  17.483  0.00  0.00    +0.000 A 
ATOM      5  C   UNL     1       4.353   4.050  16.708  0.00  0.00    +0.000 A 
ATOM      6  C   UNL     1       5.427   4.883  16.366  0.00  0.00    +0.000 A 
ENDROOT
BRANCH   1   8
ATOM      7  C   UNL     1       7.469   7.231  17.492  0.00  0.00    +0.000 C 
ATOM      8  O   UNL     1       6.440   7.112  16.515  0.00  0.00    +0.000 OA
ENDBRANCH   1   8
BRANCH   4   9
ATOM      9  C   UNL     1       2.134   3.699  17.897  0.00  0.00    +0.000 C 
ATOM     10  O   UNL     1       1.069   3.877  17.304  0.00  0.00    +0.000 OA
BRANCH   9  11
ATOM     11  C   UNL     1       2.335   2.663  18.995  0.00  0.00    +0.000 C 
ATOM     12 CL   UNL     1       3.466   1.405  18.440  0.00  0.00    +0.000 Cl
ATOM     13 CL   UNL     1       2.977   3.412  20.476  0.00  0.00    +0.000 Cl
ENDBRANCH   9  11
ENDBRANCH   4   9
TORSDOF 3
ENDMDL
MODEL 7
REMARK VINA RESULT:      -5.6      3.598      5.388
REMARK  Name = 
REMARK  4 active torsions:
REMARK  status: ('A' for Active; 'I' for Inactive)
REMARK    1  A    between atoms: C_1  and  O_2
REMARK    2  A    between atoms: O_2  and  C_3
REMARK    3  A    between atoms: C_6  and  C_7
REMARK    4  A    between atoms: C_7  and  C_9
REMARK                            x       y       z     vdW  Elec       q    Type
REMARK                         _______ _______ _______ _____ _____    ______ ____
ROOT
ATOM      1  C   UNL     1       6.227   4.514  16.823  0.00  0.00    +0.000 A 
ATOM      2  C   UNL     1       6.439   4.768  18.178  0.00  0.00    +0.000 A 
ATOM      3  C   UNL     1       5.384   4.673  19.090  0.00  0.00    +0.000 A 
ATOM      4  C   UNL     1       4.100   4.328  18.651  0.00  0.00    +0.000 A 
ATOM      5  C   UNL     1       3.881   4.109  17.286  0.00  0.00    +0.000 A 
ATOM      6  C   UNL     1       4.942   4.203  16.376  0.00  0.00    +0.000 A 
ENDROOT
BRANCH   1   8
ATOM      7  C   UNL     1       7.076   4.789  14.634  0.00  0.00    +0.000 C 
ATOM      8  O   UNL     1       7.330   4.642  16.027  0.00  0.00    +0.000 OA
ENDBRANCH   1   8
BRANCH   4   9
ATOM      9  C   UNL     1       3.013   4.222  19.673  0.00  0.00    +0.000 C 
ATOM     10  O   UNL     1       2.684   5.256  20.255  0.00  0.00    +0.000 OA
BRANCH   9  11
ATOM     11  C   UNL     1       2.365   2.864  19.915  0.00  0.00    +0.000 C 
ATOM     12 CL   UNL     1       1.848   2.735  21.613  0.00  0.00    +0.000 Cl
ATOM     13 CL   UNL     1       0.955   2.626  18.855  0.00  0.00    +0.000 Cl
ENDBRANCH   9  11
ENDBRANCH   4   9
TORSDOF 3
ENDMDL
MODEL 8
REMARK VINA RESULT:      -5.6      2.762      5.362
REMARK  Name = 
REMARK  4 active torsions:
REMARK  status: ('A' for Active; 'I' for Inactive)
REMARK    1  A    between atoms: C_1  and  O_2
REMARK    2  A    between atoms: O_2  and  C_3
REMARK    3  A    between atoms: C_6  and  C_7
REMARK    4  A    between atoms: C_7  and  C_9
REMARK                            x       y       z     vdW  Elec       q    Type
REMARK                         _______ _______ _______ _____ _____    ______ ____
ROOT
ATOM      1  C   UNL     1       6.392   5.892  16.754  0.00  0.00    +0.000 A 
ATOM      2  C   UNL     1       5.558   6.306  17.793  0.00  0.00    +0.000 A 
ATOM      3  C   UNL     1       4.402   5.586  18.103  0.00  0.00    +0.000 A 
ATOM      4  C   UNL     1       4.063   4.444  17.368  0.00  0.00    +0.000 A 
ATOM      5  C   UNL     1       4.880   4.050  16.301  0.00  0.00    +0.000 A 
ATOM      6  C   UNL     1       6.041   4.774  15.997  0.00  0.00    +0.000 A 
ENDROOT
BRANCH   1   8
ATOM      7  C   UNL     1       7.687   7.734  17.472  0.00  0.00    +0.000 C 
ATOM      8  O   UNL     1       7.491   6.676  16.541  0.00  0.00    +0.000 OA
ENDBRANCH   1   8
BRANCH   4   9
ATOM      9  C   UNL     1       2.823   3.701  17.755  0.00  0.00    +0.000 C 
ATOM     10  O   UNL     1       2.157   3.206  16.845  0.00  0.00    +0.000 OA
BRANCH   9  11
ATOM     11  C   UNL     1       2.474   3.578  19.232  0.00  0.00    +0.000 C 
ATOM     12 CL   UNL     1       0.865   2.840  19.414  0.00  0.00    +0.000 Cl
ATOM     13 CL   UNL     1       3.673   2.586  20.096  0.00  0.00    +0.000 Cl
ENDBRANCH   9  11
ENDBRANCH   4   9
TORSDOF 3
ENDMDL
MODEL 9
REMARK VINA RESULT:      -5.6      1.334      1.759
REMARK  Name = 
REMARK  4 active torsions:
REMARK  status: ('A' for Active; 'I' for Inactive)
REMARK    1  A    between atoms: C_1  and  O_2
REMARK    2  A    between atoms: O_2  and  C_3
REMARK    3  A    between atoms: C_6  and  C_7
REMARK    4  A    between atoms: C_7  and  C_9
REMARK                            x       y       z     vdW  Elec       q    Type
REMARK                         _______ _______ _______ _____ _____    ______ ____
ROOT
ATOM      1  C   UNL     1       3.036   3.898  19.053  0.00  0.00    +0.000 A 
ATOM      2  C   UNL     1       3.300   3.457  17.756  0.00  0.00    +0.000 A 
ATOM      3  C   UNL     1       4.168   4.173  16.928  0.00  0.00    +0.000 A 
ATOM      4  C   UNL     1       4.777   5.347  17.389  0.00  0.00    +0.000 A 
ATOM      5  C   UNL     1       4.483   5.808  18.678  0.00  0.00    +0.000 A 
ATOM      6  C   UNL     1       3.614   5.084  19.505  0.00  0.00    +0.000 A 
ENDROOT
BRANCH   1   8
ATOM      7  C   UNL     1       1.607   3.721  20.928  0.00  0.00    +0.000 C 
ATOM      8  O   UNL     1       2.169   3.119  19.767  0.00  0.00    +0.000 OA
ENDBRANCH   1   8
BRANCH   4   9
ATOM      9  C   UNL     1       5.712   6.063  16.467  0.00  0.00    +0.000 C 
ATOM     10  O   UNL     1       5.213   6.666  15.516  0.00  0.00    +0.000 OA
BRANCH   9  11
ATOM     11  C   UNL     1       7.205   6.028  16.766  0.00  0.00    +0.000 C 
ATOM     12 CL   UNL     1       7.663   7.456  17.725  0.00  0.00    +0.000 Cl
ATOM     13 CL   UNL     1       7.647   4.556  17.663  0.00  0.00    +0.000 Cl
ENDBRANCH   9  11
ENDBRANCH   4   9
TORSDOF 3
ENDMDL
