MODEL 1
REMARK VINA RESULT:      -8.0      0.000      0.000
REMARK  Name = 
REMARK  10 active torsions:
REMARK  status: ('A' for Active; 'I' for Inactive)
REMARK    1  A    between atoms: C_1  and  N_2
REMARK    2  A    between atoms: C_5  and  C_6
REMARK    3  A    between atoms: C_6  and  N_7
REMARK    4  A    between atoms: C_6  and  C_28
REMARK    5  A    between atoms: N_13  and  C_14
REMARK    6  A    between atoms: C_14  and  C_15
REMARK    7  A    between atoms: C_15  and  N_16
REMARK    8  A    between atoms: C_28  and  C_29
REMARK    9  A    between atoms: C_28  and  C_30
REMARK   10  A    between atoms: C_28  and  C_31
REMARK                            x       y       z     vdW  Elec       q    Type
REMARK                         _______ _______ _______ _____ _____    ______ ____
ROOT
ATOM      1  N   UNL     1       2.283   6.921  19.453  0.00  0.00    +0.000 N 
ATOM      2  C   UNL     1       1.634   7.425  20.544  0.00  0.00    +0.000 C 
ATOM      3  O   UNL     1       1.615   6.815  21.612  0.00  0.00    +0.000 OA
ATOM      4  N   UNL     1       0.977   8.623  20.308  0.00  0.00    +0.000 N 
ATOM      5  C   UNL     1       0.918   9.313  19.065  0.00  0.00    +0.000 A 
ATOM      6  O   UNL     1       1.439   8.944  18.021  0.00  0.00    +0.000 OA
ATOM      7  N   UNL     1       0.174  10.492  19.269  0.00  0.00    +0.000 N 
ATOM      8  C   UNL     1      -0.183  10.557  20.620  0.00  0.00    +0.000 A 
ATOM      9  C   UNL     1      -0.859  11.551  21.302  0.00  0.00    +0.000 A 
ATOM     10  C   UNL     1      -1.100  11.345  22.661  0.00  0.00    +0.000 A 
ATOM     11  C   UNL     1      -0.665  10.169  23.301  0.00  0.00    +0.000 A 
ATOM     12  C   UNL     1       0.036   9.180  22.595  0.00  0.00    +0.000 A 
ATOM     13  C   UNL     1       0.273   9.398  21.255  0.00  0.00    +0.000 A 
ATOM     14  H   UNL     1       2.521   7.594  18.724  0.00  0.00    +0.000 HD
ENDROOT
BRANCH   1  15
ATOM     15  C   UNL     1       3.031   5.665  19.428  0.00  0.00    +0.000 C 
BRANCH  15  20
ATOM     16  C   UNL     1       7.812   5.890  18.437  0.00  0.00    +0.000 C 
ATOM     17  N   UNL     1       6.381   5.963  18.314  0.00  0.00    +0.000 N 
ATOM     18  N   UNL     1       5.790   6.644  17.320  0.00  0.00    +0.000 NA
ATOM     19  N   UNL     1       4.494   6.589  17.593  0.00  0.00    +0.000 NA
ATOM     20  C   UNL     1       4.368   5.888  18.766  0.00  0.00    +0.000 A 
ATOM     21  N   UNL     1       5.553   5.476  19.262  0.00  0.00    +0.000 NA
ENDBRANCH  15  20
BRANCH  15  22
ATOM     22  C   UNL     1       2.157   4.540  18.761  0.00  0.00    +0.000 C 
ATOM     23  C   UNL     1       1.331   5.100  17.587  0.00  0.00    +0.000 C 
ATOM     24  C   UNL     1       3.072   3.415  18.217  0.00  0.00    +0.000 C 
ATOM     25  C   UNL     1       1.179   3.886  19.759  0.00  0.00    +0.000 C 
ENDBRANCH  15  22
ENDBRANCH   1  15
BRANCH   7  26
ATOM     26  C   UNL     1      -0.017  11.566  18.310  0.00  0.00    +0.000 C 
BRANCH  26  27
ATOM     27  C   UNL     1      -1.488  11.747  17.890  0.00  0.00    +0.000 C 
BRANCH  27  28
ATOM     28  N   UNL     1      -2.343  10.543  17.909  0.00  0.00    +0.000 NA
ATOM     29  C   UNL     1      -2.189   9.828  16.610  0.00  0.00    +0.000 C 
ATOM     30  C   UNL     1      -2.807  10.575  15.408  0.00  0.00    +0.000 C 
ATOM     31  O   UNL     1      -4.195  10.862  15.629  0.00  0.00    +0.000 OA
ATOM     32  C   UNL     1      -4.386  11.602  16.841  0.00  0.00    +0.000 C 
ATOM     33  C   UNL     1      -3.784  10.863  18.050  0.00  0.00    +0.000 C 
ENDBRANCH  27  28
ENDBRANCH  26  27
ENDBRANCH   7  26
TORSDOF 6
ENDMDL
MODEL 2
REMARK VINA RESULT:      -7.9      2.595      3.629
REMARK  Name = 
REMARK  10 active torsions:
REMARK  status: ('A' for Active; 'I' for Inactive)
REMARK    1  A    between atoms: C_1  and  N_2
REMARK    2  A    between atoms: C_5  and  C_6
REMARK    3  A    between atoms: C_6  and  N_7
REMARK    4  A    between atoms: C_6  and  C_28
REMARK    5  A    between atoms: N_13  and  C_14
REMARK    6  A    between atoms: C_14  and  C_15
REMARK    7  A    between atoms: C_15  and  N_16
REMARK    8  A    between atoms: C_28  and  C_29
REMARK    9  A    between atoms: C_28  and  C_30
REMARK   10  A    between atoms: C_28  and  C_31
REMARK                            x       y       z     vdW  Elec       q    Type
REMARK                         _______ _______ _______ _____ _____    ______ ____
ROOT
ATOM      1  N   UNL     1       2.812   6.031  19.192  0.00  0.00    +0.000 N 
ATOM      2  C   UNL     1       2.097   6.586  20.215  0.00  0.00    +0.000 C 
ATOM      3  O   UNL     1       1.852   5.951  21.239  0.00  0.00    +0.000 OA
ATOM      4  N   UNL     1       1.646   7.872  19.957  0.00  0.00    +0.000 N 
ATOM      5  C   UNL     1       1.848   8.603  18.754  0.00  0.00    +0.000 A 
ATOM      6  O   UNL     1       2.451   8.198  17.768  0.00  0.00    +0.000 OA
ATOM      7  N   UNL     1       1.250   9.868  18.920  0.00  0.00    +0.000 N 
ATOM      8  C   UNL     1       0.727   9.939  20.215  0.00  0.00    +0.000 A 
ATOM      9  C   UNL     1       0.105  10.995  20.854  0.00  0.00    +0.000 A 
ATOM     10  C   UNL     1      -0.341  10.781  22.159  0.00  0.00    +0.000 A 
ATOM     11  C   UNL     1      -0.160   9.536  22.788  0.00  0.00    +0.000 A 
ATOM     12  C   UNL     1       0.490   8.481  22.130  0.00  0.00    +0.000 A 
ATOM     13  C   UNL     1       0.932   8.707  20.844  0.00  0.00    +0.000 A 
ATOM     14  H   UNL     1       3.236   6.687  18.535  0.00  0.00    +0.000 HD
ENDROOT
BRANCH   1  15
ATOM     15  C   UNL     1       3.380   4.684  19.200  0.00  0.00    +0.000 C 
BRANCH  15  20
ATOM     16  C   UNL     1       7.006   4.991  15.937  0.00  0.00    +0.000 C 
ATOM     17  N   UNL     1       6.279   4.860  17.170  0.00  0.00    +0.000 N 
ATOM     18  N   UNL     1       6.858   4.390  18.286  0.00  0.00    +0.000 NA
ATOM     19  N   UNL     1       5.873   4.300  19.169  0.00  0.00    +0.000 NA
ATOM     20  C   UNL     1       4.730   4.702  18.525  0.00  0.00    +0.000 A 
ATOM     21  N   UNL     1       4.947   5.063  17.243  0.00  0.00    +0.000 NA
ENDBRANCH  15  20
BRANCH  15  22
ATOM     22  C   UNL     1       2.354   3.672  18.571  0.00  0.00    +0.000 C 
ATOM     23  C   UNL     1       1.432   3.072  19.651  0.00  0.00    +0.000 C 
ATOM     24  C   UNL     1       1.469   4.399  17.528  0.00  0.00    +0.000 C 
ATOM     25  C   UNL     1       3.050   2.505  17.841  0.00  0.00    +0.000 C 
ENDBRANCH  15  22
ENDBRANCH   1  15
BRANCH   7  26
ATOM     26  C   UNL     1       1.337  10.989  18.000  0.00  0.00    +0.000 C 
BRANCH  26  27
ATOM     27  C   UNL     1       2.302  12.090  18.479  0.00  0.00    +0.000 C 
BRANCH  27  28
ATOM     28  N   UNL     1       1.989  13.476  18.078  0.00  0.00    +0.000 NA
ATOM     29  C   UNL     1       3.229  14.296  18.189  0.00  0.00    +0.000 C 
ATOM     30  C   UNL     1       3.691  14.537  19.643  0.00  0.00    +0.000 C 
ATOM     31  O   UNL     1       2.653  15.139  20.428  0.00  0.00    +0.000 OA
ATOM     32  C   UNL     1       1.457  14.351  20.399  0.00  0.00    +0.000 C 
ATOM     33  C   UNL     1       0.977  14.113  18.955  0.00  0.00    +0.000 C 
ENDBRANCH  27  28
ENDBRANCH  26  27
ENDBRANCH   7  26
TORSDOF 6
ENDMDL
MODEL 3
REMARK VINA RESULT:      -7.7      0.522      1.157
REMARK  Name = 
REMARK  10 active torsions:
REMARK  status: ('A' for Active; 'I' for Inactive)
REMARK    1  A    between atoms: C_1  and  N_2
REMARK    2  A    between atoms: C_5  and  C_6
REMARK    3  A    between atoms: C_6  and  N_7
REMARK    4  A    between atoms: C_6  and  C_28
REMARK    5  A    between atoms: N_13  and  C_14
REMARK    6  A    between atoms: C_14  and  C_15
REMARK    7  A    between atoms: C_15  and  N_16
REMARK    8  A    between atoms: C_28  and  C_29
REMARK    9  A    between atoms: C_28  and  C_30
REMARK   10  A    between atoms: C_28  and  C_31
REMARK                            x       y       z     vdW  Elec       q    Type
REMARK                         _______ _______ _______ _____ _____    ______ ____
ROOT
ATOM      1  N   UNL     1       2.448   6.563  19.506  0.00  0.00    +0.000 N 
ATOM      2  C   UNL     1       1.789   7.095  20.578  0.00  0.00    +0.000 C 
ATOM      3  O   UNL     1       1.731   6.498  21.652  0.00  0.00    +0.000 OA
ATOM      4  N   UNL     1       1.168   8.307  20.315  0.00  0.00    +0.000 N 
ATOM      5  C   UNL     1       1.153   8.984  19.064  0.00  0.00    +0.000 A 
ATOM      6  O   UNL     1       1.687   8.591  18.036  0.00  0.00    +0.000 OA
ATOM      7  N   UNL     1       0.434  10.183  19.239  0.00  0.00    +0.000 N 
ATOM      8  C   UNL     1       0.050  10.272  20.581  0.00  0.00    +0.000 A 
ATOM      9  C   UNL     1      -0.616  11.290  21.238  0.00  0.00    +0.000 A 
ATOM     10  C   UNL     1      -0.891  11.105  22.594  0.00  0.00    +0.000 A 
ATOM     11  C   UNL     1      -0.500   9.926  23.255  0.00  0.00    +0.000 A 
ATOM     12  C   UNL     1       0.192   8.912  22.575  0.00  0.00    +0.000 A 
ATOM     13  C   UNL     1       0.463   9.109  21.238  0.00  0.00    +0.000 A 
ATOM     14  H   UNL     1       2.720   7.222  18.776  0.00  0.00    +0.000 HD
ENDROOT
BRANCH   1  15
ATOM     15  C   UNL     1       3.165   5.288  19.511  0.00  0.00    +0.000 C 
BRANCH  15  20
ATOM     16  C   UNL     1       7.148   6.553  16.977  0.00  0.00    +0.000 C 
ATOM     17  N   UNL     1       6.281   6.062  18.013  0.00  0.00    +0.000 N 
ATOM     18  N   UNL     1       6.737   5.284  19.007  0.00  0.00    +0.000 NA
ATOM     19  N   UNL     1       5.656   4.934  19.690  0.00  0.00    +0.000 NA
ATOM     20  C   UNL     1       4.585   5.508  19.051  0.00  0.00    +0.000 A 
ATOM     21  N   UNL     1       4.943   6.232  17.971  0.00  0.00    +0.000 NA
ENDBRANCH  15  20
BRANCH  15  22
ATOM     22  C   UNL     1       2.366   4.228  18.669  0.00  0.00    +0.000 C 
ATOM     23  C   UNL     1       1.398   3.425  19.560  0.00  0.00    +0.000 C 
ATOM     24  C   UNL     1       1.536   4.942  17.573  0.00  0.00    +0.000 C 
ATOM     25  C   UNL     1       3.294   3.225  17.954  0.00  0.00    +0.000 C 
ENDBRANCH  15  22
ENDBRANCH   1  15
BRANCH   7  26
ATOM     26  C   UNL     1       0.292  11.252  18.265  0.00  0.00    +0.000 C 
BRANCH  26  27
ATOM     27  C   UNL     1      -1.175  11.532  17.887  0.00  0.00    +0.000 C 
BRANCH  27  28
ATOM     28  N   UNL     1      -2.102  10.383  17.897  0.00  0.00    +0.000 NA
ATOM     29  C   UNL     1      -2.104   9.760  16.542  0.00  0.00    +0.000 C 
ATOM     30  C   UNL     1      -2.772  10.631  15.456  0.00  0.00    +0.000 C 
ATOM     31  O   UNL     1      -4.114  10.981  15.819  0.00  0.00    +0.000 OA
ATOM     32  C   UNL     1      -4.154  11.637  17.092  0.00  0.00    +0.000 C 
ATOM     33  C   UNL     1      -3.501  10.774  18.188  0.00  0.00    +0.000 C 
ENDBRANCH  27  28
ENDBRANCH  26  27
ENDBRANCH   7  26
TORSDOF 6
ENDMDL
MODEL 4
REMARK VINA RESULT:      -7.6      2.466      3.682
REMARK  Name = 
REMARK  10 active torsions:
REMARK  status: ('A' for Active; 'I' for Inactive)
REMARK    1  A    between atoms: C_1  and  N_2
REMARK    2  A    between atoms: C_5  and  C_6
REMARK    3  A    between atoms: C_6  and  N_7
REMARK    4  A    between atoms: C_6  and  C_28
REMARK    5  A    between atoms: N_13  and  C_14
REMARK    6  A    between atoms: C_14  and  C_15
REMARK    7  A    between atoms: C_15  and  N_16
REMARK    8  A    between atoms: C_28  and  C_29
REMARK    9  A    between atoms: C_28  and  C_30
REMARK   10  A    between atoms: C_28  and  C_31
REMARK                            x       y       z     vdW  Elec       q    Type
REMARK                         _______ _______ _______ _____ _____    ______ ____
ROOT
ATOM      1  N   UNL     1       2.653   6.325  19.380  0.00  0.00    +0.000 N 
ATOM      2  C   UNL     1       1.890   6.833  20.392  0.00  0.00    +0.000 C 
ATOM      3  O   UNL     1       1.602   6.154  21.376  0.00  0.00    +0.000 OA
ATOM      4  N   UNL     1       1.446   8.128  20.170  0.00  0.00    +0.000 N 
ATOM      5  C   UNL     1       1.698   8.911  19.011  0.00  0.00    +0.000 A 
ATOM      6  O   UNL     1       2.346   8.551  18.036  0.00  0.00    +0.000 OA
ATOM      7  N   UNL     1       1.087  10.166  19.204  0.00  0.00    +0.000 N 
ATOM      8  C   UNL     1       0.506  10.179  20.476  0.00  0.00    +0.000 A 
ATOM      9  C   UNL     1      -0.147  11.205  21.132  0.00  0.00    +0.000 A 
ATOM     10  C   UNL     1      -0.651  10.934  22.404  0.00  0.00    +0.000 A 
ATOM     11  C   UNL     1      -0.493   9.663  22.987  0.00  0.00    +0.000 A 
ATOM     12  C   UNL     1       0.190   8.639  22.314  0.00  0.00    +0.000 A 
ATOM     13  C   UNL     1       0.689   8.922  21.059  0.00  0.00    +0.000 A 
ATOM     14  H   UNL     1       3.102   7.010  18.772  0.00  0.00    +0.000 HD
ENDROOT
BRANCH   1  15
ATOM     15  C   UNL     1       3.225   4.980  19.355  0.00  0.00    +0.000 C 
BRANCH  15  20
ATOM     16  C   UNL     1       7.093   5.752  16.467  0.00  0.00    +0.000 C 
ATOM     17  N   UNL     1       6.269   5.381  17.586  0.00  0.00    +0.000 N 
ATOM     18  N   UNL     1       6.723   4.584  18.565  0.00  0.00    +0.000 NA
ATOM     19  N   UNL     1       5.673   4.368  19.345  0.00  0.00    +0.000 NA
ATOM     20  C   UNL     1       4.617   5.036  18.775  0.00  0.00    +0.000 A 
ATOM     21  N   UNL     1       4.957   5.691  17.646  0.00  0.00    +0.000 NA
ENDBRANCH  15  20
BRANCH  15  22
ATOM     22  C   UNL     1       2.249   4.001  18.605  0.00  0.00    +0.000 C 
ATOM     23  C   UNL     1       1.434   4.746  17.530  0.00  0.00    +0.000 C 
ATOM     24  C   UNL     1       3.059   2.879  17.909  0.00  0.00    +0.000 C 
ATOM     25  C   UNL     1       1.254   3.315  19.563  0.00  0.00    +0.000 C 
ENDBRANCH  15  22
ENDBRANCH   1  15
BRANCH   7  26
ATOM     26  C   UNL     1       1.211  11.326  18.338  0.00  0.00    +0.000 C 
BRANCH  26  27
ATOM     27  C   UNL     1       2.246  12.349  18.843  0.00  0.00    +0.000 C 
BRANCH  27  28
ATOM     28  N   UNL     1       1.727  13.524  19.571  0.00  0.00    +0.000 NA
ATOM     29  C   UNL     1       1.674  14.681  18.632  0.00  0.00    +0.000 C 
ATOM     30  C   UNL     1       3.063  15.216  18.220  0.00  0.00    +0.000 C 
ATOM     31  O   UNL     1       3.847  15.571  19.367  0.00  0.00    +0.000 OA
ATOM     32  C   UNL     1       3.976  14.467  20.271  0.00  0.00    +0.000 C 
ATOM     33  C   UNL     1       2.597  13.931  20.700  0.00  0.00    +0.000 C 
ENDBRANCH  27  28
ENDBRANCH  26  27
ENDBRANCH   7  26
TORSDOF 6
ENDMDL
MODEL 5
REMARK VINA RESULT:      -7.5      2.329      3.583
REMARK  Name = 
REMARK  10 active torsions:
REMARK  status: ('A' for Active; 'I' for Inactive)
REMARK    1  A    between atoms: C_1  and  N_2
REMARK    2  A    between atoms: C_5  and  C_6
REMARK    3  A    between atoms: C_6  and  N_7
REMARK    4  A    between atoms: C_6  and  C_28
REMARK    5  A    between atoms: N_13  and  C_14
REMARK    6  A    between atoms: C_14  and  C_15
REMARK    7  A    between atoms: C_15  and  N_16
REMARK    8  A    between atoms: C_28  and  C_29
REMARK    9  A    between atoms: C_28  and  C_30
REMARK   10  A    between atoms: C_28  and  C_31
REMARK                            x       y       z     vdW  Elec       q    Type
REMARK                         _______ _______ _______ _____ _____    ______ ____
ROOT
ATOM      1  N   UNL     1       2.571   6.672  19.526  0.00  0.00    +0.000 N 
ATOM      2  C   UNL     1       1.787   7.154  20.536  0.00  0.00    +0.000 C 
ATOM      3  O   UNL     1       1.521   6.466  21.521  0.00  0.00    +0.000 OA
ATOM      4  N   UNL     1       1.295   8.430  20.309  0.00  0.00    +0.000 N 
ATOM      5  C   UNL     1       1.522   9.219  19.148  0.00  0.00    +0.000 A 
ATOM      6  O   UNL     1       2.185   8.881  18.176  0.00  0.00    +0.000 OA
ATOM      7  N   UNL     1       0.864  10.451  19.336  0.00  0.00    +0.000 N 
ATOM      8  C   UNL     1       0.279  10.446  20.607  0.00  0.00    +0.000 A 
ATOM      9  C   UNL     1      -0.414  11.448  21.258  0.00  0.00    +0.000 A 
ATOM     10  C   UNL     1      -0.911  11.162  22.530  0.00  0.00    +0.000 A 
ATOM     11  C   UNL     1      -0.707   9.899  23.116  0.00  0.00    +0.000 A 
ATOM     12  C   UNL     1       0.016   8.900  22.448  0.00  0.00    +0.000 A 
ATOM     13  C   UNL     1       0.507   9.197  21.194  0.00  0.00    +0.000 A 
ATOM     14  H   UNL     1       2.997   7.371  18.918  0.00  0.00    +0.000 HD
ENDROOT
BRANCH   1  15
ATOM     15  C   UNL     1       3.193   5.348  19.507  0.00  0.00    +0.000 C 
BRANCH  15  20
ATOM     16  C   UNL     1       7.255   6.370  16.987  0.00  0.00    +0.000 C 
ATOM     17  N   UNL     1       6.355   5.922  18.015  0.00  0.00    +0.000 N 
ATOM     18  N   UNL     1       6.755   5.093  18.991  0.00  0.00    +0.000 NA
ATOM     19  N   UNL     1       5.652   4.809  19.670  0.00  0.00    +0.000 NA
ATOM     20  C   UNL     1       4.625   5.473  19.047  0.00  0.00    +0.000 A 
ATOM     21  N   UNL     1       5.034   6.191  17.981  0.00  0.00    +0.000 NA
ENDBRANCH  15  20
BRANCH  15  22
ATOM     22  C   UNL     1       2.319   4.363  18.648  0.00  0.00    +0.000 C 
ATOM     23  C   UNL     1       1.300   3.613  19.528  0.00  0.00    +0.000 C 
ATOM     24  C   UNL     1       1.537   5.156  17.571  0.00  0.00    +0.000 C 
ATOM     25  C   UNL     1       3.172   3.312  17.909  0.00  0.00    +0.000 C 
ENDBRANCH  15  22
ENDBRANCH   1  15
BRANCH   7  26
ATOM     26  C   UNL     1       0.947  11.613  18.468  0.00  0.00    +0.000 C 
BRANCH  26  27
ATOM     27  C   UNL     1       2.231  12.436  18.681  0.00  0.00    +0.000 C 
BRANCH  27  28
ATOM     28  N   UNL     1       2.269  13.327  19.858  0.00  0.00    +0.000 NA
ATOM     29  C   UNL     1       1.118  14.271  19.779  0.00  0.00    +0.000 C 
ATOM     30  C   UNL     1       1.245  15.317  18.650  0.00  0.00    +0.000 C 
ATOM     31  O   UNL     1       2.464  16.063  18.764  0.00  0.00    +0.000 OA
ATOM     32  C   UNL     1       3.604  15.196  18.783  0.00  0.00    +0.000 C 
ATOM     33  C   UNL     1       3.497  14.155  19.913  0.00  0.00    +0.000 C 
ENDBRANCH  27  28
ENDBRANCH  26  27
ENDBRANCH   7  26
TORSDOF 6
ENDMDL
MODEL 6
REMARK VINA RESULT:      -7.4      2.257      3.422
REMARK  Name = 
REMARK  10 active torsions:
REMARK  status: ('A' for Active; 'I' for Inactive)
REMARK    1  A    between atoms: C_1  and  N_2
REMARK    2  A    between atoms: C_5  and  C_6
REMARK    3  A    between atoms: C_6  and  N_7
REMARK    4  A    between atoms: C_6  and  C_28
REMARK    5  A    between atoms: N_13  and  C_14
REMARK    6  A    between atoms: C_14  and  C_15
REMARK    7  A    between atoms: C_15  and  N_16
REMARK    8  A    between atoms: C_28  and  C_29
REMARK    9  A    between atoms: C_28  and  C_30
REMARK   10  A    between atoms: C_28  and  C_31
REMARK                            x       y       z     vdW  Elec       q    Type
REMARK                         _______ _______ _______ _____ _____    ______ ____
ROOT
ATOM      1  N   UNL     1       2.569   6.748  19.517  0.00  0.00    +0.000 N 
ATOM      2  C   UNL     1       1.793   7.238  20.528  0.00  0.00    +0.000 C 
ATOM      3  O   UNL     1       1.555   6.568  21.531  0.00  0.00    +0.000 OA
ATOM      4  N   UNL     1       1.277   8.502  20.283  0.00  0.00    +0.000 N 
ATOM      5  C   UNL     1       1.472   9.270  19.102  0.00  0.00    +0.000 A 
ATOM      6  O   UNL     1       2.126   8.922  18.127  0.00  0.00    +0.000 OA
ATOM      7  N   UNL     1       0.797  10.494  19.275  0.00  0.00    +0.000 N 
ATOM      8  C   UNL     1       0.233  10.507  20.555  0.00  0.00    +0.000 A 
ATOM      9  C   UNL     1      -0.467  11.511  21.196  0.00  0.00    +0.000 A 
ATOM     10  C   UNL     1      -0.939  11.244  22.481  0.00  0.00    +0.000 A 
ATOM     11  C   UNL     1      -0.705   9.997  23.091  0.00  0.00    +0.000 A 
ATOM     12  C   UNL     1       0.024   8.996  22.431  0.00  0.00    +0.000 A 
ATOM     13  C   UNL     1       0.490   9.275  21.164  0.00  0.00    +0.000 A 
ATOM     14  H   UNL     1       2.974   7.441  18.887  0.00  0.00    +0.000 HD
ENDROOT
BRANCH   1  15
ATOM     15  C   UNL     1       3.213   5.435  19.515  0.00  0.00    +0.000 C 
BRANCH  15  20
ATOM     16  C   UNL     1       8.073   5.377  18.997  0.00  0.00    +0.000 C 
ATOM     17  N   UNL     1       6.667   5.519  18.731  0.00  0.00    +0.000 N 
ATOM     18  N   UNL     1       6.215   6.192  17.662  0.00  0.00    +0.000 NA
ATOM     19  N   UNL     1       4.897   6.215  17.806  0.00  0.00    +0.000 NA
ATOM     20  C   UNL     1       4.619   5.565  18.983  0.00  0.00    +0.000 A 
ATOM     21  N   UNL     1       5.726   5.110  19.606  0.00  0.00    +0.000 NA
ENDBRANCH  15  20
BRANCH  15  22
ATOM     22  C   UNL     1       2.316   4.406  18.734  0.00  0.00    +0.000 C 
ATOM     23  C   UNL     1       1.529   5.099  17.605  0.00  0.00    +0.000 C 
ATOM     24  C   UNL     1       3.205   3.306  18.101  0.00  0.00    +0.000 C 
ATOM     25  C   UNL     1       1.301   3.696  19.653  0.00  0.00    +0.000 C 
ENDBRANCH  15  22
ENDBRANCH   1  15
BRANCH   7  26
ATOM     26  C   UNL     1       0.847  11.639  18.382  0.00  0.00    +0.000 C 
BRANCH  26  27
ATOM     27  C   UNL     1       2.172  12.419  18.473  0.00  0.00    +0.000 C 
BRANCH  27  28
ATOM     28  N   UNL     1       2.127  13.858  18.145  0.00  0.00    +0.000 NA
ATOM     29  C   UNL     1       3.450  14.463  18.469  0.00  0.00    +0.000 C 
ATOM     30  C   UNL     1       3.746  14.545  19.983  0.00  0.00    +0.000 C 
ATOM     31  O   UNL     1       2.715  15.258  20.679  0.00  0.00    +0.000 OA
ATOM     32  C   UNL     1       1.429  14.673  20.444  0.00  0.00    +0.000 C 
ATOM     33  C   UNL     1       1.115  14.596  18.938  0.00  0.00    +0.000 C 
ENDBRANCH  27  28
ENDBRANCH  26  27
ENDBRANCH   7  26
TORSDOF 6
ENDMDL
MODEL 7
REMARK VINA RESULT:      -7.2      2.046      3.418
REMARK  Name = 
REMARK  10 active torsions:
REMARK  status: ('A' for Active; 'I' for Inactive)
REMARK    1  A    between atoms: C_1  and  N_2
REMARK    2  A    between atoms: C_5  and  C_6
REMARK    3  A    between atoms: C_6  and  N_7
REMARK    4  A    between atoms: C_6  and  C_28
REMARK    5  A    between atoms: N_13  and  C_14
REMARK    6  A    between atoms: C_14  and  C_15
REMARK    7  A    between atoms: C_15  and  N_16
REMARK    8  A    between atoms: C_28  and  C_29
REMARK    9  A    between atoms: C_28  and  C_30
REMARK   10  A    between atoms: C_28  and  C_31
REMARK                            x       y       z     vdW  Elec       q    Type
REMARK                         _______ _______ _______ _____ _____    ______ ____
ROOT
ATOM      1  N   UNL     1       2.316   6.948  19.489  0.00  0.00    +0.000 N 
ATOM      2  C   UNL     1       1.615   7.448  20.550  0.00  0.00    +0.000 C 
ATOM      3  O   UNL     1       1.529   6.826  21.608  0.00  0.00    +0.000 OA
ATOM      4  N   UNL     1       0.989   8.658  20.294  0.00  0.00    +0.000 N 
ATOM      5  C   UNL     1       1.007   9.364  19.059  0.00  0.00    +0.000 A 
ATOM      6  O   UNL     1       1.580   9.000  18.040  0.00  0.00    +0.000 OA
ATOM      7  N   UNL     1       0.269  10.551  19.238  0.00  0.00    +0.000 N 
ATOM      8  C   UNL     1      -0.160  10.605  20.567  0.00  0.00    +0.000 A 
ATOM      9  C   UNL     1      -0.859  11.600  21.225  0.00  0.00    +0.000 A 
ATOM     10  C   UNL     1      -1.176  11.381  22.566  0.00  0.00    +0.000 A 
ATOM     11  C   UNL     1      -0.793  10.191  23.213  0.00  0.00    +0.000 A 
ATOM     12  C   UNL     1      -0.068   9.201  22.534  0.00  0.00    +0.000 A 
ATOM     13  C   UNL     1       0.245   9.431  21.211  0.00  0.00    +0.000 A 
ATOM     14  H   UNL     1       2.603   7.627  18.784  0.00  0.00    +0.000 HD
ENDROOT
BRANCH   1  15
ATOM     15  C   UNL     1       3.047   5.682  19.489  0.00  0.00    +0.000 C 
BRANCH  15  20
ATOM     16  C   UNL     1       7.832   5.793  18.498  0.00  0.00    +0.000 C 
ATOM     17  N   UNL     1       6.403   5.902  18.376  0.00  0.00    +0.000 N 
ATOM     18  N   UNL     1       5.830   6.604  17.387  0.00  0.00    +0.000 NA
ATOM     19  N   UNL     1       4.533   6.580  17.659  0.00  0.00    +0.000 NA
ATOM     20  C   UNL     1       4.389   5.876  18.828  0.00  0.00    +0.000 A 
ATOM     21  N   UNL     1       5.564   5.431  19.321  0.00  0.00    +0.000 NA
ENDBRANCH  15  20
BRANCH  15  22
ATOM     22  C   UNL     1       2.160   4.557  18.840  0.00  0.00    +0.000 C 
ATOM     23  C   UNL     1       1.349   5.107  17.649  0.00  0.00    +0.000 C 
ATOM     24  C   UNL     1       3.061   3.408  18.322  0.00  0.00    +0.000 C 
ATOM     25  C   UNL     1       1.166   3.938  19.844  0.00  0.00    +0.000 C 
ENDBRANCH  15  22
ENDBRANCH   1  15
BRANCH   7  26
ATOM     26  C   UNL     1       0.146  11.640  18.283  0.00  0.00    +0.000 C 
BRANCH  26  27
ATOM     27  C   UNL     1       0.846  12.931  18.747  0.00  0.00    +0.000 C 
BRANCH  27  28
ATOM     28  N   UNL     1       2.258  12.817  19.163  0.00  0.00    +0.000 NA
ATOM     29  C   UNL     1       2.399  13.383  20.534  0.00  0.00    +0.000 C 
ATOM     30  C   UNL     1       2.227  14.916  20.599  0.00  0.00    +0.000 C 
ATOM     31  O   UNL     1       3.139  15.582  19.715  0.00  0.00    +0.000 OA
ATOM     32  C   UNL     1       2.997  15.110  18.369  0.00  0.00    +0.000 C 
ATOM     33  C   UNL     1       3.178  13.583  18.289  0.00  0.00    +0.000 C 
ENDBRANCH  27  28
ENDBRANCH  26  27
ENDBRANCH   7  26
TORSDOF 6
ENDMDL
MODEL 8
REMARK VINA RESULT:      -7.1      2.296      8.476
REMARK  Name = 
REMARK  10 active torsions:
REMARK  status: ('A' for Active; 'I' for Inactive)
REMARK    1  A    between atoms: C_1  and  N_2
REMARK    2  A    between atoms: C_5  and  C_6
REMARK    3  A    between atoms: C_6  and  N_7
REMARK    4  A    between atoms: C_6  and  C_28
REMARK    5  A    between atoms: N_13  and  C_14
REMARK    6  A    between atoms: C_14  and  C_15
REMARK    7  A    between atoms: C_15  and  N_16
REMARK    8  A    between atoms: C_28  and  C_29
REMARK    9  A    between atoms: C_28  and  C_30
REMARK   10  A    between atoms: C_28  and  C_31
REMARK                            x       y       z     vdW  Elec       q    Type
REMARK                         _______ _______ _______ _____ _____    ______ ____
ROOT
ATOM      1  N   UNL     1       0.537  10.489  19.297  0.00  0.00    +0.000 N 
ATOM      2  C   UNL     1       0.738   9.300  19.938  0.00  0.00    +0.000 C 
ATOM      3  O   UNL     1       0.173   9.045  21.001  0.00  0.00    +0.000 OA
ATOM      4  N   UNL     1       1.655   8.469  19.314  0.00  0.00    +0.000 N 
ATOM      5  C   UNL     1       2.381   8.766  18.127  0.00  0.00    +0.000 A 
ATOM      6  O   UNL     1       2.298   9.805  17.484  0.00  0.00    +0.000 OA
ATOM      7  N   UNL     1       3.182   7.647  17.827  0.00  0.00    +0.000 N 
ATOM      8  C   UNL     1       2.927   6.657  18.781  0.00  0.00    +0.000 A 
ATOM      9  C   UNL     1       3.425   5.370  18.866  0.00  0.00    +0.000 A 
ATOM     10  C   UNL     1       3.010   4.592  19.947  0.00  0.00    +0.000 A 
ATOM     11  C   UNL     1       2.118   5.108  20.906  0.00  0.00    +0.000 A 
ATOM     12  C   UNL     1       1.608   6.410  20.793  0.00  0.00    +0.000 A 
ATOM     13  C   UNL     1       2.021   7.166  19.716  0.00  0.00    +0.000 A 
ATOM     14  H   UNL     1       0.775  10.508  18.304  0.00  0.00    +0.000 HD
ENDROOT
BRANCH   1  15
ATOM     15  C   UNL     1      -0.360  11.548  19.756  0.00  0.00    +0.000 C 
BRANCH  15  20
ATOM     16  C   UNL     1      -5.020  11.874  18.316  0.00  0.00    +0.000 C 
ATOM     17  N   UNL     1      -3.598  11.662  18.321  0.00  0.00    +0.000 N 
ATOM     18  N   UNL     1      -2.982  10.981  17.342  0.00  0.00    +0.000 NA
ATOM     19  N   UNL     1      -1.720  10.886  17.736  0.00  0.00    +0.000 NA
ATOM     20  C   UNL     1      -1.642  11.502  18.960  0.00  0.00    +0.000 A 
ATOM     21  N   UNL     1      -2.824  12.006  19.371  0.00  0.00    +0.000 NA
ENDBRANCH  15  20
BRANCH  15  22
ATOM     22  C   UNL     1       0.384  12.933  19.707  0.00  0.00    +0.000 C 
ATOM     23  C   UNL     1       0.298  13.658  21.064  0.00  0.00    +0.000 C 
ATOM     24  C   UNL     1       1.880  12.715  19.368  0.00  0.00    +0.000 C 
ATOM     25  C   UNL     1      -0.193  13.873  18.629  0.00  0.00    +0.000 C 
ENDBRANCH  15  22
ENDBRANCH   1  15
BRANCH   7  26
ATOM     26  C   UNL     1       3.977   7.454  16.626  0.00  0.00    +0.000 C 
BRANCH  26  27
ATOM     27  C   UNL     1       5.005   6.315  16.759  0.00  0.00    +0.000 C 
BRANCH  27  28
ATOM     28  N   UNL     1       6.394   6.615  16.357  0.00  0.00    +0.000 NA
ATOM     29  C   UNL     1       7.013   5.372  15.816  0.00  0.00    +0.000 C 
ATOM     30  C   UNL     1       7.274   4.288  16.884  0.00  0.00    +0.000 C 
ATOM     31  O   UNL     1       8.083   4.793  17.955  0.00  0.00    +0.000 OA
ATOM     32  C   UNL     1       7.493   5.958  18.546  0.00  0.00    +0.000 C 
ATOM     33  C   UNL     1       7.239   7.053  17.494  0.00  0.00    +0.000 C 
ENDBRANCH  27  28
ENDBRANCH  26  27
ENDBRANCH   7  26
TORSDOF 6
ENDMDL
MODEL 9
REMARK VINA RESULT:      -7.1      2.403      8.230
REMARK  Name = 
REMARK  10 active torsions:
REMARK  status: ('A' for Active; 'I' for Inactive)
REMARK    1  A    between atoms: C_1  and  N_2
REMARK    2  A    between atoms: C_5  and  C_6
REMARK    3  A    between atoms: C_6  and  N_7
REMARK    4  A    between atoms: C_6  and  C_28
REMARK    5  A    between atoms: N_13  and  C_14
REMARK    6  A    between atoms: C_14  and  C_15
REMARK    7  A    between atoms: C_15  and  N_16
REMARK    8  A    between atoms: C_28  and  C_29
REMARK    9  A    between atoms: C_28  and  C_30
REMARK   10  A    between atoms: C_28  and  C_31
REMARK                            x       y       z     vdW  Elec       q    Type
REMARK                         _______ _______ _______ _____ _____    ______ ____
ROOT
ATOM      1  N   UNL     1       1.055  10.099  19.163  0.00  0.00    +0.000 N 
ATOM      2  C   UNL     1       1.108   8.938  19.882  0.00  0.00    +0.000 C 
ATOM      3  O   UNL     1       0.503   8.818  20.946  0.00  0.00    +0.000 OA
ATOM      4  N   UNL     1       1.934   7.970  19.330  0.00  0.00    +0.000 N 
ATOM      5  C   UNL     1       2.705   8.106  18.143  0.00  0.00    +0.000 A 
ATOM      6  O   UNL     1       2.752   9.104  17.436  0.00  0.00    +0.000 OA
ATOM      7  N   UNL     1       3.377   6.886  17.931  0.00  0.00    +0.000 N 
ATOM      8  C   UNL     1       2.997   5.994  18.939  0.00  0.00    +0.000 A 
ATOM      9  C   UNL     1       3.343   4.668  19.115  0.00  0.00    +0.000 A 
ATOM     10  C   UNL     1       2.826   4.013  20.233  0.00  0.00    +0.000 A 
ATOM     11  C   UNL     1       1.985   4.687  21.138  0.00  0.00    +0.000 A 
ATOM     12  C   UNL     1       1.629   6.029  20.933  0.00  0.00    +0.000 A 
ATOM     13  C   UNL     1       2.142   6.662  19.821  0.00  0.00    +0.000 A 
ATOM     14  H   UNL     1       1.307  10.026  18.177  0.00  0.00    +0.000 HD
ENDROOT
BRANCH   1  15
ATOM     15  C   UNL     1       0.278  11.280  19.536  0.00  0.00    +0.000 C 
BRANCH  15  20
ATOM     16  C   UNL     1      -3.308  10.731  16.260  0.00  0.00    +0.000 C 
ATOM     17  N   UNL     1      -2.593  10.989  17.481  0.00  0.00    +0.000 N 
ATOM     18  N   UNL     1      -3.162  11.635  18.510  0.00  0.00    +0.000 NA
ATOM     19  N   UNL     1      -2.189  11.791  19.396  0.00  0.00    +0.000 NA
ATOM     20  C   UNL     1      -1.060  11.244  18.839  0.00  0.00    +0.000 A 
ATOM     21  N   UNL     1      -1.277  10.725  17.612  0.00  0.00    +0.000 NA
ENDBRANCH  15  20
BRANCH  15  22
ATOM     22  C   UNL     1       1.121  12.578  19.257  0.00  0.00    +0.000 C 
ATOM     23  C   UNL     1       0.240  13.695  18.663  0.00  0.00    +0.000 C 
ATOM     24  C   UNL     1       1.739  13.100  20.578  0.00  0.00    +0.000 C 
ATOM     25  C   UNL     1       2.286  12.324  18.279  0.00  0.00    +0.000 C 
ENDBRANCH  15  22
ENDBRANCH   1  15
BRANCH   7  26
ATOM     26  C   UNL     1       4.162   6.528  16.762  0.00  0.00    +0.000 C 
BRANCH  26  27
ATOM     27  C   UNL     1       5.629   6.197  17.097  0.00  0.00    +0.000 C 
BRANCH  27  28
ATOM     28  N   UNL     1       6.023   4.775  17.054  0.00  0.00    +0.000 NA
ATOM     29  C   UNL     1       7.403   4.679  16.499  0.00  0.00    +0.000 C 
ATOM     30  C   UNL     1       7.499   5.027  14.998  0.00  0.00    +0.000 C 
ATOM     31  O   UNL     1       6.615   4.212  14.216  0.00  0.00    +0.000 OA
ATOM     32  C   UNL     1       5.263   4.320  14.677  0.00  0.00    +0.000 C 
ATOM     33  C   UNL     1       5.151   3.964  16.171  0.00  0.00    +0.000 C 
ENDBRANCH  27  28
ENDBRANCH  26  27
ENDBRANCH   7  26
TORSDOF 6
ENDMDL
