MODEL 1
REMARK VINA RESULT:      -6.6      0.000      0.000
REMARK  Name = 
REMARK  3 active torsions:
REMARK  status: ('A' for Active; 'I' for Inactive)
REMARK    1  A    between atoms: C_2  and  C_5
REMARK    2  A    between atoms: C_5  and  O_6
REMARK    3  A    between atoms: O_6  and  C_7
REMARK                            x       y       z     vdW  Elec       q    Type
REMARK                         _______ _______ _______ _____ _____    ______ ____
ROOT
ATOM      1  C   UNL     1       4.880   4.412  17.694  0.00  0.00    +0.000 A 
ATOM      2  C   UNL     1       3.825   3.570  17.403  0.00  0.00    +0.000 A 
ATOM      3  C   UNL     1       2.810   3.548  18.410  0.00  0.00    +0.000 A 
ATOM      4  C   UNL     1       1.580   2.851  18.450  0.00  0.00    +0.000 A 
ATOM      5  C   UNL     1       0.721   3.003  19.539  0.00  0.00    +0.000 A 
ATOM      6  C   UNL     1       1.073   3.829  20.598  0.00  0.00    +0.000 A 
ATOM      7  C   UNL     1       2.291   4.514  20.593  0.00  0.00    +0.000 A 
ATOM      8  C   UNL     1       3.150   4.364  19.488  0.00  0.00    +0.000 A 
ATOM      9  S   UNL     1       4.690   5.095  19.249  0.00  0.00    +0.000 S 
ENDROOT
BRANCH   1  10
ATOM     10  O   UNL     1       5.968   4.719  16.976  0.00  0.00    +0.000 OA
BRANCH  10  11
ATOM     11  C   UNL     1       6.148   3.957  15.778  0.00  0.00    +0.000 C 
BRANCH  11  13
ATOM     12  F   UNL     1       7.047   5.094  13.863  0.00  0.00    +0.000 F 
ATOM     13  C   UNL     1       5.911   4.792  14.526  0.00  0.00    +0.000 C 
ATOM     14  F   UNL     1       5.291   5.955  14.831  0.00  0.00    +0.000 F 
ATOM     15  F   UNL     1       5.104   4.127  13.662  0.00  0.00    +0.000 F 
ENDBRANCH  11  13
ENDBRANCH  10  11
ENDBRANCH   1  10
TORSDOF 3
ENDMDL
MODEL 2
REMARK VINA RESULT:      -6.5      4.183      6.028
REMARK  Name = 
REMARK  3 active torsions:
REMARK  status: ('A' for Active; 'I' for Inactive)
REMARK    1  A    between atoms: C_2  and  C_5
REMARK    2  A    between atoms: C_5  and  O_6
REMARK    3  A    between atoms: O_6  and  C_7
REMARK                            x       y       z     vdW  Elec       q    Type
REMARK                         _______ _______ _______ _____ _____    ______ ____
ROOT
ATOM      1  C   UNL     1       3.309   4.021  18.469  0.00  0.00    +0.000 A 
ATOM      2  C   UNL     1       3.433   5.192  17.748  0.00  0.00    +0.000 A 
ATOM      3  C   UNL     1       4.757   5.733  17.750  0.00  0.00    +0.000 A 
ATOM      4  C   UNL     1       5.276   6.878  17.102  0.00  0.00    +0.000 A 
ATOM      5  C   UNL     1       6.627   7.205  17.228  0.00  0.00    +0.000 A 
ATOM      6  C   UNL     1       7.469   6.417  18.001  0.00  0.00    +0.000 A 
ATOM      7  C   UNL     1       6.978   5.291  18.667  0.00  0.00    +0.000 A 
ATOM      8  C   UNL     1       5.616   4.961  18.531  0.00  0.00    +0.000 A 
ATOM      9  S   UNL     1       4.782   3.637  19.246  0.00  0.00    +0.000 S 
ENDROOT
BRANCH   1  10
ATOM     10  O   UNL     1       2.250   3.220  18.647  0.00  0.00    +0.000 OA
BRANCH  10  11
ATOM     11  C   UNL     1       2.189   2.556  19.914  0.00  0.00    +0.000 C 
BRANCH  11  13
ATOM     12  F   UNL     1       0.484   4.162  20.441  0.00  0.00    +0.000 F 
ATOM     13  C   UNL     1       1.455   3.383  20.961  0.00  0.00    +0.000 C 
ATOM     14  F   UNL     1       2.313   4.187  21.630  0.00  0.00    +0.000 F 
ATOM     15  F   UNL     1       0.873   2.572  21.880  0.00  0.00    +0.000 F 
ENDBRANCH  11  13
ENDBRANCH  10  11
ENDBRANCH   1  10
TORSDOF 3
ENDMDL
MODEL 3
REMARK VINA RESULT:      -6.5      4.280      6.238
REMARK  Name = 
REMARK  3 active torsions:
REMARK  status: ('A' for Active; 'I' for Inactive)
REMARK    1  A    between atoms: C_2  and  C_5
REMARK    2  A    between atoms: C_5  and  O_6
REMARK    3  A    between atoms: O_6  and  C_7
REMARK                            x       y       z     vdW  Elec       q    Type
REMARK                         _______ _______ _______ _____ _____    ______ ____
ROOT
ATOM      1  C   UNL     1       4.009   3.971  18.749  0.00  0.00    +0.000 A 
ATOM      2  C   UNL     1       5.252   4.115  19.334  0.00  0.00    +0.000 A 
ATOM      3  C   UNL     1       6.032   5.177  18.778  0.00  0.00    +0.000 A 
ATOM      4  C   UNL     1       7.316   5.649  19.136  0.00  0.00    +0.000 A 
ATOM      5  C   UNL     1       7.879   6.734  18.460  0.00  0.00    +0.000 A 
ATOM      6  C   UNL     1       7.189   7.348  17.424  0.00  0.00    +0.000 A 
ATOM      7  C   UNL     1       5.926   6.889  17.038  0.00  0.00    +0.000 A 
ATOM      8  C   UNL     1       5.359   5.801  17.728  0.00  0.00    +0.000 A 
ATOM      9  S   UNL     1       3.833   5.060  17.443  0.00  0.00    +0.000 S 
ENDROOT
BRANCH   1  10
ATOM     10  O   UNL     1       3.008   3.130  19.036  0.00  0.00    +0.000 OA
BRANCH  10  11
ATOM     11  C   UNL     1       2.763   2.920  20.431  0.00  0.00    +0.000 C 
BRANCH  11  13
ATOM     12  F   UNL     1       0.919   2.566  21.928  0.00  0.00    +0.000 F 
ATOM     13  C   UNL     1       1.316   3.208  20.810  0.00  0.00    +0.000 C 
ATOM     14  F   UNL     1       0.475   2.852  19.811  0.00  0.00    +0.000 F 
ATOM     15  F   UNL     1       1.140   4.536  21.023  0.00  0.00    +0.000 F 
ENDBRANCH  11  13
ENDBRANCH  10  11
ENDBRANCH   1  10
TORSDOF 3
ENDMDL
MODEL 4
REMARK VINA RESULT:      -6.4      3.840      5.712
REMARK  Name = 
REMARK  3 active torsions:
REMARK  status: ('A' for Active; 'I' for Inactive)
REMARK    1  A    between atoms: C_2  and  C_5
REMARK    2  A    between atoms: C_5  and  O_6
REMARK    3  A    between atoms: O_6  and  C_7
REMARK                            x       y       z     vdW  Elec       q    Type
REMARK                         _______ _______ _______ _____ _____    ______ ____
ROOT
ATOM      1  C   UNL     1       3.920   3.941  17.679  0.00  0.00    +0.000 A 
ATOM      2  C   UNL     1       4.377   4.974  16.884  0.00  0.00    +0.000 A 
ATOM      3  C   UNL     1       5.555   5.610  17.385  0.00  0.00    +0.000 A 
ATOM      4  C   UNL     1       6.328   6.661  16.838  0.00  0.00    +0.000 A 
ATOM      5  C   UNL     1       7.472   7.111  17.500  0.00  0.00    +0.000 A 
ATOM      6  C   UNL     1       7.852   6.539  18.707  0.00  0.00    +0.000 A 
ATOM      7  C   UNL     1       7.097   5.512  19.279  0.00  0.00    +0.000 A 
ATOM      8  C   UNL     1       5.948   5.057  18.603  0.00  0.00    +0.000 A 
ATOM      9  S   UNL     1       4.863   3.816  19.099  0.00  0.00    +0.000 S 
ENDROOT
BRANCH   1  10
ATOM     10  O   UNL     1       2.891   3.103  17.505  0.00  0.00    +0.000 OA
BRANCH  10  11
ATOM     11  C   UNL     1       2.524   2.334  18.655  0.00  0.00    +0.000 C 
BRANCH  11  13
ATOM     12  F   UNL     1       1.079   2.539  20.562  0.00  0.00    +0.000 F 
ATOM     13  C   UNL     1       1.187   2.773  19.238  0.00  0.00    +0.000 C 
ATOM     14  F   UNL     1       0.161   2.139  18.624  0.00  0.00    +0.000 F 
ATOM     15  F   UNL     1       1.003   4.103  19.047  0.00  0.00    +0.000 F 
ENDBRANCH  11  13
ENDBRANCH  10  11
ENDBRANCH   1  10
TORSDOF 3
ENDMDL
MODEL 5
REMARK VINA RESULT:      -6.4      3.935      5.928
REMARK  Name = 
REMARK  3 active torsions:
REMARK  status: ('A' for Active; 'I' for Inactive)
REMARK    1  A    between atoms: C_2  and  C_5
REMARK    2  A    between atoms: C_5  and  O_6
REMARK    3  A    between atoms: O_6  and  C_7
REMARK                            x       y       z     vdW  Elec       q    Type
REMARK                         _______ _______ _______ _____ _____    ______ ____
ROOT
ATOM      1  C   UNL     1       2.391   4.155  17.842  0.00  0.00    +0.000 A 
ATOM      2  C   UNL     1       3.299   3.482  17.048  0.00  0.00    +0.000 A 
ATOM      3  C   UNL     1       4.485   4.231  16.766  0.00  0.00    +0.000 A 
ATOM      4  C   UNL     1       5.640   3.868  16.035  0.00  0.00    +0.000 A 
ATOM      5  C   UNL     1       6.702   4.765  15.909  0.00  0.00    +0.000 A 
ATOM      6  C   UNL     1       6.628   6.024  16.490  0.00  0.00    +0.000 A 
ATOM      7  C   UNL     1       5.490   6.414  17.202  0.00  0.00    +0.000 A 
ATOM      8  C   UNL     1       4.425   5.503  17.333  0.00  0.00    +0.000 A 
ATOM      9  S   UNL     1       2.932   5.747  18.153  0.00  0.00    +0.000 S 
ENDROOT
BRANCH   1  10
ATOM     10  O   UNL     1       1.213   3.759  18.339  0.00  0.00    +0.000 OA
BRANCH  10  11
ATOM     11  C   UNL     1       1.285   2.777  19.379  0.00  0.00    +0.000 C 
BRANCH  11  13
ATOM     12  F   UNL     1       0.883   2.652  21.743  0.00  0.00    +0.000 F 
ATOM     13  C   UNL     1       1.410   3.409  20.759  0.00  0.00    +0.000 C 
ATOM     14  F   UNL     1       0.796   4.615  20.794  0.00  0.00    +0.000 F 
ATOM     15  F   UNL     1       2.715   3.619  21.065  0.00  0.00    +0.000 F 
ENDBRANCH  11  13
ENDBRANCH  10  11
ENDBRANCH   1  10
TORSDOF 3
ENDMDL
MODEL 6
REMARK VINA RESULT:      -6.4      3.982      6.100
REMARK  Name = 
REMARK  3 active torsions:
REMARK  status: ('A' for Active; 'I' for Inactive)
REMARK    1  A    between atoms: C_2  and  C_5
REMARK    2  A    between atoms: C_5  and  O_6
REMARK    3  A    between atoms: O_6  and  C_7
REMARK                            x       y       z     vdW  Elec       q    Type
REMARK                         _______ _______ _______ _____ _____    ______ ____
ROOT
ATOM      1  C   UNL     1       3.352   5.043  19.288  0.00  0.00    +0.000 A 
ATOM      2  C   UNL     1       4.721   5.129  19.443  0.00  0.00    +0.000 A 
ATOM      3  C   UNL     1       5.456   4.854  18.247  0.00  0.00    +0.000 A 
ATOM      4  C   UNL     1       6.849   4.883  18.006  0.00  0.00    +0.000 A 
ATOM      5  C   UNL     1       7.348   4.600  16.733  0.00  0.00    +0.000 A 
ATOM      6  C   UNL     1       6.481   4.275  15.698  0.00  0.00    +0.000 A 
ATOM      7  C   UNL     1       5.102   4.221  15.914  0.00  0.00    +0.000 A 
ATOM      8  C   UNL     1       4.603   4.515  17.198  0.00  0.00    +0.000 A 
ATOM      9  S   UNL     1       2.960   4.516  17.709  0.00  0.00    +0.000 S 
ENDROOT
BRANCH   1  10
ATOM     10  O   UNL     1       2.364   5.275  20.161  0.00  0.00    +0.000 OA
BRANCH  10  11
ATOM     11  C   UNL     1       2.276   4.350  21.249  0.00  0.00    +0.000 C 
BRANCH  11  13
ATOM     12  F   UNL     1       2.118   2.167  20.261  0.00  0.00    +0.000 F 
ATOM     13  C   UNL     1       1.427   3.133  20.902  0.00  0.00    +0.000 C 
ATOM     14  F   UNL     1       0.382   3.482  20.116  0.00  0.00    +0.000 F 
ATOM     15  F   UNL     1       0.911   2.581  22.028  0.00  0.00    +0.000 F 
ENDBRANCH  11  13
ENDBRANCH  10  11
ENDBRANCH   1  10
TORSDOF 3
ENDMDL
MODEL 7
REMARK VINA RESULT:      -6.4      3.926      6.010
REMARK  Name = 
REMARK  3 active torsions:
REMARK  status: ('A' for Active; 'I' for Inactive)
REMARK    1  A    between atoms: C_2  and  C_5
REMARK    2  A    between atoms: C_5  and  O_6
REMARK    3  A    between atoms: O_6  and  C_7
REMARK                            x       y       z     vdW  Elec       q    Type
REMARK                         _______ _______ _______ _____ _____    ______ ____
ROOT
ATOM      1  C   UNL     1       4.115   4.310  18.988  0.00  0.00    +0.000 A 
ATOM      2  C   UNL     1       3.846   3.940  17.685  0.00  0.00    +0.000 A 
ATOM      3  C   UNL     1       4.912   4.222  16.774  0.00  0.00    +0.000 A 
ATOM      4  C   UNL     1       5.024   3.955  15.390  0.00  0.00    +0.000 A 
ATOM      5  C   UNL     1       6.186   4.301  14.698  0.00  0.00    +0.000 A 
ATOM      6  C   UNL     1       7.236   4.922  15.362  0.00  0.00    +0.000 A 
ATOM      7  C   UNL     1       7.144   5.214  16.725  0.00  0.00    +0.000 A 
ATOM      8  C   UNL     1       5.973   4.855  17.420  0.00  0.00    +0.000 A 
ATOM      9  S   UNL     1       5.624   5.106  19.086  0.00  0.00    +0.000 S 
ENDROOT
BRANCH   1  10
ATOM     10  O   UNL     1       3.384   4.160  20.100  0.00  0.00    +0.000 OA
BRANCH  10  11
ATOM     11  C   UNL     1       2.625   2.948  20.177  0.00  0.00    +0.000 C 
BRANCH  11  13
ATOM     12  F   UNL     1       0.300   2.701  19.632  0.00  0.00    +0.000 F 
ATOM     13  C   UNL     1       1.167   3.205  20.535  0.00  0.00    +0.000 C 
ATOM     14  F   UNL     1       0.923   4.532  20.642  0.00  0.00    +0.000 F 
ATOM     15  F   UNL     1       0.870   2.649  21.735  0.00  0.00    +0.000 F 
ENDBRANCH  11  13
ENDBRANCH  10  11
ENDBRANCH   1  10
TORSDOF 3
ENDMDL
MODEL 8
REMARK VINA RESULT:      -6.4      2.482      2.892
REMARK  Name = 
REMARK  3 active torsions:
REMARK  status: ('A' for Active; 'I' for Inactive)
REMARK    1  A    between atoms: C_2  and  C_5
REMARK    2  A    between atoms: C_5  and  O_6
REMARK    3  A    between atoms: O_6  and  C_7
REMARK                            x       y       z     vdW  Elec       q    Type
REMARK                         _______ _______ _______ _____ _____    ______ ____
ROOT
ATOM      1  C   UNL     1       4.619   5.170  17.281  0.00  0.00    +0.000 A 
ATOM      2  C   UNL     1       4.210   3.864  17.099  0.00  0.00    +0.000 A 
ATOM      3  C   UNL     1       3.073   3.500  17.886  0.00  0.00    +0.000 A 
ATOM      4  C   UNL     1       2.352   2.285  17.940  0.00  0.00    +0.000 A 
ATOM      5  C   UNL     1       1.241   2.163  18.777  0.00  0.00    +0.000 A 
ATOM      6  C   UNL     1       0.844   3.230  19.572  0.00  0.00    +0.000 A 
ATOM      7  C   UNL     1       1.550   4.435  19.551  0.00  0.00    +0.000 A 
ATOM      8  C   UNL     1       2.665   4.556  18.700  0.00  0.00    +0.000 A 
ATOM      9  S   UNL     1       3.687   5.926  18.498  0.00  0.00    +0.000 S 
ENDROOT
BRANCH   1  10
ATOM     10  O   UNL     1       5.601   5.863  16.689  0.00  0.00    +0.000 OA
BRANCH  10  11
ATOM     11  C   UNL     1       6.306   6.776  17.537  0.00  0.00    +0.000 C 
BRANCH  11  13
ATOM     12  F   UNL     1       7.938   5.024  17.714  0.00  0.00    +0.000 F 
ATOM     13  C   UNL     1       7.395   6.085  18.346  0.00  0.00    +0.000 C 
ATOM     14  F   UNL     1       6.913   5.653  19.535  0.00  0.00    +0.000 F 
ATOM     15  F   UNL     1       8.403   6.952  18.618  0.00  0.00    +0.000 F 
ENDBRANCH  11  13
ENDBRANCH  10  11
ENDBRANCH   1  10
TORSDOF 3
ENDMDL
MODEL 9
REMARK VINA RESULT:      -6.3      2.543      2.969
REMARK  Name = 
REMARK  3 active torsions:
REMARK  status: ('A' for Active; 'I' for Inactive)
REMARK    1  A    between atoms: C_2  and  C_5
REMARK    2  A    between atoms: C_5  and  O_6
REMARK    3  A    between atoms: O_6  and  C_7
REMARK                            x       y       z     vdW  Elec       q    Type
REMARK                         _______ _______ _______ _____ _____    ______ ____
ROOT
ATOM      1  C   UNL     1       4.699   4.767  17.750  0.00  0.00    +0.000 A 
ATOM      2  C   UNL     1       3.981   3.642  17.395  0.00  0.00    +0.000 A 
ATOM      3  C   UNL     1       2.838   3.404  18.221  0.00  0.00    +0.000 A 
ATOM      4  C   UNL     1       1.853   2.392  18.144  0.00  0.00    +0.000 A 
ATOM      5  C   UNL     1       0.796   2.369  19.056  0.00  0.00    +0.000 A 
ATOM      6  C   UNL     1       0.711   3.332  20.052  0.00  0.00    +0.000 A 
ATOM      7  C   UNL     1       1.681   4.332  20.162  0.00  0.00    +0.000 A 
ATOM      8  C   UNL     1       2.741   4.355  19.235  0.00  0.00    +0.000 A 
ATOM      9  S   UNL     1       4.046   5.474  19.163  0.00  0.00    +0.000 S 
ENDROOT
BRANCH   1  10
ATOM     10  O   UNL     1       5.781   5.319  17.186  0.00  0.00    +0.000 OA
BRANCH  10  11
ATOM     11  C   UNL     1       6.359   6.413  17.907  0.00  0.00    +0.000 C 
BRANCH  11  13
ATOM     12  F   UNL     1       8.541   6.977  18.736  0.00  0.00    +0.000 F 
ATOM     13  C   UNL     1       7.611   6.001  18.670  0.00  0.00    +0.000 C 
ATOM     14  F   UNL     1       8.190   4.920  18.098  0.00  0.00    +0.000 F 
ATOM     15  F   UNL     1       7.296   5.656  19.943  0.00  0.00    +0.000 F 
ENDBRANCH  11  13
ENDBRANCH  10  11
ENDBRANCH   1  10
TORSDOF 3
ENDMDL
