MODEL 1
REMARK VINA RESULT:      -8.2      0.000      0.000
REMARK  Name = 
REMARK  10 active torsions:
REMARK  status: ('A' for Active; 'I' for Inactive)
REMARK    1  A    between atoms: C_4  and  C_5
REMARK    2  A    between atoms: C_16  and  O_17
REMARK    3  A    between atoms: O_17  and  C_18
REMARK    4  A    between atoms: C_18  and  C_19
REMARK    5  A    between atoms: C_19  and  C_20
REMARK    6  A    between atoms: C_20  and  C_21
REMARK    7  A    between atoms: C_21  and  C_22
REMARK    8  A    between atoms: C_22  and  C_23
REMARK    9  A    between atoms: C_23  and  N_24
REMARK   10  A    between atoms: C_27  and  O_28
REMARK                            x       y       z     vdW  Elec       q    Type
REMARK                         _______ _______ _______ _____ _____    ______ ____
ROOT
ATOM      1  O   UNL     1       2.913   8.268  17.270  0.00  0.00    +0.000 OA
ATOM      2  C   UNL     1       2.500   7.822  18.331  0.00  0.00    +0.000 A 
ATOM      3  C   UNL     1       1.740   8.801  19.104  0.00  0.00    +0.000 A 
ATOM      4  C   UNL     1       1.270   8.460  20.293  0.00  0.00    +0.000 A 
ATOM      5  O   UNL     1       1.467   7.248  20.902  0.00  0.00    +0.000 OA
ATOM      6  C   UNL     1       2.138   6.267  20.204  0.00  0.00    +0.000 A 
ATOM      7  C   UNL     1       2.234   5.056  20.903  0.00  0.00    +0.000 A 
ATOM      8  C   UNL     1       2.849   3.962  20.319  0.00  0.00    +0.000 A 
ATOM      9  C   UNL     1       3.360   4.084  19.033  0.00  0.00    +0.000 A 
ATOM     10  C   UNL     1       3.283   5.294  18.308  0.00  0.00    +0.000 A 
ATOM     11  C   UNL     1       2.669   6.429  18.905  0.00  0.00    +0.000 A 
ENDROOT
BRANCH   4  12
ATOM     12  C   UNL     1       0.462   9.411  21.044  0.00  0.00    +0.000 A 
ATOM     13  C   UNL     1       0.215   9.189  22.405  0.00  0.00    +0.000 A 
ATOM     14  C   UNL     1      -0.575  10.085  23.121  0.00  0.00    +0.000 A 
ATOM     15  C   UNL     1      -1.121  11.198  22.481  0.00  0.00    +0.000 A 
ATOM     16  C   UNL     1      -0.886  11.412  21.124  0.00  0.00    +0.000 A 
ATOM     17  C   UNL     1      -0.101  10.518  20.401  0.00  0.00    +0.000 A 
ENDBRANCH   4  12
BRANCH  10  18
ATOM     18  O   UNL     1       3.858   5.091  17.070  0.00  0.00    +0.000 OA
BRANCH  18  19
ATOM     19  C   UNL     1       5.255   5.231  17.025  0.00  0.00    +0.000 C 
BRANCH  19  20
ATOM     20  C   UNL     1       5.758   6.646  16.894  0.00  0.00    +0.000 C 
BRANCH  20  21
ATOM     21  C   UNL     1       7.111   6.683  17.602  0.00  0.00    +0.000 C 
BRANCH  21  22
ATOM     22  C   UNL     1       7.890   7.934  17.263  0.00  0.00    +0.000 C 
BRANCH  22  23
ATOM     23  C   UNL     1       8.441   8.542  18.544  0.00  0.00    +0.000 C 
BRANCH  23  24
ATOM     24  C   UNL     1       8.495  10.065  18.449  0.00  0.00    +0.000 C 
BRANCH  24  25
ATOM     25  N   UNL     1       9.793  10.634  18.848  0.00  0.00    +0.000 NA
ATOM     26  C   UNL     1       9.613  11.444  20.063  0.00  0.00    +0.000 C 
ATOM     27  C   UNL     1      10.938  12.018  20.560  0.00  0.00    +0.000 C 
ATOM     28  C   UNL     1      11.665  12.796  19.470  0.00  0.00    +0.000 C 
ATOM     29  C   UNL     1      11.777  11.972  18.198  0.00  0.00    +0.000 C 
ATOM     30  C   UNL     1      10.426  11.407  17.769  0.00  0.00    +0.000 C 
BRANCH  28  31
ATOM     31  O   UNL     1      11.001  14.033  19.209  0.00  0.00    +0.000 OA
ATOM     32  H   UNL     1      11.526  14.536  18.565  0.00  0.00    +0.000 HD
ENDBRANCH  28  31
ENDBRANCH  24  25
ENDBRANCH  23  24
ENDBRANCH  22  23
ENDBRANCH  21  22
ENDBRANCH  20  21
ENDBRANCH  19  20
ENDBRANCH  18  19
ENDBRANCH  10  18
TORSDOF 10
ENDMDL
MODEL 2
REMARK VINA RESULT:      -8.0      4.364      6.426
REMARK  Name = 
REMARK  10 active torsions:
REMARK  status: ('A' for Active; 'I' for Inactive)
REMARK    1  A    between atoms: C_4  and  C_5
REMARK    2  A    between atoms: C_16  and  O_17
REMARK    3  A    between atoms: O_17  and  C_18
REMARK    4  A    between atoms: C_18  and  C_19
REMARK    5  A    between atoms: C_19  and  C_20
REMARK    6  A    between atoms: C_20  and  C_21
REMARK    7  A    between atoms: C_21  and  C_22
REMARK    8  A    between atoms: C_22  and  C_23
REMARK    9  A    between atoms: C_23  and  N_24
REMARK   10  A    between atoms: C_27  and  O_28
REMARK                            x       y       z     vdW  Elec       q    Type
REMARK                         _______ _______ _______ _____ _____    ______ ____
ROOT
ATOM      1  O   UNL     1      -0.227   8.979  22.076  0.00  0.00    +0.000 OA
ATOM      2  C   UNL     1       0.256   9.480  21.070  0.00  0.00    +0.000 A 
ATOM      3  C   UNL     1      -0.079  10.894  20.921  0.00  0.00    +0.000 A 
ATOM      4  C   UNL     1       0.346  11.548  19.851  0.00  0.00    +0.000 A 
ATOM      5  O   UNL     1       1.063  10.996  18.821  0.00  0.00    +0.000 OA
ATOM      6  C   UNL     1       1.448   9.677  18.926  0.00  0.00    +0.000 A 
ATOM      7  C   UNL     1       2.218   9.237  17.842  0.00  0.00    +0.000 A 
ATOM      8  C   UNL     1       2.712   7.944  17.818  0.00  0.00    +0.000 A 
ATOM      9  C   UNL     1       2.437   7.099  18.885  0.00  0.00    +0.000 A 
ATOM     10  C   UNL     1       1.658   7.513  19.987  0.00  0.00    +0.000 A 
ATOM     11  C   UNL     1       1.131   8.834  20.014  0.00  0.00    +0.000 A 
ENDROOT
BRANCH   4  12
ATOM     12  C   UNL     1       0.065  12.971  19.724  0.00  0.00    +0.000 A 
ATOM     13  C   UNL     1       0.956  13.794  19.022  0.00  0.00    +0.000 A 
ATOM     14  C   UNL     1       0.703  15.159  18.917  0.00  0.00    +0.000 A 
ATOM     15  C   UNL     1      -0.435  15.704  19.513  0.00  0.00    +0.000 A 
ATOM     16  C   UNL     1      -1.315  14.889  20.223  0.00  0.00    +0.000 A 
ATOM     17  C   UNL     1      -1.064  13.523  20.335  0.00  0.00    +0.000 A 
ENDBRANCH   4  12
BRANCH  10  18
ATOM     18  O   UNL     1       1.580   6.463  20.880  0.00  0.00    +0.000 OA
BRANCH  18  19
ATOM     19  C   UNL     1       2.036   5.226  20.395  0.00  0.00    +0.000 C 
BRANCH  19  20
ATOM     20  C   UNL     1       1.036   4.100  20.458  0.00  0.00    +0.000 C 
BRANCH  20  21
ATOM     21  C   UNL     1       1.832   2.813  20.251  0.00  0.00    +0.000 C 
BRANCH  21  22
ATOM     22  C   UNL     1       1.478   2.136  18.946  0.00  0.00    +0.000 C 
BRANCH  22  23
ATOM     23  C   UNL     1       2.497   2.532  17.887  0.00  0.00    +0.000 C 
BRANCH  23  24
ATOM     24  C   UNL     1       3.847   2.857  18.520  0.00  0.00    +0.000 C 
BRANCH  24  25
ATOM     25  N   UNL     1       4.459   4.091  17.999  0.00  0.00    +0.000 NA
ATOM     26  C   UNL     1       4.669   3.952  16.549  0.00  0.00    +0.000 C 
ATOM     27  C   UNL     1       5.251   5.225  15.938  0.00  0.00    +0.000 C 
ATOM     28  C   UNL     1       6.525   5.665  16.649  0.00  0.00    +0.000 C 
ATOM     29  C   UNL     1       6.312   5.732  18.152  0.00  0.00    +0.000 C 
ATOM     30  C   UNL     1       5.706   4.442  18.696  0.00  0.00    +0.000 C 
BRANCH  28  31
ATOM     31  O   UNL     1       7.605   4.785  16.335  0.00  0.00    +0.000 OA
ATOM     32  H   UNL     1       7.518   3.983  16.876  0.00  0.00    +0.000 HD
ENDBRANCH  28  31
ENDBRANCH  24  25
ENDBRANCH  23  24
ENDBRANCH  22  23
ENDBRANCH  21  22
ENDBRANCH  20  21
ENDBRANCH  19  20
ENDBRANCH  18  19
ENDBRANCH  10  18
TORSDOF 10
ENDMDL
MODEL 3
REMARK VINA RESULT:      -8.0      4.090      6.061
REMARK  Name = 
REMARK  10 active torsions:
REMARK  status: ('A' for Active; 'I' for Inactive)
REMARK    1  A    between atoms: C_4  and  C_5
REMARK    2  A    between atoms: C_16  and  O_17
REMARK    3  A    between atoms: O_17  and  C_18
REMARK    4  A    between atoms: C_18  and  C_19
REMARK    5  A    between atoms: C_19  and  C_20
REMARK    6  A    between atoms: C_20  and  C_21
REMARK    7  A    between atoms: C_21  and  C_22
REMARK    8  A    between atoms: C_22  and  C_23
REMARK    9  A    between atoms: C_23  and  N_24
REMARK   10  A    between atoms: C_27  and  O_28
REMARK                            x       y       z     vdW  Elec       q    Type
REMARK                         _______ _______ _______ _____ _____    ______ ____
ROOT
ATOM      1  O   UNL     1      -0.193   8.862  22.255  0.00  0.00    +0.000 OA
ATOM      2  C   UNL     1       0.215   9.399  21.235  0.00  0.00    +0.000 A 
ATOM      3  C   UNL     1      -0.231  10.784  21.102  0.00  0.00    +0.000 A 
ATOM      4  C   UNL     1       0.105  11.469  20.021  0.00  0.00    +0.000 A 
ATOM      5  O   UNL     1       0.825  10.975  18.964  0.00  0.00    +0.000 OA
ATOM      6  C   UNL     1       1.313   9.688  19.051  0.00  0.00    +0.000 A 
ATOM      7  C   UNL     1       2.076   9.309  17.939  0.00  0.00    +0.000 A 
ATOM      8  C   UNL     1       2.666   8.058  17.893  0.00  0.00    +0.000 A 
ATOM      9  C   UNL     1       2.493   7.193  18.966  0.00  0.00    +0.000 A 
ATOM     10  C   UNL     1       1.723   7.546  20.097  0.00  0.00    +0.000 A 
ATOM     11  C   UNL     1       1.099   8.823  20.147  0.00  0.00    +0.000 A 
ENDROOT
BRANCH   4  12
ATOM     12  C   UNL     1      -0.287  12.868  19.908  0.00  0.00    +0.000 A 
ATOM     13  C   UNL     1       0.306  13.678  18.932  0.00  0.00    +0.000 A 
ATOM     14  C   UNL     1      -0.049  15.021  18.835  0.00  0.00    +0.000 A 
ATOM     15  C   UNL     1      -0.993  15.556  19.714  0.00  0.00    +0.000 A 
ATOM     16  C   UNL     1      -1.573  14.754  20.694  0.00  0.00    +0.000 A 
ATOM     17  C   UNL     1      -1.218  13.411  20.798  0.00  0.00    +0.000 A 
ENDBRANCH   4  12
BRANCH  10  18
ATOM     18  O   UNL     1       1.756   6.492  20.987  0.00  0.00    +0.000 OA
BRANCH  18  19
ATOM     19  C   UNL     1       2.088   5.245  20.432  0.00  0.00    +0.000 C 
BRANCH  19  20
ATOM     20  C   UNL     1       0.952   4.258  20.337  0.00  0.00    +0.000 C 
BRANCH  20  21
ATOM     21  C   UNL     1       1.357   3.246  19.266  0.00  0.00    +0.000 C 
BRANCH  21  22
ATOM     22  C   UNL     1       1.521   3.896  17.911  0.00  0.00    +0.000 C 
BRANCH  22  23
ATOM     23  C   UNL     1       2.759   3.330  17.232  0.00  0.00    +0.000 C 
BRANCH  23  24
ATOM     24  C   UNL     1       3.977   3.421  18.148  0.00  0.00    +0.000 C 
BRANCH  24  25
ATOM     25  N   UNL     1       5.176   3.955  17.481  0.00  0.00    +0.000 NA
ATOM     26  C   UNL     1       6.004   4.661  18.471  0.00  0.00    +0.000 C 
ATOM     27  C   UNL     1       7.295   5.193  17.851  0.00  0.00    +0.000 C 
ATOM     28  C   UNL     1       7.022   6.061  16.628  0.00  0.00    +0.000 C 
ATOM     29  C   UNL     1       6.105   5.346  15.650  0.00  0.00    +0.000 C 
ATOM     30  C   UNL     1       4.848   4.817  16.335  0.00  0.00    +0.000 C 
BRANCH  28  31
ATOM     31  O   UNL     1       6.460   7.314  17.017  0.00  0.00    +0.000 OA
ATOM     32  H   UNL     1       7.114   7.794  17.551  0.00  0.00    +0.000 HD
ENDBRANCH  28  31
ENDBRANCH  24  25
ENDBRANCH  23  24
ENDBRANCH  22  23
ENDBRANCH  21  22
ENDBRANCH  20  21
ENDBRANCH  19  20
ENDBRANCH  18  19
ENDBRANCH  10  18
TORSDOF 10
ENDMDL
MODEL 4
REMARK VINA RESULT:      -7.9      0.950      1.198
REMARK  Name = 
REMARK  10 active torsions:
REMARK  status: ('A' for Active; 'I' for Inactive)
REMARK    1  A    between atoms: C_4  and  C_5
REMARK    2  A    between atoms: C_16  and  O_17
REMARK    3  A    between atoms: O_17  and  C_18
REMARK    4  A    between atoms: C_18  and  C_19
REMARK    5  A    between atoms: C_19  and  C_20
REMARK    6  A    between atoms: C_20  and  C_21
REMARK    7  A    between atoms: C_21  and  C_22
REMARK    8  A    between atoms: C_22  and  C_23
REMARK    9  A    between atoms: C_23  and  N_24
REMARK   10  A    between atoms: C_27  and  O_28
REMARK                            x       y       z     vdW  Elec       q    Type
REMARK                         _______ _______ _______ _____ _____    ______ ____
ROOT
ATOM      1  O   UNL     1       3.066   8.551  17.011  0.00  0.00    +0.000 OA
ATOM      2  C   UNL     1       2.700   8.025  18.053  0.00  0.00    +0.000 A 
ATOM      3  C   UNL     1       1.891   8.912  18.886  0.00  0.00    +0.000 A 
ATOM      4  C   UNL     1       1.464   8.481  20.062  0.00  0.00    +0.000 A 
ATOM      5  O   UNL     1       1.749   7.254  20.605  0.00  0.00    +0.000 OA
ATOM      6  C   UNL     1       2.470   6.356  19.847  0.00  0.00    +0.000 A 
ATOM      7  C   UNL     1       2.655   5.121  20.481  0.00  0.00    +0.000 A 
ATOM      8  C   UNL     1       3.329   4.100  19.833  0.00  0.00    +0.000 A 
ATOM      9  C   UNL     1       3.810   4.320  18.549  0.00  0.00    +0.000 A 
ATOM     10  C   UNL     1       3.644   5.558  17.888  0.00  0.00    +0.000 A 
ATOM     11  C   UNL     1       2.967   6.619  18.551  0.00  0.00    +0.000 A 
ENDROOT
BRANCH   4  12
ATOM     12  C   UNL     1       0.609   9.338  20.872  0.00  0.00    +0.000 A 
ATOM     13  C   UNL     1       0.470   9.083  22.242  0.00  0.00    +0.000 A 
ATOM     14  C   UNL     1      -0.364   9.887  23.015  0.00  0.00    +0.000 A 
ATOM     15  C   UNL     1      -1.060  10.941  22.423  0.00  0.00    +0.000 A 
ATOM     16  C   UNL     1      -0.932  11.187  21.057  0.00  0.00    +0.000 A 
ATOM     17  C   UNL     1      -0.103  10.384  20.278  0.00  0.00    +0.000 A 
ENDBRANCH   4  12
BRANCH  10  18
ATOM     18  O   UNL     1       4.210   5.457  16.634  0.00  0.00    +0.000 OA
BRANCH  18  19
ATOM     19  C   UNL     1       5.196   6.413  16.340  0.00  0.00    +0.000 C 
BRANCH  19  20
ATOM     20  C   UNL     1       6.418   6.372  17.222  0.00  0.00    +0.000 C 
BRANCH  20  21
ATOM     21  C   UNL     1       6.716   7.821  17.602  0.00  0.00    +0.000 C 
BRANCH  21  22
ATOM     22  C   UNL     1       8.139   7.994  18.084  0.00  0.00    +0.000 C 
BRANCH  22  23
ATOM     23  C   UNL     1       8.543   9.453  17.931  0.00  0.00    +0.000 C 
BRANCH  23  24
ATOM     24  C   UNL     1       9.069  10.017  19.248  0.00  0.00    +0.000 C 
BRANCH  24  25
ATOM     25  N   UNL     1       9.771  11.303  19.099  0.00  0.00    +0.000 NA
ATOM     26  C   UNL     1       9.432  11.890  17.793  0.00  0.00    +0.000 C 
ATOM     27  C   UNL     1      10.088  13.256  17.601  0.00  0.00    +0.000 C 
ATOM     28  C   UNL     1      11.595  13.199  17.815  0.00  0.00    +0.000 C 
ATOM     29  C   UNL     1      11.930  12.523  19.135  0.00  0.00    +0.000 C 
ATOM     30  C   UNL     1      11.226  11.177  19.276  0.00  0.00    +0.000 C 
BRANCH  28  31
ATOM     31  O   UNL     1      12.231  12.522  16.731  0.00  0.00    +0.000 OA
ATOM     32  H   UNL     1      11.953  11.592  16.741  0.00  0.00    +0.000 HD
ENDBRANCH  28  31
ENDBRANCH  24  25
ENDBRANCH  23  24
ENDBRANCH  22  23
ENDBRANCH  21  22
ENDBRANCH  20  21
ENDBRANCH  19  20
ENDBRANCH  18  19
ENDBRANCH  10  18
TORSDOF 10
ENDMDL
MODEL 5
REMARK VINA RESULT:      -7.9      4.413      6.325
REMARK  Name = 
REMARK  10 active torsions:
REMARK  status: ('A' for Active; 'I' for Inactive)
REMARK    1  A    between atoms: C_4  and  C_5
REMARK    2  A    between atoms: C_16  and  O_17
REMARK    3  A    between atoms: O_17  and  C_18
REMARK    4  A    between atoms: C_18  and  C_19
REMARK    5  A    between atoms: C_19  and  C_20
REMARK    6  A    between atoms: C_20  and  C_21
REMARK    7  A    between atoms: C_21  and  C_22
REMARK    8  A    between atoms: C_22  and  C_23
REMARK    9  A    between atoms: C_23  and  N_24
REMARK   10  A    between atoms: C_27  and  O_28
REMARK                            x       y       z     vdW  Elec       q    Type
REMARK                         _______ _______ _______ _____ _____    ______ ____
ROOT
ATOM      1  O   UNL     1       0.364   8.672  22.245  0.00  0.00    +0.000 OA
ATOM      2  C   UNL     1       0.757   9.171  21.200  0.00  0.00    +0.000 A 
ATOM      3  C   UNL     1       0.455  10.597  21.101  0.00  0.00    +0.000 A 
ATOM      4  C   UNL     1       0.790  11.253  20.001  0.00  0.00    +0.000 A 
ATOM      5  O   UNL     1       1.379  10.693  18.897  0.00  0.00    +0.000 OA
ATOM      6  C   UNL     1       1.729   9.361  18.947  0.00  0.00    +0.000 A 
ATOM      7  C   UNL     1       2.370   8.912  17.785  0.00  0.00    +0.000 A 
ATOM      8  C   UNL     1       2.817   7.605  17.697  0.00  0.00    +0.000 A 
ATOM      9  C   UNL     1       2.625   6.754  18.777  0.00  0.00    +0.000 A 
ATOM     10  C   UNL     1       1.976   7.177  19.958  0.00  0.00    +0.000 A 
ATOM     11  C   UNL     1       1.498   8.513  20.054  0.00  0.00    +0.000 A 
ENDROOT
BRANCH   4  12
ATOM     12  C   UNL     1       0.544  12.686  19.918  0.00  0.00    +0.000 A 
ATOM     13  C   UNL     1      -0.212  13.200  18.857  0.00  0.00    +0.000 A 
ATOM     14  C   UNL     1      -0.430  14.572  18.762  0.00  0.00    +0.000 A 
ATOM     15  C   UNL     1       0.107  15.431  19.722  0.00  0.00    +0.000 A 
ATOM     16  C   UNL     1       0.870  14.921  20.771  0.00  0.00    +0.000 A 
ATOM     17  C   UNL     1       1.096  13.550  20.868  0.00  0.00    +0.000 A 
ENDBRANCH   4  12
BRANCH  10  18
ATOM     18  O   UNL     1       1.956   6.118  20.843  0.00  0.00    +0.000 OA
BRANCH  18  19
ATOM     19  C   UNL     1       1.095   5.063  20.499  0.00  0.00    +0.000 C 
BRANCH  19  20
ATOM     20  C   UNL     1       1.694   3.683  20.594  0.00  0.00    +0.000 C 
BRANCH  20  21
ATOM     21  C   UNL     1       0.843   2.787  19.695  0.00  0.00    +0.000 C 
BRANCH  21  22
ATOM     22  C   UNL     1       1.639   2.240  18.532  0.00  0.00    +0.000 C 
BRANCH  22  23
ATOM     23  C   UNL     1       2.215   3.398  17.732  0.00  0.00    +0.000 C 
BRANCH  23  24
ATOM     24  C   UNL     1       3.583   3.040  17.156  0.00  0.00    +0.000 C 
BRANCH  24  25
ATOM     25  N   UNL     1       4.585   4.108  17.310  0.00  0.00    +0.000 NA
ATOM     26  C   UNL     1       5.541   4.038  16.194  0.00  0.00    +0.000 C 
ATOM     27  C   UNL     1       6.577   5.158  16.267  0.00  0.00    +0.000 C 
ATOM     28  C   UNL     1       7.289   5.188  17.614  0.00  0.00    +0.000 C 
ATOM     29  C   UNL     1       6.287   5.185  18.757  0.00  0.00    +0.000 C 
ATOM     30  C   UNL     1       5.267   4.060  18.613  0.00  0.00    +0.000 C 
BRANCH  28  31
ATOM     31  O   UNL     1       8.186   4.084  17.732  0.00  0.00    +0.000 OA
ATOM     32  H   UNL     1       8.311   3.691  16.853  0.00  0.00    +0.000 HD
ENDBRANCH  28  31
ENDBRANCH  24  25
ENDBRANCH  23  24
ENDBRANCH  22  23
ENDBRANCH  21  22
ENDBRANCH  20  21
ENDBRANCH  19  20
ENDBRANCH  18  19
ENDBRANCH  10  18
TORSDOF 10
ENDMDL
MODEL 6
REMARK VINA RESULT:      -7.8      4.880      9.712
REMARK  Name = 
REMARK  10 active torsions:
REMARK  status: ('A' for Active; 'I' for Inactive)
REMARK    1  A    between atoms: C_4  and  C_5
REMARK    2  A    between atoms: C_16  and  O_17
REMARK    3  A    between atoms: O_17  and  C_18
REMARK    4  A    between atoms: C_18  and  C_19
REMARK    5  A    between atoms: C_19  and  C_20
REMARK    6  A    between atoms: C_20  and  C_21
REMARK    7  A    between atoms: C_21  and  C_22
REMARK    8  A    between atoms: C_22  and  C_23
REMARK    9  A    between atoms: C_23  and  N_24
REMARK   10  A    between atoms: C_27  and  O_28
REMARK                            x       y       z     vdW  Elec       q    Type
REMARK                         _______ _______ _______ _____ _____    ______ ____
ROOT
ATOM      1  O   UNL     1       4.556   7.345  17.495  0.00  0.00    +0.000 OA
ATOM      2  C   UNL     1       4.598   6.162  17.189  0.00  0.00    +0.000 A 
ATOM      3  C   UNL     1       5.249   5.928  15.902  0.00  0.00    +0.000 A 
ATOM      4  C   UNL     1       5.324   4.693  15.432  0.00  0.00    +0.000 A 
ATOM      5  O   UNL     1       4.799   3.583  16.041  0.00  0.00    +0.000 OA
ATOM      6  C   UNL     1       4.212   3.733  17.279  0.00  0.00    +0.000 A 
ATOM      7  C   UNL     1       3.760   2.526  17.828  0.00  0.00    +0.000 A 
ATOM      8  C   UNL     1       3.180   2.506  19.084  0.00  0.00    +0.000 A 
ATOM      9  C   UNL     1       3.061   3.697  19.789  0.00  0.00    +0.000 A 
ATOM     10  C   UNL     1       3.502   4.929  19.258  0.00  0.00    +0.000 A 
ATOM     11  C   UNL     1       4.084   4.964  17.961  0.00  0.00    +0.000 A 
ENDROOT
BRANCH   4  12
ATOM     12  C   UNL     1       6.023   4.445  14.178  0.00  0.00    +0.000 A 
ATOM     13  C   UNL     1       7.197   5.151  13.887  0.00  0.00    +0.000 A 
ATOM     14  C   UNL     1       7.856   4.933  12.680  0.00  0.00    +0.000 A 
ATOM     15  C   UNL     1       7.342   4.015  11.762  0.00  0.00    +0.000 A 
ATOM     16  C   UNL     1       6.167   3.322  12.045  0.00  0.00    +0.000 A 
ATOM     17  C   UNL     1       5.501   3.539  13.249  0.00  0.00    +0.000 A 
ENDBRANCH   4  12
BRANCH  10  18
ATOM     18  O   UNL     1       3.264   5.913  20.197  0.00  0.00    +0.000 OA
BRANCH  18  19
ATOM     19  C   UNL     1       2.121   6.697  19.969  0.00  0.00    +0.000 C 
BRANCH  19  20
ATOM     20  C   UNL     1       1.137   6.752  21.109  0.00  0.00    +0.000 C 
BRANCH  20  21
ATOM     21  C   UNL     1       0.915   8.233  21.409  0.00  0.00    +0.000 C 
BRANCH  21  22
ATOM     22  C   UNL     1       1.060   9.086  20.169  0.00  0.00    +0.000 C 
BRANCH  22  23
ATOM     23  C   UNL     1      -0.001  10.175  20.185  0.00  0.00    +0.000 C 
BRANCH  23  24
ATOM     24  C   UNL     1      -0.256  10.714  18.779  0.00  0.00    +0.000 C 
BRANCH  24  25
ATOM     25  N   UNL     1      -1.641  10.523  18.318  0.00  0.00    +0.000 NA
ATOM     26  C   UNL     1      -1.626   9.885  16.992  0.00  0.00    +0.000 C 
ATOM     27  C   UNL     1      -3.038   9.609  16.482  0.00  0.00    +0.000 C 
ATOM     28  C   UNL     1      -3.902  10.865  16.489  0.00  0.00    +0.000 C 
ATOM     29  C   UNL     1      -3.848  11.552  17.843  0.00  0.00    +0.000 C 
ATOM     30  C   UNL     1      -2.411  11.776  18.308  0.00  0.00    +0.000 C 
BRANCH  28  31
ATOM     31  O   UNL     1      -3.492  11.761  15.456  0.00  0.00    +0.000 OA
ATOM     32  H   UNL     1      -3.516  12.667  15.804  0.00  0.00    +0.000 HD
ENDBRANCH  28  31
ENDBRANCH  24  25
ENDBRANCH  23  24
ENDBRANCH  22  23
ENDBRANCH  21  22
ENDBRANCH  20  21
ENDBRANCH  19  20
ENDBRANCH  18  19
ENDBRANCH  10  18
TORSDOF 10
ENDMDL
MODEL 7
REMARK VINA RESULT:      -7.8      4.497      7.032
REMARK  Name = 
REMARK  10 active torsions:
REMARK  status: ('A' for Active; 'I' for Inactive)
REMARK    1  A    between atoms: C_4  and  C_5
REMARK    2  A    between atoms: C_16  and  O_17
REMARK    3  A    between atoms: O_17  and  C_18
REMARK    4  A    between atoms: C_18  and  C_19
REMARK    5  A    between atoms: C_19  and  C_20
REMARK    6  A    between atoms: C_20  and  C_21
REMARK    7  A    between atoms: C_21  and  C_22
REMARK    8  A    between atoms: C_22  and  C_23
REMARK    9  A    between atoms: C_23  and  N_24
REMARK   10  A    between atoms: C_27  and  O_28
REMARK                            x       y       z     vdW  Elec       q    Type
REMARK                         _______ _______ _______ _____ _____    ______ ____
ROOT
ATOM      1  O   UNL     1      -1.974   9.686  16.197  0.00  0.00    +0.000 OA
ATOM      2  C   UNL     1      -2.121  10.315  17.235  0.00  0.00    +0.000 A 
ATOM      3  C   UNL     1      -3.466  10.866  17.383  0.00  0.00    +0.000 A 
ATOM      4  C   UNL     1      -3.748  11.605  18.444  0.00  0.00    +0.000 A 
ATOM      5  O   UNL     1      -2.857  11.943  19.431  0.00  0.00    +0.000 OA
ATOM      6  C   UNL     1      -1.585  11.416  19.371  0.00  0.00    +0.000 A 
ATOM      7  C   UNL     1      -0.780  11.785  20.457  0.00  0.00    +0.000 A 
ATOM      8  C   UNL     1       0.514  11.305  20.559  0.00  0.00    +0.000 A 
ATOM      9  C   UNL     1       0.995  10.452  19.575  0.00  0.00    +0.000 A 
ATOM     10  C   UNL     1       0.209  10.067  18.466  0.00  0.00    +0.000 A 
ATOM     11  C   UNL     1      -1.117  10.568  18.342  0.00  0.00    +0.000 A 
ENDROOT
BRANCH   4  12
ATOM     12  C   UNL     1      -5.102  12.110  18.627  0.00  0.00    +0.000 A 
ATOM     13  C   UNL     1      -5.986  12.132  17.542  0.00  0.00    +0.000 A 
ATOM     14  C   UNL     1      -7.274  12.634  17.707  0.00  0.00    +0.000 A 
ATOM     15  C   UNL     1      -7.679  13.117  18.952  0.00  0.00    +0.000 A 
ATOM     16  C   UNL     1      -6.795  13.108  20.029  0.00  0.00    +0.000 A 
ATOM     17  C   UNL     1      -5.504  12.611  19.869  0.00  0.00    +0.000 A 
ENDBRANCH   4  12
BRANCH  10  18
ATOM     18  O   UNL     1       0.955   9.209  17.685  0.00  0.00    +0.000 OA
BRANCH  18  19
ATOM     19  C   UNL     1       2.338   9.224  17.927  0.00  0.00    +0.000 C 
BRANCH  19  20
ATOM     20  C   UNL     1       3.036   7.896  17.774  0.00  0.00    +0.000 C 
BRANCH  20  21
ATOM     21  C   UNL     1       2.504   7.005  18.895  0.00  0.00    +0.000 C 
BRANCH  21  22
ATOM     22  C   UNL     1       2.056   5.657  18.378  0.00  0.00    +0.000 C 
BRANCH  22  23
ATOM     23  C   UNL     1       2.891   4.568  19.033  0.00  0.00    +0.000 C 
BRANCH  23  24
ATOM     24  C   UNL     1       4.321   5.045  19.277  0.00  0.00    +0.000 C 
BRANCH  24  25
ATOM     25  N   UNL     1       5.298   4.481  18.331  0.00  0.00    +0.000 NA
ATOM     26  C   UNL     1       6.611   5.104  18.564  0.00  0.00    +0.000 C 
ATOM     27  C   UNL     1       7.684   4.519  17.648  0.00  0.00    +0.000 C 
ATOM     28  C   UNL     1       7.281   4.595  16.180  0.00  0.00    +0.000 C 
ATOM     29  C   UNL     1       5.892   4.015  15.969  0.00  0.00    +0.000 C 
ATOM     30  C   UNL     1       4.873   4.621  16.929  0.00  0.00    +0.000 C 
BRANCH  28  31
ATOM     31  O   UNL     1       7.338   5.943  15.713  0.00  0.00    +0.000 OA
ATOM     32  H   UNL     1       7.485   5.933  14.754  0.00  0.00    +0.000 HD
ENDBRANCH  28  31
ENDBRANCH  24  25
ENDBRANCH  23  24
ENDBRANCH  22  23
ENDBRANCH  21  22
ENDBRANCH  20  21
ENDBRANCH  19  20
ENDBRANCH  18  19
ENDBRANCH  10  18
TORSDOF 10
ENDMDL
MODEL 8
REMARK VINA RESULT:      -7.7      4.731      7.437
REMARK  Name = 
REMARK  10 active torsions:
REMARK  status: ('A' for Active; 'I' for Inactive)
REMARK    1  A    between atoms: C_4  and  C_5
REMARK    2  A    between atoms: C_16  and  O_17
REMARK    3  A    between atoms: O_17  and  C_18
REMARK    4  A    between atoms: C_18  and  C_19
REMARK    5  A    between atoms: C_19  and  C_20
REMARK    6  A    between atoms: C_20  and  C_21
REMARK    7  A    between atoms: C_21  and  C_22
REMARK    8  A    between atoms: C_22  and  C_23
REMARK    9  A    between atoms: C_23  and  N_24
REMARK   10  A    between atoms: C_27  and  O_28
REMARK                            x       y       z     vdW  Elec       q    Type
REMARK                         _______ _______ _______ _____ _____    ______ ____
ROOT
ATOM      1  O   UNL     1       0.900   9.085  22.508  0.00  0.00    +0.000 OA
ATOM      2  C   UNL     1       0.202   9.901  21.923  0.00  0.00    +0.000 A 
ATOM      3  C   UNL     1      -0.539  10.773  22.831  0.00  0.00    +0.000 A 
ATOM      4  C   UNL     1      -1.365  11.676  22.327  0.00  0.00    +0.000 A 
ATOM      5  O   UNL     1      -1.627  11.850  20.993  0.00  0.00    +0.000 OA
ATOM      6  C   UNL     1      -0.926  11.087  20.084  0.00  0.00    +0.000 A 
ATOM      7  C   UNL     1      -1.237  11.387  18.752  0.00  0.00    +0.000 A 
ATOM      8  C   UNL     1      -0.588  10.730  17.721  0.00  0.00    +0.000 A 
ATOM      9  C   UNL     1       0.376   9.779  18.029  0.00  0.00    +0.000 A 
ATOM     10  C   UNL     1       0.705   9.452  19.363  0.00  0.00    +0.000 A 
ATOM     11  C   UNL     1       0.033  10.108  20.431  0.00  0.00    +0.000 A 
ENDROOT
BRANCH   4  12
ATOM     12  C   UNL     1      -2.063  12.588  23.224  0.00  0.00    +0.000 A 
ATOM     13  C   UNL     1      -3.340  12.257  23.693  0.00  0.00    +0.000 A 
ATOM     14  C   UNL     1      -4.020  13.136  24.532  0.00  0.00    +0.000 A 
ATOM     15  C   UNL     1      -3.427  14.345  24.902  0.00  0.00    +0.000 A 
ATOM     16  C   UNL     1      -2.162  14.680  24.425  0.00  0.00    +0.000 A 
ATOM     17  C   UNL     1      -1.479  13.807  23.581  0.00  0.00    +0.000 A 
ENDBRANCH   4  12
BRANCH  10  18
ATOM     18  O   UNL     1       1.700   8.496  19.340  0.00  0.00    +0.000 OA
BRANCH  18  19
ATOM     19  C   UNL     1       2.485   8.473  18.176  0.00  0.00    +0.000 C 
BRANCH  19  20
ATOM     20  C   UNL     1       2.831   7.100  17.657  0.00  0.00    +0.000 C 
BRANCH  20  21
ATOM     21  C   UNL     1       4.236   7.209  17.068  0.00  0.00    +0.000 C 
BRANCH  21  22
ATOM     22  C   UNL     1       4.882   5.853  16.898  0.00  0.00    +0.000 C 
BRANCH  22  23
ATOM     23  C   UNL     1       5.180   5.267  18.270  0.00  0.00    +0.000 C 
BRANCH  23  24
ATOM     24  C   UNL     1       4.682   3.827  18.372  0.00  0.00    +0.000 C 
BRANCH  24  25
ATOM     25  N   UNL     1       3.356   3.706  18.999  0.00  0.00    +0.000 NA
ATOM     26  C   UNL     1       3.239   4.700  20.077  0.00  0.00    +0.000 C 
ATOM     27  C   UNL     1       1.860   4.663  20.733  0.00  0.00    +0.000 C 
ATOM     28  C   UNL     1       1.499   3.264  21.218  0.00  0.00    +0.000 C 
ATOM     29  C   UNL     1       1.696   2.239  20.114  0.00  0.00    +0.000 C 
ATOM     30  C   UNL     1       3.082   2.345  19.484  0.00  0.00    +0.000 C 
BRANCH  28  31
ATOM     31  O   UNL     1       2.272   2.917  22.367  0.00  0.00    +0.000 OA
ATOM     32  H   UNL     1       3.093   3.435  22.357  0.00  0.00    +0.000 HD
ENDBRANCH  28  31
ENDBRANCH  24  25
ENDBRANCH  23  24
ENDBRANCH  22  23
ENDBRANCH  21  22
ENDBRANCH  20  21
ENDBRANCH  19  20
ENDBRANCH  18  19
ENDBRANCH  10  18
TORSDOF 10
ENDMDL
MODEL 9
REMARK VINA RESULT:      -7.7      4.788      9.667
REMARK  Name = 
REMARK  10 active torsions:
REMARK  status: ('A' for Active; 'I' for Inactive)
REMARK    1  A    between atoms: C_4  and  C_5
REMARK    2  A    between atoms: C_16  and  O_17
REMARK    3  A    between atoms: O_17  and  C_18
REMARK    4  A    between atoms: C_18  and  C_19
REMARK    5  A    between atoms: C_19  and  C_20
REMARK    6  A    between atoms: C_20  and  C_21
REMARK    7  A    between atoms: C_21  and  C_22
REMARK    8  A    between atoms: C_22  and  C_23
REMARK    9  A    between atoms: C_23  and  N_24
REMARK   10  A    between atoms: C_27  and  O_28
REMARK                            x       y       z     vdW  Elec       q    Type
REMARK                         _______ _______ _______ _____ _____    ______ ____
ROOT
ATOM      1  O   UNL     1       4.739   7.515  17.523  0.00  0.00    +0.000 OA
ATOM      2  C   UNL     1       4.605   6.350  17.176  0.00  0.00    +0.000 A 
ATOM      3  C   UNL     1       5.273   6.052  15.912  0.00  0.00    +0.000 A 
ATOM      4  C   UNL     1       5.173   4.835  15.400  0.00  0.00    +0.000 A 
ATOM      5  O   UNL     1       4.448   3.807  15.944  0.00  0.00    +0.000 OA
ATOM      6  C   UNL     1       3.832   4.014  17.159  0.00  0.00    +0.000 A 
ATOM      7  C   UNL     1       3.166   2.880  17.642  0.00  0.00    +0.000 A 
ATOM      8  C   UNL     1       2.528   2.917  18.871  0.00  0.00    +0.000 A 
ATOM      9  C   UNL     1       2.566   4.090  19.613  0.00  0.00    +0.000 A 
ATOM     10  C   UNL     1       3.225   5.250  19.148  0.00  0.00    +0.000 A 
ATOM     11  C   UNL     1       3.869   5.228  17.880  0.00  0.00    +0.000 A 
ENDROOT
BRANCH   4  12
ATOM     12  C   UNL     1       5.884   4.515  14.170  0.00  0.00    +0.000 A 
ATOM     13  C   UNL     1       5.346   3.574  13.282  0.00  0.00    +0.000 A 
ATOM     14  C   UNL     1       6.033   3.248  12.116  0.00  0.00    +0.000 A 
ATOM     15  C   UNL     1       7.257   3.857  11.836  0.00  0.00    +0.000 A 
ATOM     16  C   UNL     1       7.800   4.784  12.725  0.00  0.00    +0.000 A 
ATOM     17  C   UNL     1       7.119   5.110  13.895  0.00  0.00    +0.000 A 
ENDBRANCH   4  12
BRANCH  10  18
ATOM     18  O   UNL     1       3.101   6.231  20.111  0.00  0.00    +0.000 OA
BRANCH  18  19
ATOM     19  C   UNL     1       1.900   6.958  20.078  0.00  0.00    +0.000 C 
BRANCH  19  20
ATOM     20  C   UNL     1       1.812   8.014  19.006  0.00  0.00    +0.000 C 
BRANCH  20  21
ATOM     21  C   UNL     1       1.394   9.303  19.711  0.00  0.00    +0.000 C 
BRANCH  21  22
ATOM     22  C   UNL     1       0.286   9.062  20.711  0.00  0.00    +0.000 C 
BRANCH  22  23
ATOM     23  C   UNL     1      -0.536  10.333  20.861  0.00  0.00    +0.000 C 
BRANCH  23  24
ATOM     24  C   UNL     1      -0.657  11.068  19.528  0.00  0.00    +0.000 C 
BRANCH  24  25
ATOM     25  N   UNL     1      -1.867  10.715  18.768  0.00  0.00    +0.000 NA
ATOM     26  C   UNL     1      -1.473  10.067  17.507  0.00  0.00    +0.000 C 
ATOM     27  C   UNL     1      -2.689   9.625  16.696  0.00  0.00    +0.000 C 
ATOM     28  C   UNL     1      -3.662  10.773  16.456  0.00  0.00    +0.000 C 
ATOM     29  C   UNL     1      -4.001  11.477  17.760  0.00  0.00    +0.000 C 
ATOM     30  C   UNL     1      -2.746  11.871  18.533  0.00  0.00    +0.000 C 
BRANCH  28  31
ATOM     31  O   UNL     1      -3.123  11.699  15.512  0.00  0.00    +0.000 OA
ATOM     32  H   UNL     1      -2.319  11.315  15.127  0.00  0.00    +0.000 HD
ENDBRANCH  28  31
ENDBRANCH  24  25
ENDBRANCH  23  24
ENDBRANCH  22  23
ENDBRANCH  21  22
ENDBRANCH  20  21
ENDBRANCH  19  20
ENDBRANCH  18  19
ENDBRANCH  10  18
TORSDOF 10
ENDMDL
