MODEL 1
REMARK VINA RESULT:      -7.7      0.000      0.000
REMARK  Name = 
REMARK  7 active torsions:
REMARK  status: ('A' for Active; 'I' for Inactive)
REMARK    1  A    between atoms: C_1  and  C_2
REMARK    2  A    between atoms: C_2  and  N_3
REMARK    3  A    between atoms: N_3  and  C_4
REMARK    4  A    between atoms: N_3  and  C_6
REMARK    5  A    between atoms: C_4  and  C_5
REMARK    6  A    between atoms: C_9  and  C_10
REMARK    7  A    between atoms: C_18  and  N_19
REMARK                            x       y       z     vdW  Elec       q    Type
REMARK                         _______ _______ _______ _____ _____    ______ ____
ROOT
ATOM      1  C   UNL     1       7.278   6.995  17.645  0.00  0.00    +0.000 C 
ATOM      2  C   UNL     1       6.083   6.214  17.926  0.00  0.00    +0.000 C 
ATOM      3  C   UNL     1       5.222   6.978  16.933  0.00  0.00    +0.000 C 
ATOM      4  O   UNL     1       5.385   6.883  15.718  0.00  0.00    +0.000 OA
ATOM      5  N   UNL     1       4.000   7.096  17.565  0.00  0.00    +0.000 N 
ATOM      6  C   UNL     1       3.693   5.768  17.903  0.00  0.00    +0.000 A 
ATOM      7  C   UNL     1       2.328   5.418  17.937  0.00  0.00    +0.000 A 
ATOM      8  C   UNL     1       1.953   4.096  17.888  0.00  0.00    +0.000 A 
ATOM      9  C   UNL     1       2.945   3.111  17.756  0.00  0.00    +0.000 A 
ATOM     10  C   UNL     1       4.404   3.526  17.861  0.00  0.00    +0.000 A 
ATOM     11  C   UNL     1       4.832   4.943  17.934  0.00  0.00    +0.000 A 
ATOM     12  H   UNL     1       4.109   7.567  18.458  0.00  0.00    +0.000 HD
ENDROOT
BRANCH   1  16
ATOM     13  C   UNL     1       9.337  11.422  18.714  0.00  0.00    +0.000 A 
ATOM     14  C   UNL     1       8.385  11.190  17.686  0.00  0.00    +0.000 A 
ATOM     15  C   UNL     1       7.737   9.852  17.329  0.00  0.00    +0.000 A 
ATOM     16  C   UNL     1       8.001   8.590  17.934  0.00  0.00    +0.000 A 
ATOM     17  C   UNL     1       8.883   8.860  19.043  0.00  0.00    +0.000 A 
ATOM     18  C   UNL     1       9.534  10.206  19.403  0.00  0.00    +0.000 A 
BRANCH  13  19
ATOM     19  N   UNL     1       9.978  12.671  18.995  0.00  0.00    +0.000 N 
BRANCH  19  21
ATOM     20  C   UNL     1      10.674  14.443  20.682  0.00  0.00    +0.000 C 
ATOM     21  C   UNL     1      10.618  12.958  20.317  0.00  0.00    +0.000 C 
ENDBRANCH  19  21
BRANCH  19  22
ATOM     22  C   UNL     1      10.188  13.704  17.906  0.00  0.00    +0.000 C 
ATOM     23  C   UNL     1      11.253  13.468  16.798  0.00  0.00    +0.000 C 
ENDBRANCH  19  22
ENDBRANCH  13  19
ENDBRANCH   1  16
BRANCH   9  24
ATOM     24  N   UNL     1       2.396   1.808  17.685  0.00  0.00    +0.000 N 
ATOM     25  H   UNL     1       1.785   1.657  16.909  0.00  0.00    +0.000 HD
ATOM     26  H   UNL     1       2.985   0.997  17.764  0.00  0.00    +0.000 HD
ENDBRANCH   9  24
TORSDOF 5
ENDMDL
MODEL 2
REMARK VINA RESULT:      -7.7      0.391      1.549
REMARK  Name = 
REMARK  7 active torsions:
REMARK  status: ('A' for Active; 'I' for Inactive)
REMARK    1  A    between atoms: C_1  and  C_2
REMARK    2  A    between atoms: C_2  and  N_3
REMARK    3  A    between atoms: N_3  and  C_4
REMARK    4  A    between atoms: N_3  and  C_6
REMARK    5  A    between atoms: C_4  and  C_5
REMARK    6  A    between atoms: C_9  and  C_10
REMARK    7  A    between atoms: C_18  and  N_19
REMARK                            x       y       z     vdW  Elec       q    Type
REMARK                         _______ _______ _______ _____ _____    ______ ____
ROOT
ATOM      1  C   UNL     1       7.357   7.032  17.724  0.00  0.00    +0.000 C 
ATOM      2  C   UNL     1       6.153   6.257  17.984  0.00  0.00    +0.000 C 
ATOM      3  C   UNL     1       5.328   6.994  16.941  0.00  0.00    +0.000 C 
ATOM      4  O   UNL     1       5.534   6.867  15.735  0.00  0.00    +0.000 OA
ATOM      5  N   UNL     1       4.085   7.127  17.526  0.00  0.00    +0.000 N 
ATOM      6  C   UNL     1       3.765   5.808  17.888  0.00  0.00    +0.000 A 
ATOM      7  C   UNL     1       2.401   5.458  17.883  0.00  0.00    +0.000 A 
ATOM      8  C   UNL     1       2.027   4.135  17.855  0.00  0.00    +0.000 A 
ATOM      9  C   UNL     1       3.024   3.147  17.784  0.00  0.00    +0.000 A 
ATOM     10  C   UNL     1       4.477   3.566  17.929  0.00  0.00    +0.000 A 
ATOM     11  C   UNL     1       4.903   4.986  17.981  0.00  0.00    +0.000 A 
ATOM     12  H   UNL     1       4.161   7.621  18.410  0.00  0.00    +0.000 HD
ENDROOT
BRANCH   1  16
ATOM     13  C   UNL     1       9.392  11.481  18.746  0.00  0.00    +0.000 A 
ATOM     14  C   UNL     1       8.420  11.238  17.740  0.00  0.00    +0.000 A 
ATOM     15  C   UNL     1       7.779   9.893  17.398  0.00  0.00    +0.000 A 
ATOM     16  C   UNL     1       8.070   8.635  17.997  0.00  0.00    +0.000 A 
ATOM     17  C   UNL     1       8.973   8.914  19.086  0.00  0.00    +0.000 A 
ATOM     18  C   UNL     1       9.617  10.267  19.431  0.00  0.00    +0.000 A 
BRANCH  13  19
ATOM     19  N   UNL     1      10.026  12.737  19.014  0.00  0.00    +0.000 N 
BRANCH  19  21
ATOM     20  C   UNL     1      11.195  13.448  16.870  0.00  0.00    +0.000 C 
ATOM     21  C   UNL     1      10.181  13.791  17.963  0.00  0.00    +0.000 C 
ENDBRANCH  19  21
BRANCH  19  22
ATOM     22  C   UNL     1      10.421  13.127  20.424  0.00  0.00    +0.000 C 
ATOM     23  C   UNL     1       9.335  13.300  21.522  0.00  0.00    +0.000 C 
ENDBRANCH  19  22
ENDBRANCH  13  19
ENDBRANCH   1  16
BRANCH   9  24
ATOM     24  N   UNL     1       2.478   1.842  17.727  0.00  0.00    +0.000 N 
ATOM     25  H   UNL     1       1.510   1.808  17.485  0.00  0.00    +0.000 HD
ATOM     26  H   UNL     1       2.941   1.113  17.213  0.00  0.00    +0.000 HD
ENDBRANCH   9  24
TORSDOF 5
ENDMDL
MODEL 3
REMARK VINA RESULT:      -7.4      0.812      1.102
REMARK  Name = 
REMARK  7 active torsions:
REMARK  status: ('A' for Active; 'I' for Inactive)
REMARK    1  A    between atoms: C_1  and  C_2
REMARK    2  A    between atoms: C_2  and  N_3
REMARK    3  A    between atoms: N_3  and  C_4
REMARK    4  A    between atoms: N_3  and  C_6
REMARK    5  A    between atoms: C_4  and  C_5
REMARK    6  A    between atoms: C_9  and  C_10
REMARK    7  A    between atoms: C_18  and  N_19
REMARK                            x       y       z     vdW  Elec       q    Type
REMARK                         _______ _______ _______ _____ _____    ______ ____
ROOT
ATOM      1  C   UNL     1       7.338   7.020  17.671  0.00  0.00    +0.000 C 
ATOM      2  C   UNL     1       6.143   6.235  17.941  0.00  0.00    +0.000 C 
ATOM      3  C   UNL     1       5.302   6.964  16.905  0.00  0.00    +0.000 C 
ATOM      4  O   UNL     1       5.499   6.837  15.698  0.00  0.00    +0.000 OA
ATOM      5  N   UNL     1       4.063   7.087  17.501  0.00  0.00    +0.000 N 
ATOM      6  C   UNL     1       3.758   5.765  17.867  0.00  0.00    +0.000 A 
ATOM      7  C   UNL     1       2.396   5.404  17.875  0.00  0.00    +0.000 A 
ATOM      8  C   UNL     1       2.034   4.078  17.852  0.00  0.00    +0.000 A 
ATOM      9  C   UNL     1       3.038   3.098  17.772  0.00  0.00    +0.000 A 
ATOM     10  C   UNL     1       4.490   3.530  17.905  0.00  0.00    +0.000 A 
ATOM     11  C   UNL     1       4.903   4.953  17.951  0.00  0.00    +0.000 A 
ATOM     12  H   UNL     1       4.143   7.583  18.383  0.00  0.00    +0.000 HD
ENDROOT
BRANCH   1  16
ATOM     13  C   UNL     1       9.342  11.488  18.670  0.00  0.00    +0.000 A 
ATOM     14  C   UNL     1       8.371  11.233  17.665  0.00  0.00    +0.000 A 
ATOM     15  C   UNL     1       7.739   9.883  17.330  0.00  0.00    +0.000 A 
ATOM     16  C   UNL     1       8.039   8.629  17.935  0.00  0.00    +0.000 A 
ATOM     17  C   UNL     1       8.941   8.920  19.022  0.00  0.00    +0.000 A 
ATOM     18  C   UNL     1       9.576  10.279  19.360  0.00  0.00    +0.000 A 
BRANCH  13  19
ATOM     19  N   UNL     1       9.967  12.750  18.931  0.00  0.00    +0.000 N 
BRANCH  19  21
ATOM     20  C   UNL     1      12.304  13.592  19.477  0.00  0.00    +0.000 C 
ATOM     21  C   UNL     1      11.329  13.087  18.411  0.00  0.00    +0.000 C 
ENDBRANCH  19  21
BRANCH  19  22
ATOM     22  C   UNL     1       9.205  13.873  19.606  0.00  0.00    +0.000 C 
ATOM     23  C   UNL     1       8.199  14.736  18.794  0.00  0.00    +0.000 C 
ENDBRANCH  19  22
ENDBRANCH  13  19
ENDBRANCH   1  16
BRANCH   9  24
ATOM     24  N   UNL     1       2.503   1.789  17.722  0.00  0.00    +0.000 N 
ATOM     25  H   UNL     1       3.016   1.153  17.149  0.00  0.00    +0.000 HD
ATOM     26  H   UNL     1       2.260   1.300  18.567  0.00  0.00    +0.000 HD
ENDBRANCH   9  24
TORSDOF 5
ENDMDL
MODEL 4
REMARK VINA RESULT:      -7.4      5.671      8.359
REMARK  Name = 
REMARK  7 active torsions:
REMARK  status: ('A' for Active; 'I' for Inactive)
REMARK    1  A    between atoms: C_1  and  C_2
REMARK    2  A    between atoms: C_2  and  N_3
REMARK    3  A    between atoms: N_3  and  C_4
REMARK    4  A    between atoms: N_3  and  C_6
REMARK    5  A    between atoms: C_4  and  C_5
REMARK    6  A    between atoms: C_9  and  C_10
REMARK    7  A    between atoms: C_18  and  N_19
REMARK                            x       y       z     vdW  Elec       q    Type
REMARK                         _______ _______ _______ _____ _____    ______ ____
ROOT
ATOM      1  C   UNL     1       2.054   8.419  17.838  0.00  0.00    +0.000 C 
ATOM      2  C   UNL     1       3.324   7.708  17.824  0.00  0.00    +0.000 C 
ATOM      3  C   UNL     1       2.780   6.508  18.584  0.00  0.00    +0.000 C 
ATOM      4  O   UNL     1       1.973   5.727  18.083  0.00  0.00    +0.000 OA
ATOM      5  N   UNL     1       3.808   6.154  19.435  0.00  0.00    +0.000 N 
ATOM      6  C   UNL     1       4.901   6.012  18.564  0.00  0.00    +0.000 A 
ATOM      7  C   UNL     1       5.882   5.065  18.921  0.00  0.00    +0.000 A 
ATOM      8  C   UNL     1       6.766   4.598  17.978  0.00  0.00    +0.000 A 
ATOM      9  C   UNL     1       6.644   5.042  16.651  0.00  0.00    +0.000 A 
ATOM     10  C   UNL     1       5.663   6.162  16.344  0.00  0.00    +0.000 A 
ATOM     11  C   UNL     1       4.713   6.696  17.350  0.00  0.00    +0.000 A 
ATOM     12  H   UNL     1       4.058   6.936  20.032  0.00  0.00    +0.000 HD
ENDROOT
BRANCH   1  16
ATOM     13  C   UNL     1      -0.945  11.198  20.711  0.00  0.00    +0.000 A 
ATOM     14  C   UNL     1      -0.112  10.146  21.176  0.00  0.00    +0.000 A 
ATOM     15  C   UNL     1       0.814   9.275  20.328  0.00  0.00    +0.000 A 
ATOM     16  C   UNL     1       0.978   9.332  18.914  0.00  0.00    +0.000 A 
ATOM     17  C   UNL     1       0.213  10.472  18.473  0.00  0.00    +0.000 A 
ATOM     18  C   UNL     1      -0.717  11.350  19.326  0.00  0.00    +0.000 A 
BRANCH  13  19
ATOM     19  N   UNL     1      -1.851  11.966  21.512  0.00  0.00    +0.000 N 
BRANCH  19  21
ATOM     20  C   UNL     1      -3.216  12.258  23.638  0.00  0.00    +0.000 C 
ATOM     21  C   UNL     1      -1.882  11.860  23.003  0.00  0.00    +0.000 C 
ENDBRANCH  19  21
BRANCH  19  22
ATOM     22  C   UNL     1      -2.711  13.051  20.894  0.00  0.00    +0.000 C 
ATOM     23  C   UNL     1      -4.015  12.680  20.135  0.00  0.00    +0.000 C 
ENDBRANCH  19  22
ENDBRANCH  13  19
ENDBRANCH   1  16
BRANCH   9  24
ATOM     24  N   UNL     1       7.603   4.445  15.798  0.00  0.00    +0.000 N 
ATOM     25  H   UNL     1       8.540   4.756  15.944  0.00  0.00    +0.000 HD
ATOM     26  H   UNL     1       7.635   3.446  15.680  0.00  0.00    +0.000 HD
ENDBRANCH   9  24
TORSDOF 5
ENDMDL
MODEL 5
REMARK VINA RESULT:      -7.3      1.273      1.557
REMARK  Name = 
REMARK  7 active torsions:
REMARK  status: ('A' for Active; 'I' for Inactive)
REMARK    1  A    between atoms: C_1  and  C_2
REMARK    2  A    between atoms: C_2  and  N_3
REMARK    3  A    between atoms: N_3  and  C_4
REMARK    4  A    between atoms: N_3  and  C_6
REMARK    5  A    between atoms: C_4  and  C_5
REMARK    6  A    between atoms: C_9  and  C_10
REMARK    7  A    between atoms: C_18  and  N_19
REMARK                            x       y       z     vdW  Elec       q    Type
REMARK                         _______ _______ _______ _____ _____    ______ ____
ROOT
ATOM      1  C   UNL     1       8.163   7.575  18.525  0.00  0.00    +0.000 C 
ATOM      2  C   UNL     1       6.994   6.708  18.550  0.00  0.00    +0.000 C 
ATOM      3  C   UNL     1       6.694   6.894  17.071  0.00  0.00    +0.000 C 
ATOM      4  O   UNL     1       7.418   6.427  16.193  0.00  0.00    +0.000 OA
ATOM      5  N   UNL     1       5.317   6.968  17.011  0.00  0.00    +0.000 N 
ATOM      6  C   UNL     1       4.912   5.801  17.681  0.00  0.00    +0.000 A 
ATOM      7  C   UNL     1       3.703   5.212  17.261  0.00  0.00    +0.000 A 
ATOM      8  C   UNL     1       3.422   3.906  17.585  0.00  0.00    +0.000 A 
ATOM      9  C   UNL     1       4.377   3.160  18.295  0.00  0.00    +0.000 A 
ATOM     10  C   UNL     1       5.601   3.875  18.842  0.00  0.00    +0.000 A 
ATOM     11  C   UNL     1       5.915   5.289  18.523  0.00  0.00    +0.000 A 
ATOM     12  H   UNL     1       4.978   7.726  17.595  0.00  0.00    +0.000 HD
ENDROOT
BRANCH   1  16
ATOM     13  C   UNL     1       9.516  12.385  18.539  0.00  0.00    +0.000 A 
ATOM     14  C   UNL     1       8.591  11.799  17.635  0.00  0.00    +0.000 A 
ATOM     15  C   UNL     1       8.156  10.334  17.599  0.00  0.00    +0.000 A 
ATOM     16  C   UNL     1       8.630   9.285  18.437  0.00  0.00    +0.000 A 
ATOM     17  C   UNL     1       9.481   9.914  19.416  0.00  0.00    +0.000 A 
ATOM     18  C   UNL     1       9.918  11.388  19.454  0.00  0.00    +0.000 A 
BRANCH  13  19
ATOM     19  N   UNL     1       9.957  13.748  18.520  0.00  0.00    +0.000 N 
BRANCH  19  21
ATOM     20  C   UNL     1       9.092  16.129  18.292  0.00  0.00    +0.000 C 
ATOM     21  C   UNL     1       9.156  14.853  19.134  0.00  0.00    +0.000 C 
ENDBRANCH  19  21
BRANCH  19  22
ATOM     22  C   UNL     1      11.342  14.113  18.025  0.00  0.00    +0.000 C 
ATOM     23  C   UNL     1      11.935  13.411  16.771  0.00  0.00    +0.000 C 
ENDBRANCH  19  22
ENDBRANCH  13  19
ENDBRANCH   1  16
BRANCH   9  24
ATOM     24  N   UNL     1       3.954   1.827  18.519  0.00  0.00    +0.000 N 
ATOM     25  H   UNL     1       3.488   1.404  17.743  0.00  0.00    +0.000 HD
ATOM     26  H   UNL     1       4.587   1.143  18.896  0.00  0.00    +0.000 HD
ENDBRANCH   9  24
TORSDOF 5
ENDMDL
MODEL 6
REMARK VINA RESULT:      -7.2      1.263      1.940
REMARK  Name = 
REMARK  7 active torsions:
REMARK  status: ('A' for Active; 'I' for Inactive)
REMARK    1  A    between atoms: C_1  and  C_2
REMARK    2  A    between atoms: C_2  and  N_3
REMARK    3  A    between atoms: N_3  and  C_4
REMARK    4  A    between atoms: N_3  and  C_6
REMARK    5  A    between atoms: C_4  and  C_5
REMARK    6  A    between atoms: C_9  and  C_10
REMARK    7  A    between atoms: C_18  and  N_19
REMARK                            x       y       z     vdW  Elec       q    Type
REMARK                         _______ _______ _______ _____ _____    ______ ____
ROOT
ATOM      1  C   UNL     1       8.163   7.584  18.504  0.00  0.00    +0.000 C 
ATOM      2  C   UNL     1       6.994   6.718  18.526  0.00  0.00    +0.000 C 
ATOM      3  C   UNL     1       6.693   6.911  17.048  0.00  0.00    +0.000 C 
ATOM      4  O   UNL     1       7.416   6.448  16.168  0.00  0.00    +0.000 OA
ATOM      5  N   UNL     1       5.316   6.985  16.990  0.00  0.00    +0.000 N 
ATOM      6  C   UNL     1       4.911   5.815  17.654  0.00  0.00    +0.000 A 
ATOM      7  C   UNL     1       3.701   5.229  17.232  0.00  0.00    +0.000 A 
ATOM      8  C   UNL     1       3.421   3.921  17.550  0.00  0.00    +0.000 A 
ATOM      9  C   UNL     1       4.376   3.171  18.256  0.00  0.00    +0.000 A 
ATOM     10  C   UNL     1       5.601   3.884  18.806  0.00  0.00    +0.000 A 
ATOM     11  C   UNL     1       5.915   5.299  18.493  0.00  0.00    +0.000 A 
ATOM     12  H   UNL     1       4.978   7.741  17.578  0.00  0.00    +0.000 HD
ENDROOT
BRANCH   1  16
ATOM     13  C   UNL     1       9.521  12.393  18.540  0.00  0.00    +0.000 A 
ATOM     14  C   UNL     1       8.581  11.815  17.645  0.00  0.00    +0.000 A 
ATOM     15  C   UNL     1       8.145  10.351  17.603  0.00  0.00    +0.000 A 
ATOM     16  C   UNL     1       8.631   9.294  18.424  0.00  0.00    +0.000 A 
ATOM     17  C   UNL     1       9.498   9.914  19.396  0.00  0.00    +0.000 A 
ATOM     18  C   UNL     1       9.936  11.387  19.439  0.00  0.00    +0.000 A 
BRANCH  13  19
ATOM     19  N   UNL     1       9.963  13.756  18.527  0.00  0.00    +0.000 N 
BRANCH  19  21
ATOM     20  C   UNL     1      11.745  13.423  16.743  0.00  0.00    +0.000 C 
ATOM     21  C   UNL     1      11.313  14.150  18.018  0.00  0.00    +0.000 C 
ENDBRANCH  19  21
BRANCH  19  22
ATOM     22  C   UNL     1       9.015  14.887  18.872  0.00  0.00    +0.000 C 
ATOM     23  C   UNL     1       8.506  15.065  20.330  0.00  0.00    +0.000 C 
ENDBRANCH  19  22
ENDBRANCH  13  19
ENDBRANCH   1  16
BRANCH   9  24
ATOM     24  N   UNL     1       3.953   1.838  18.473  0.00  0.00    +0.000 N 
ATOM     25  H   UNL     1       3.172   1.555  17.919  0.00  0.00    +0.000 HD
ATOM     26  H   UNL     1       4.615   1.081  18.466  0.00  0.00    +0.000 HD
ENDBRANCH   9  24
TORSDOF 5
ENDMDL
MODEL 7
REMARK VINA RESULT:      -7.2      5.753      8.511
REMARK  Name = 
REMARK  7 active torsions:
REMARK  status: ('A' for Active; 'I' for Inactive)
REMARK    1  A    between atoms: C_1  and  C_2
REMARK    2  A    between atoms: C_2  and  N_3
REMARK    3  A    between atoms: N_3  and  C_4
REMARK    4  A    between atoms: N_3  and  C_6
REMARK    5  A    between atoms: C_4  and  C_5
REMARK    6  A    between atoms: C_9  and  C_10
REMARK    7  A    between atoms: C_18  and  N_19
REMARK                            x       y       z     vdW  Elec       q    Type
REMARK                         _______ _______ _______ _____ _____    ______ ____
ROOT
ATOM      1  C   UNL     1       1.953   8.527  17.846  0.00  0.00    +0.000 C 
ATOM      2  C   UNL     1       3.209   7.791  17.823  0.00  0.00    +0.000 C 
ATOM      3  C   UNL     1       2.646   6.601  18.584  0.00  0.00    +0.000 C 
ATOM      4  O   UNL     1       1.821   5.837  18.085  0.00  0.00    +0.000 OA
ATOM      5  N   UNL     1       3.671   6.224  19.428  0.00  0.00    +0.000 N 
ATOM      6  C   UNL     1       4.757   6.064  18.552  0.00  0.00    +0.000 A 
ATOM      7  C   UNL     1       5.721   5.097  18.901  0.00  0.00    +0.000 A 
ATOM      8  C   UNL     1       6.591   4.615  17.952  0.00  0.00    +0.000 A 
ATOM      9  C   UNL     1       6.470   5.065  16.626  0.00  0.00    +0.000 A 
ATOM     10  C   UNL     1       5.509   6.205  16.328  0.00  0.00    +0.000 A 
ATOM     11  C   UNL     1       4.576   6.754  17.340  0.00  0.00    +0.000 A 
ATOM     12  H   UNL     1       3.940   7.001  20.026  0.00  0.00    +0.000 HD
ENDROOT
BRANCH   1  16
ATOM     13  C   UNL     1      -1.012  11.342  20.719  0.00  0.00    +0.000 A 
ATOM     14  C   UNL     1      -0.050  10.414  21.199  0.00  0.00    +0.000 A 
ATOM     15  C   UNL     1       0.870   9.535  20.352  0.00  0.00    +0.000 A 
ATOM     16  C   UNL     1       0.901   9.458  18.930  0.00  0.00    +0.000 A 
ATOM     17  C   UNL     1       0.001  10.481  18.458  0.00  0.00    +0.000 A 
ATOM     18  C   UNL     1      -0.924  11.366  19.311  0.00  0.00    +0.000 A 
BRANCH  13  19
ATOM     19  N   UNL     1      -1.908  12.114  21.528  0.00  0.00    +0.000 N 
BRANCH  19  21
ATOM     20  C   UNL     1      -4.029  12.655  20.233  0.00  0.00    +0.000 C 
ATOM     21  C   UNL     1      -2.784  13.180  20.950  0.00  0.00    +0.000 C 
ENDBRANCH  19  21
BRANCH  19  22
ATOM     22  C   UNL     1      -2.135  11.770  22.986  0.00  0.00    +0.000 C 
ATOM     23  C   UNL     1      -3.326  12.399  23.763  0.00  0.00    +0.000 C 
ENDBRANCH  19  22
ENDBRANCH  13  19
ENDBRANCH   1  16
BRANCH   9  24
ATOM     24  N   UNL     1       7.413   4.451  15.767  0.00  0.00    +0.000 N 
ATOM     25  H   UNL     1       7.398   4.787  14.827  0.00  0.00    +0.000 HD
ATOM     26  H   UNL     1       8.377   4.364  16.039  0.00  0.00    +0.000 HD
ENDBRANCH   9  24
TORSDOF 5
ENDMDL
MODEL 8
REMARK VINA RESULT:      -7.2      5.816      8.831
REMARK  Name = 
REMARK  7 active torsions:
REMARK  status: ('A' for Active; 'I' for Inactive)
REMARK    1  A    between atoms: C_1  and  C_2
REMARK    2  A    between atoms: C_2  and  N_3
REMARK    3  A    between atoms: N_3  and  C_4
REMARK    4  A    between atoms: N_3  and  C_6
REMARK    5  A    between atoms: C_4  and  C_5
REMARK    6  A    between atoms: C_9  and  C_10
REMARK    7  A    between atoms: C_18  and  N_19
REMARK                            x       y       z     vdW  Elec       q    Type
REMARK                         _______ _______ _______ _____ _____    ______ ____
ROOT
ATOM      1  C   UNL     1       0.985   8.171  20.521  0.00  0.00    +0.000 C 
ATOM      2  C   UNL     1       0.689   9.440  21.168  0.00  0.00    +0.000 C 
ATOM      3  C   UNL     1       0.499  10.184  19.856  0.00  0.00    +0.000 C 
ATOM      4  O   UNL     1      -0.462   9.973  19.118  0.00  0.00    +0.000 OA
ATOM      5  N   UNL     1       1.072  11.419  20.082  0.00  0.00    +0.000 N 
ATOM      6  C   UNL     1       0.427  11.856  21.251  0.00  0.00    +0.000 A 
ATOM      7  C   UNL     1       0.248  13.246  21.399  0.00  0.00    +0.000 A 
ATOM      8  C   UNL     1      -0.676  13.731  22.295  0.00  0.00    +0.000 A 
ATOM      9  C   UNL     1      -1.466  12.822  23.018  0.00  0.00    +0.000 A 
ATOM     10  C   UNL     1      -1.141  11.340  22.926  0.00  0.00    +0.000 A 
ATOM     11  C   UNL     1      -0.136  10.795  21.982  0.00  0.00    +0.000 A 
ATOM     12  H   UNL     1       2.045  11.313  20.353  0.00  0.00    +0.000 HD
ENDROOT
BRANCH   1  16
ATOM     13  C   UNL     1       4.484   5.902  17.767  0.00  0.00    +0.000 A 
ATOM     14  C   UNL     1       3.922   5.384  18.965  0.00  0.00    +0.000 A 
ATOM     15  C   UNL     1       2.855   6.049  19.833  0.00  0.00    +0.000 A 
ATOM     16  C   UNL     1       2.261   7.326  19.622  0.00  0.00    +0.000 A 
ATOM     17  C   UNL     1       2.758   7.789  18.349  0.00  0.00    +0.000 A 
ATOM     18  C   UNL     1       3.831   7.119  17.475  0.00  0.00    +0.000 A 
BRANCH  13  19
ATOM     19  N   UNL     1       5.527   5.291  16.998  0.00  0.00    +0.000 N 
BRANCH  19  21
ATOM     20  C   UNL     1       5.996   4.001  14.857  0.00  0.00    +0.000 C 
ATOM     21  C   UNL     1       5.312   4.029  16.225  0.00  0.00    +0.000 C 
ENDBRANCH  19  21
BRANCH  19  22
ATOM     22  C   UNL     1       6.856   5.990  16.794  0.00  0.00    +0.000 C 
ATOM     23  C   UNL     1       7.535   6.743  17.972  0.00  0.00    +0.000 C 
ENDBRANCH  19  22
ENDBRANCH  13  19
ENDBRANCH   1  16
BRANCH   9  24
ATOM     24  N   UNL     1      -2.388  13.477  23.869  0.00  0.00    +0.000 N 
ATOM     25  H   UNL     1      -1.981  13.897  24.678  0.00  0.00    +0.000 HD
ATOM     26  H   UNL     1      -3.056  14.131  23.497  0.00  0.00    +0.000 HD
ENDBRANCH   9  24
TORSDOF 5
ENDMDL
MODEL 9
REMARK VINA RESULT:      -7.2      5.794      9.007
REMARK  Name = 
REMARK  7 active torsions:
REMARK  status: ('A' for Active; 'I' for Inactive)
REMARK    1  A    between atoms: C_1  and  C_2
REMARK    2  A    between atoms: C_2  and  N_3
REMARK    3  A    between atoms: N_3  and  C_4
REMARK    4  A    between atoms: N_3  and  C_6
REMARK    5  A    between atoms: C_4  and  C_5
REMARK    6  A    between atoms: C_9  and  C_10
REMARK    7  A    between atoms: C_18  and  N_19
REMARK                            x       y       z     vdW  Elec       q    Type
REMARK                         _______ _______ _______ _____ _____    ______ ____
ROOT
ATOM      1  C   UNL     1       0.950   9.485  18.143  0.00  0.00    +0.000 C 
ATOM      2  C   UNL     1      -0.076  10.143  18.940  0.00  0.00    +0.000 C 
ATOM      3  C   UNL     1       0.927  10.851  19.837  0.00  0.00    +0.000 C 
ATOM      4  O   UNL     1       1.643  11.762  19.426  0.00  0.00    +0.000 OA
ATOM      5  N   UNL     1       0.358  10.791  21.093  0.00  0.00    +0.000 N 
ATOM      6  C   UNL     1      -0.921  11.333  20.884  0.00  0.00    +0.000 A 
ATOM      7  C   UNL     1      -1.504  12.025  21.964  0.00  0.00    +0.000 A 
ATOM      8  C   UNL     1      -2.553  12.887  21.746  0.00  0.00    +0.000 A 
ATOM      9  C   UNL     1      -2.998  13.100  20.431  0.00  0.00    +0.000 A 
ATOM     10  C   UNL     1      -2.431  12.230  19.320  0.00  0.00    +0.000 A 
ATOM     11  C   UNL     1      -1.313  11.280  19.535  0.00  0.00    +0.000 A 
ATOM     12  H   UNL     1       0.185   9.826  21.357  0.00  0.00    +0.000 HD
ENDROOT
BRANCH   1  16
ATOM     13  C   UNL     1       4.261   5.769  18.587  0.00  0.00    +0.000 A 
ATOM     14  C   UNL     1       4.254   6.738  17.549  0.00  0.00    +0.000 A 
ATOM     15  C   UNL     1       3.257   7.884  17.380  0.00  0.00    +0.000 A 
ATOM     16  C   UNL     1       2.132   8.164  18.207  0.00  0.00    +0.000 A 
ATOM     17  C   UNL     1       2.217   7.243  19.314  0.00  0.00    +0.000 A 
ATOM     18  C   UNL     1       3.221   6.090  19.485  0.00  0.00    +0.000 A 
BRANCH  13  19
ATOM     19  N   UNL     1       5.168   4.666  18.697  0.00  0.00    +0.000 N 
BRANCH  19  21
ATOM     20  C   UNL     1       3.735   2.646  18.118  0.00  0.00    +0.000 C 
ATOM     21  C   UNL     1       4.713   3.298  19.098  0.00  0.00    +0.000 C 
ENDBRANCH  19  21
BRANCH  19  22
ATOM     22  C   UNL     1       6.610   4.793  18.248  0.00  0.00    +0.000 C 
ATOM     23  C   UNL     1       7.582   5.750  18.994  0.00  0.00    +0.000 C 
ENDBRANCH  19  22
ENDBRANCH  13  19
ENDBRANCH   1  16
BRANCH   9  24
ATOM     24  N   UNL     1      -4.057  14.037  20.371  0.00  0.00    +0.000 N 
ATOM     25  H   UNL     1      -4.022  14.747  21.072  0.00  0.00    +0.000 HD
ATOM     26  H   UNL     1      -4.299  14.484  19.504  0.00  0.00    +0.000 HD
ENDBRANCH   9  24
TORSDOF 5
ENDMDL
