MODEL 1
REMARK VINA RESULT:      -7.6      0.000      0.000
REMARK  Name = 
REMARK  3 active torsions:
REMARK  status: ('A' for Active; 'I' for Inactive)
REMARK    1  A    between atoms: C_1  and  C_2
REMARK    2  A    between atoms: C_3  and  C_4
REMARK    3  A    between atoms: C_10  and  C_11
REMARK                            x       y       z     vdW  Elec       q    Type
REMARK                         _______ _______ _______ _____ _____    ______ ____
ROOT
ATOM      1  C   UNL     1       8.435   9.045  18.320  0.00  0.00    +0.000 C 
ATOM      2  C   UNL     1       8.899  10.214  17.854  0.00  0.00    +0.000 C 
ENDROOT
BRANCH   2   3
ATOM      3  C   UNL     1       9.779  11.062  18.656  0.00  0.00    +0.000 A 
ATOM      4  C   UNL     1       9.602  11.119  20.043  0.00  0.00    +0.000 A 
ATOM      5  C   UNL     1      10.429  11.928  20.824  0.00  0.00    +0.000 A 
ATOM      6  C   UNL     1      11.435  12.681  20.222  0.00  0.00    +0.000 A 
ATOM      7  C   UNL     1      11.615  12.629  18.839  0.00  0.00    +0.000 A 
ATOM      8  C   UNL     1      10.787  11.821  18.055  0.00  0.00    +0.000 A 
ENDBRANCH   2   3
BRANCH   1   9
ATOM      9  C   UNL     1       7.635   8.157  17.506  0.00  0.00    +0.000 C 
ATOM     10  C   UNL     1       7.619   6.823  17.663  0.00  0.00    +0.000 C 
BRANCH  10  11
ATOM     11  C   UNL     1       6.856   5.915  16.792  0.00  0.00    +0.000 A 
ATOM     12  C   UNL     1       5.572   5.514  17.149  0.00  0.00    +0.000 A 
ATOM     13  C   UNL     1       4.888   4.629  16.317  0.00  0.00    +0.000 A 
ATOM     14  C   UNL     1       5.499   4.174  15.156  0.00  0.00    +0.000 A 
ATOM     15  C   UNL     1       6.776   4.626  14.873  0.00  0.00    +0.000 A 
ATOM     16  N   UNL     1       7.461   5.481  15.660  0.00  0.00    +0.000 NA
ENDBRANCH  10  11
ENDBRANCH   1   9
TORSDOF 3
ENDMDL
MODEL 2
REMARK VINA RESULT:      -7.5      0.240      1.226
REMARK  Name = 
REMARK  3 active torsions:
REMARK  status: ('A' for Active; 'I' for Inactive)
REMARK    1  A    between atoms: C_1  and  C_2
REMARK    2  A    between atoms: C_3  and  C_4
REMARK    3  A    between atoms: C_10  and  C_11
REMARK                            x       y       z     vdW  Elec       q    Type
REMARK                         _______ _______ _______ _____ _____    ______ ____
ROOT
ATOM      1  C   UNL     1       8.439   9.054  18.358  0.00  0.00    +0.000 C 
ATOM      2  C   UNL     1       8.909  10.211  17.868  0.00  0.00    +0.000 C 
ENDROOT
BRANCH   2   3
ATOM      3  C   UNL     1       9.719  11.114  18.683  0.00  0.00    +0.000 A 
ATOM      4  C   UNL     1      10.578  12.023  18.055  0.00  0.00    +0.000 A 
ATOM      5  C   UNL     1      11.365  12.888  18.817  0.00  0.00    +0.000 A 
ATOM      6  C   UNL     1      11.294  12.848  20.208  0.00  0.00    +0.000 A 
ATOM      7  C   UNL     1      10.441  11.943  20.840  0.00  0.00    +0.000 A 
ATOM      8  C   UNL     1       9.654  11.075  20.079  0.00  0.00    +0.000 A 
ENDBRANCH   2   3
BRANCH   1   9
ATOM      9  C   UNL     1       7.711   8.111  17.539  0.00  0.00    +0.000 C 
ATOM     10  C   UNL     1       7.601   6.805  17.832  0.00  0.00    +0.000 C 
BRANCH  10  11
ATOM     11  C   UNL     1       6.916   5.836  16.963  0.00  0.00    +0.000 A 
ATOM     12  C   UNL     1       5.746   5.215  17.391  0.00  0.00    +0.000 A 
ATOM     13  C   UNL     1       5.138   4.279  16.556  0.00  0.00    +0.000 A 
ATOM     14  C   UNL     1       5.710   3.991  15.323  0.00  0.00    +0.000 A 
ATOM     15  C   UNL     1       6.871   4.657  14.974  0.00  0.00    +0.000 A 
ATOM     16  N   UNL     1       7.481   5.567  15.762  0.00  0.00    +0.000 NA
ENDBRANCH  10  11
ENDBRANCH   1   9
TORSDOF 3
ENDMDL
MODEL 3
REMARK VINA RESULT:      -7.3      0.921      1.775
REMARK  Name = 
REMARK  3 active torsions:
REMARK  status: ('A' for Active; 'I' for Inactive)
REMARK    1  A    between atoms: C_1  and  C_2
REMARK    2  A    between atoms: C_3  and  C_4
REMARK    3  A    between atoms: C_10  and  C_11
REMARK                            x       y       z     vdW  Elec       q    Type
REMARK                         _______ _______ _______ _____ _____    ______ ____
ROOT
ATOM      1  C   UNL     1       8.568   8.728  18.382  0.00  0.00    +0.000 C 
ATOM      2  C   UNL     1       8.670  10.029  18.075  0.00  0.00    +0.000 C 
ENDROOT
BRANCH   2   3
ATOM      3  C   UNL     1       9.658  10.892  18.721  0.00  0.00    +0.000 A 
ATOM      4  C   UNL     1      10.643  11.511  17.944  0.00  0.00    +0.000 A 
ATOM      5  C   UNL     1      11.598  12.333  18.544  0.00  0.00    +0.000 A 
ATOM      6  C   UNL     1      11.571  12.539  19.922  0.00  0.00    +0.000 A 
ATOM      7  C   UNL     1      10.591  11.923  20.702  0.00  0.00    +0.000 A 
ATOM      8  C   UNL     1       9.636  11.099  20.103  0.00  0.00    +0.000 A 
ENDBRANCH   2   3
BRANCH   1   9
ATOM      9  C   UNL     1       7.657   7.844  17.690  0.00  0.00    +0.000 C 
ATOM     10  C   UNL     1       7.469   6.559  18.031  0.00  0.00    +0.000 C 
BRANCH  10  11
ATOM     11  C   UNL     1       6.591   5.644  17.285  0.00  0.00    +0.000 A 
ATOM     12  C   UNL     1       7.077   4.945  16.184  0.00  0.00    +0.000 A 
ATOM     13  C   UNL     1       6.211   4.110  15.481  0.00  0.00    +0.000 A 
ATOM     14  C   UNL     1       4.890   3.993  15.895  0.00  0.00    +0.000 A 
ATOM     15  C   UNL     1       4.489   4.720  17.002  0.00  0.00    +0.000 A 
ATOM     16  N   UNL     1       5.306   5.536  17.701  0.00  0.00    +0.000 NA
ENDBRANCH  10  11
ENDBRANCH   1   9
TORSDOF 3
ENDMDL
MODEL 4
REMARK VINA RESULT:      -7.2      0.880      1.276
REMARK  Name = 
REMARK  3 active torsions:
REMARK  status: ('A' for Active; 'I' for Inactive)
REMARK    1  A    between atoms: C_1  and  C_2
REMARK    2  A    between atoms: C_3  and  C_4
REMARK    3  A    between atoms: C_10  and  C_11
REMARK                            x       y       z     vdW  Elec       q    Type
REMARK                         _______ _______ _______ _____ _____    ______ ____
ROOT
ATOM      1  C   UNL     1       8.555   8.838  18.371  0.00  0.00    +0.000 C 
ATOM      2  C   UNL     1       8.793  10.094  17.964  0.00  0.00    +0.000 C 
ENDROOT
BRANCH   2   3
ATOM      3  C   UNL     1       9.751  10.954  18.655  0.00  0.00    +0.000 A 
ATOM      4  C   UNL     1       9.655  11.115  20.042  0.00  0.00    +0.000 A 
ATOM      5  C   UNL     1      10.557  11.938  20.718  0.00  0.00    +0.000 A 
ATOM      6  C   UNL     1      11.557  12.602  20.011  0.00  0.00    +0.000 A 
ATOM      7  C   UNL     1      11.656  12.446  18.628  0.00  0.00    +0.000 A 
ATOM      8  C   UNL     1      10.754  11.625  17.949  0.00  0.00    +0.000 A 
ENDBRANCH   2   3
BRANCH   1   9
ATOM      9  C   UNL     1       7.677   7.948  17.646  0.00  0.00    +0.000 C 
ATOM     10  C   UNL     1       7.438   6.679  18.016  0.00  0.00    +0.000 C 
BRANCH  10  11
ATOM     11  C   UNL     1       6.596   5.755  17.241  0.00  0.00    +0.000 A 
ATOM     12  C   UNL     1       7.032   5.272  16.011  0.00  0.00    +0.000 A 
ATOM     13  C   UNL     1       6.197   4.421  15.288  0.00  0.00    +0.000 A 
ATOM     14  C   UNL     1       4.956   4.077  15.811  0.00  0.00    +0.000 A 
ATOM     15  C   UNL     1       4.602   4.599  17.042  0.00  0.00    +0.000 A 
ATOM     16  N   UNL     1       5.390   5.424  17.763  0.00  0.00    +0.000 NA
ENDBRANCH  10  11
ENDBRANCH   1   9
TORSDOF 3
ENDMDL
MODEL 5
REMARK VINA RESULT:      -7.1      6.383      8.507
REMARK  Name = 
REMARK  3 active torsions:
REMARK  status: ('A' for Active; 'I' for Inactive)
REMARK    1  A    between atoms: C_1  and  C_2
REMARK    2  A    between atoms: C_3  and  C_4
REMARK    3  A    between atoms: C_10  and  C_11
REMARK                            x       y       z     vdW  Elec       q    Type
REMARK                         _______ _______ _______ _____ _____    ______ ____
ROOT
ATOM      1  C   UNL     1       4.432   3.656  17.441  0.00  0.00    +0.000 C 
ATOM      2  C   UNL     1       3.270   3.038  17.697  0.00  0.00    +0.000 C 
ENDROOT
BRANCH   2   3
ATOM      3  C   UNL     1       2.631   3.122  19.009  0.00  0.00    +0.000 A 
ATOM      4  C   UNL     1       3.283   2.591  20.127  0.00  0.00    +0.000 A 
ATOM      5  C   UNL     1       2.685   2.656  21.387  0.00  0.00    +0.000 A 
ATOM      6  C   UNL     1       1.434   3.252  21.532  0.00  0.00    +0.000 A 
ATOM      7  C   UNL     1       0.779   3.783  20.420  0.00  0.00    +0.000 A 
ATOM      8  C   UNL     1       1.374   3.717  19.159  0.00  0.00    +0.000 A 
ENDBRANCH   2   3
BRANCH   1   9
ATOM      9  C   UNL     1       5.031   3.654  16.125  0.00  0.00    +0.000 C 
ATOM     10  C   UNL     1       5.947   4.552  15.727  0.00  0.00    +0.000 C 
BRANCH  10  11
ATOM     11  C   UNL     1       6.506   4.588  14.367  0.00  0.00    +0.000 A 
ATOM     12  C   UNL     1       5.999   3.751  13.377  0.00  0.00    +0.000 A 
ATOM     13  C   UNL     1       6.572   3.788  12.106  0.00  0.00    +0.000 A 
ATOM     14  C   UNL     1       7.628   4.656  11.860  0.00  0.00    +0.000 A 
ATOM     15  C   UNL     1       8.069   5.456  12.899  0.00  0.00    +0.000 A 
ATOM     16  N   UNL     1       7.534   5.440  14.138  0.00  0.00    +0.000 NA
ENDBRANCH  10  11
ENDBRANCH   1   9
TORSDOF 3
ENDMDL
MODEL 6
REMARK VINA RESULT:      -7.1      6.411      8.480
REMARK  Name = 
REMARK  3 active torsions:
REMARK  status: ('A' for Active; 'I' for Inactive)
REMARK    1  A    between atoms: C_1  and  C_2
REMARK    2  A    between atoms: C_3  and  C_4
REMARK    3  A    between atoms: C_10  and  C_11
REMARK                            x       y       z     vdW  Elec       q    Type
REMARK                         _______ _______ _______ _____ _____    ______ ____
ROOT
ATOM      1  C   UNL     1       4.395   4.288  17.495  0.00  0.00    +0.000 C 
ATOM      2  C   UNL     1       3.242   3.615  17.622  0.00  0.00    +0.000 C 
ENDROOT
BRANCH   2   3
ATOM      3  C   UNL     1       2.640   3.366  18.931  0.00  0.00    +0.000 A 
ATOM      4  C   UNL     1       1.268   3.571  19.107  0.00  0.00    +0.000 A 
ATOM      5  C   UNL     1       0.677   3.345  20.351  0.00  0.00    +0.000 A 
ATOM      6  C   UNL     1       1.457   2.914  21.422  0.00  0.00    +0.000 A 
ATOM      7  C   UNL     1       2.827   2.709  21.253  0.00  0.00    +0.000 A 
ATOM      8  C   UNL     1       3.420   2.936  20.009  0.00  0.00    +0.000 A 
ENDBRANCH   2   3
BRANCH   1   9
ATOM      9  C   UNL     1       4.956   4.617  16.204  0.00  0.00    +0.000 C 
ATOM     10  C   UNL     1       5.846   3.842  15.564  0.00  0.00    +0.000 C 
BRANCH  10  11
ATOM     11  C   UNL     1       6.465   4.210  14.281  0.00  0.00    +0.000 A 
ATOM     12  C   UNL     1       6.101   3.550  13.111  0.00  0.00    +0.000 A 
ATOM     13  C   UNL     1       6.728   3.903  11.917  0.00  0.00    +0.000 A 
ATOM     14  C   UNL     1       7.695   4.900  11.924  0.00  0.00    +0.000 A 
ATOM     15  C   UNL     1       7.995   5.508  13.130  0.00  0.00    +0.000 A 
ATOM     16  N   UNL     1       7.404   5.187  14.300  0.00  0.00    +0.000 NA
ENDBRANCH  10  11
ENDBRANCH   1   9
TORSDOF 3
ENDMDL
MODEL 7
REMARK VINA RESULT:      -7.0      2.017      8.071
REMARK  Name = 
REMARK  3 active torsions:
REMARK  status: ('A' for Active; 'I' for Inactive)
REMARK    1  A    between atoms: C_1  and  C_2
REMARK    2  A    between atoms: C_3  and  C_4
REMARK    3  A    between atoms: C_10  and  C_11
REMARK                            x       y       z     vdW  Elec       q    Type
REMARK                         _______ _______ _______ _____ _____    ______ ____
ROOT
ATOM      1  C   UNL     1       7.685   7.928  17.742  0.00  0.00    +0.000 C 
ATOM      2  C   UNL     1       7.560   6.632  18.064  0.00  0.00    +0.000 C 
ENDROOT
BRANCH   2   3
ATOM      3  C   UNL     1       6.622   5.756  17.363  0.00  0.00    +0.000 A 
ATOM      4  C   UNL     1       5.249   5.897  17.591  0.00  0.00    +0.000 A 
ATOM      5  C   UNL     1       4.339   5.065  16.935  0.00  0.00    +0.000 A 
ATOM      6  C   UNL     1       4.800   4.092  16.051  0.00  0.00    +0.000 A 
ATOM      7  C   UNL     1       6.168   3.947  15.822  0.00  0.00    +0.000 A 
ATOM      8  C   UNL     1       7.080   4.777  16.478  0.00  0.00    +0.000 A 
ENDBRANCH   2   3
BRANCH   1   9
ATOM      9  C   UNL     1       8.669   8.784  18.366  0.00  0.00    +0.000 C 
ATOM     10  C   UNL     1       8.654  10.123  18.269  0.00  0.00    +0.000 C 
BRANCH  10  11
ATOM     11  C   UNL     1       9.692  10.988  18.850  0.00  0.00    +0.000 A 
ATOM     12  C   UNL     1      10.740  11.455  18.062  0.00  0.00    +0.000 A 
ATOM     13  C   UNL     1      11.724  12.248  18.650  0.00  0.00    +0.000 A 
ATOM     14  C   UNL     1      11.635  12.553  20.003  0.00  0.00    +0.000 A 
ATOM     15  C   UNL     1      10.559  12.051  20.713  0.00  0.00    +0.000 A 
ATOM     16  N   UNL     1       9.593  11.281  20.169  0.00  0.00    +0.000 NA
ENDBRANCH  10  11
ENDBRANCH   1   9
TORSDOF 3
ENDMDL
MODEL 8
REMARK VINA RESULT:      -7.0      2.338      8.075
REMARK  Name = 
REMARK  3 active torsions:
REMARK  status: ('A' for Active; 'I' for Inactive)
REMARK    1  A    between atoms: C_1  and  C_2
REMARK    2  A    between atoms: C_3  and  C_4
REMARK    3  A    between atoms: C_10  and  C_11
REMARK                            x       y       z     vdW  Elec       q    Type
REMARK                         _______ _______ _______ _____ _____    ______ ____
ROOT
ATOM      1  C   UNL     1       7.879   8.685  17.770  0.00  0.00    +0.000 C 
ATOM      2  C   UNL     1       7.861   7.382  18.084  0.00  0.00    +0.000 C 
ENDROOT
BRANCH   2   3
ATOM      3  C   UNL     1       7.000   6.436  17.377  0.00  0.00    +0.000 A 
ATOM      4  C   UNL     1       5.758   6.864  16.896  0.00  0.00    +0.000 A 
ATOM      5  C   UNL     1       4.919   5.973  16.225  0.00  0.00    +0.000 A 
ATOM      6  C   UNL     1       5.320   4.652  16.032  0.00  0.00    +0.000 A 
ATOM      7  C   UNL     1       6.557   4.220  16.510  0.00  0.00    +0.000 A 
ATOM      8  C   UNL     1       7.397   5.109  17.184  0.00  0.00    +0.000 A 
ENDBRANCH   2   3
BRANCH   1   9
ATOM      9  C   UNL     1       8.788   9.616  18.401  0.00  0.00    +0.000 C 
ATOM     10  C   UNL     1       8.921  10.897  18.018  0.00  0.00    +0.000 C 
BRANCH  10  11
ATOM     11  C   UNL     1       9.893  11.824  18.618  0.00  0.00    +0.000 A 
ATOM     12  C   UNL     1      10.832  11.360  19.534  0.00  0.00    +0.000 A 
ATOM     13  C   UNL     1      11.720  12.270  20.107  0.00  0.00    +0.000 A 
ATOM     14  C   UNL     1      11.646  13.611  19.749  0.00  0.00    +0.000 A 
ATOM     15  C   UNL     1      10.685  13.987  18.828  0.00  0.00    +0.000 A 
ATOM     16  N   UNL     1       9.814  13.128  18.259  0.00  0.00    +0.000 NA
ENDBRANCH  10  11
ENDBRANCH   1   9
TORSDOF 3
ENDMDL
MODEL 9
REMARK VINA RESULT:      -6.9      6.463      8.215
REMARK  Name = 
REMARK  3 active torsions:
REMARK  status: ('A' for Active; 'I' for Inactive)
REMARK    1  A    between atoms: C_1  and  C_2
REMARK    2  A    between atoms: C_3  and  C_4
REMARK    3  A    between atoms: C_10  and  C_11
REMARK                            x       y       z     vdW  Elec       q    Type
REMARK                         _______ _______ _______ _____ _____    ______ ____
ROOT
ATOM      1  C   UNL     1       5.514   4.590  16.613  0.00  0.00    +0.000 C 
ATOM      2  C   UNL     1       5.203   3.973  15.464  0.00  0.00    +0.000 C 
ENDROOT
BRANCH   2   3
ATOM      3  C   UNL     1       5.998   4.166  14.252  0.00  0.00    +0.000 A 
ATOM      4  C   UNL     1       5.679   3.442  13.098  0.00  0.00    +0.000 A 
ATOM      5  C   UNL     1       6.432   3.608  11.934  0.00  0.00    +0.000 A 
ATOM      6  C   UNL     1       7.503   4.499  11.921  0.00  0.00    +0.000 A 
ATOM      7  C   UNL     1       7.826   5.223  13.069  0.00  0.00    +0.000 A 
ATOM      8  C   UNL     1       7.075   5.057  14.235  0.00  0.00    +0.000 A 
ENDBRANCH   2   3
BRANCH   1   9
ATOM      9  C   UNL     1       4.790   4.341  17.840  0.00  0.00    +0.000 C 
ATOM     10  C   UNL     1       3.648   3.635  17.896  0.00  0.00    +0.000 C 
BRANCH  10  11
ATOM     11  C   UNL     1       2.879   3.439  19.135  0.00  0.00    +0.000 A 
ATOM     12  C   UNL     1       1.586   3.941  19.245  0.00  0.00    +0.000 A 
ATOM     13  C   UNL     1       0.895   3.764  20.443  0.00  0.00    +0.000 A 
ATOM     14  C   UNL     1       1.511   3.093  21.492  0.00  0.00    +0.000 A 
ATOM     15  C   UNL     1       2.797   2.623  21.298  0.00  0.00    +0.000 A 
ATOM     16  N   UNL     1       3.489   2.780  20.150  0.00  0.00    +0.000 NA
ENDBRANCH  10  11
ENDBRANCH   1   9
TORSDOF 3
ENDMDL
