MODEL 1
REMARK VINA RESULT:      -6.6      0.000      0.000
REMARK  Name = 
REMARK  12 active torsions:
REMARK  status: ('A' for Active; 'I' for Inactive)
REMARK    1  A    between atoms: C_1  and  O_2
REMARK    2  A    between atoms: O_2  and  C_3
REMARK    3  A    between atoms: C_7  and  C_8
REMARK    4  A    between atoms: C_8  and  C_9
REMARK    5  A    between atoms: C_9  and  O_10
REMARK    6  A    between atoms: O_10  and  P_11
REMARK    7  A    between atoms: P_11  and  N_12
REMARK    8  A    between atoms: P_11  and  N_14
REMARK    9  A    between atoms: N_14  and  C_15
REMARK   10  A    between atoms: N_14  and  C_18
REMARK   11  A    between atoms: C_15  and  C_16
REMARK   12  A    between atoms: C_18  and  C_19
REMARK                            x       y       z     vdW  Elec       q    Type
REMARK                         _______ _______ _______ _____ _____    ______ ____
ROOT
ATOM      1  C   UNL     1       2.651   5.929  18.819  0.00  0.00    +0.000 C 
ENDROOT
BRANCH   1   2
ATOM      2  C   UNL     1       2.550   7.107  17.822  0.00  0.00    +0.000 C 
BRANCH   2   7
ATOM      3  C   UNL     1       0.516  10.248  21.778  0.00  0.00    +0.000 A 
ATOM      4  C   UNL     1       0.865   8.902  21.936  0.00  0.00    +0.000 A 
ATOM      5  C   UNL     1       1.388   8.145  20.871  0.00  0.00    +0.000 A 
ATOM      6  C   UNL     1       1.545   8.766  19.618  0.00  0.00    +0.000 A 
ATOM      7  C   UNL     1       1.989   8.405  18.316  0.00  0.00    +0.000 A 
ATOM      8  N   UNL     1       1.996   9.474  17.504  0.00  0.00    +0.000 NA
ATOM      9  O   UNL     1       1.504  10.531  18.251  0.00  0.00    +0.000 OA
ATOM     10  C   UNL     1       1.226  10.109  19.512  0.00  0.00    +0.000 A 
ATOM     11  C   UNL     1       0.715  10.887  20.546  0.00  0.00    +0.000 A 
BRANCH   3  13
ATOM     12  C   UNL     1      -1.325  10.729  23.209  0.00  0.00    +0.000 C 
ATOM     13  O   UNL     1      -0.019  11.052  22.750  0.00  0.00    +0.000 OA
ENDBRANCH   3  13
ENDBRANCH   2   7
ENDBRANCH   1   2
BRANCH   1  14
ATOM     14  O   UNL     1       3.940   5.355  19.086  0.00  0.00    +0.000 OA
BRANCH  14  15
ATOM     15  P   UNL     1       4.449   4.112  18.206  0.00  0.00    +0.000 P 
ATOM     16  O   UNL     1       3.311   3.215  17.791  0.00  0.00    +0.000 OA
BRANCH  15  17
ATOM     17  N   UNL     1       5.530   3.336  19.159  0.00  0.00    +0.000 NA
ATOM     18  H   UNL     1       5.096   2.559  19.628  0.00  0.00    +0.000 HD
ATOM     19  H   UNL     1       6.299   2.958  18.622  0.00  0.00    +0.000 HD
ENDBRANCH  15  17
BRANCH  15  20
ATOM     20  N   UNL     1       5.441   4.542  16.955  0.00  0.00    +0.000 NA
BRANCH  20  21
ATOM     21  C   UNL     1       6.526   5.469  17.351  0.00  0.00    +0.000 C 
BRANCH  21  22
ATOM     22  C   UNL     1       6.324   6.985  17.262  0.00  0.00    +0.000 C 
ATOM     23 CL   UNL     1       7.826   7.820  17.765  0.00  0.00    +0.000 Cl
ENDBRANCH  21  22
ENDBRANCH  20  21
BRANCH  20  24
ATOM     24  C   UNL     1       5.767   3.699  15.803  0.00  0.00    +0.000 C 
BRANCH  24  25
ATOM     25  C   UNL     1       6.562   4.386  14.688  0.00  0.00    +0.000 C 
ATOM     26 CL   UNL     1       6.147   3.684  13.100  0.00  0.00    +0.000 Cl
ENDBRANCH  24  25
ENDBRANCH  20  24
ENDBRANCH  15  20
ENDBRANCH  14  15
ENDBRANCH   1  14
TORSDOF 11
ENDMDL
MODEL 2
REMARK VINA RESULT:      -6.6      0.722      2.109
REMARK  Name = 
REMARK  12 active torsions:
REMARK  status: ('A' for Active; 'I' for Inactive)
REMARK    1  A    between atoms: C_1  and  O_2
REMARK    2  A    between atoms: O_2  and  C_3
REMARK    3  A    between atoms: C_7  and  C_8
REMARK    4  A    between atoms: C_8  and  C_9
REMARK    5  A    between atoms: C_9  and  O_10
REMARK    6  A    between atoms: O_10  and  P_11
REMARK    7  A    between atoms: P_11  and  N_12
REMARK    8  A    between atoms: P_11  and  N_14
REMARK    9  A    between atoms: N_14  and  C_15
REMARK   10  A    between atoms: N_14  and  C_18
REMARK   11  A    between atoms: C_15  and  C_16
REMARK   12  A    between atoms: C_18  and  C_19
REMARK                            x       y       z     vdW  Elec       q    Type
REMARK                         _______ _______ _______ _____ _____    ______ ____
ROOT
ATOM      1  C   UNL     1       2.463   5.820  18.640  0.00  0.00    +0.000 C 
ENDROOT
BRANCH   1   2
ATOM      2  C   UNL     1       2.893   7.212  18.122  0.00  0.00    +0.000 C 
BRANCH   2   7
ATOM      3  C   UNL     1       0.051  10.100  21.759  0.00  0.00    +0.000 A 
ATOM      4  C   UNL     1       0.652   8.865  22.025  0.00  0.00    +0.000 A 
ATOM      5  C   UNL     1       1.376   8.168  21.038  0.00  0.00    +0.000 A 
ATOM      6  C   UNL     1       1.476   8.734  19.753  0.00  0.00    +0.000 A 
ATOM      7  C   UNL     1       2.057   8.396  18.500  0.00  0.00    +0.000 A 
ATOM      8  N   UNL     1       1.896   9.394  17.618  0.00  0.00    +0.000 NA
ATOM      9  O   UNL     1       1.162  10.371  18.268  0.00  0.00    +0.000 OA
ATOM     10  C   UNL     1       0.902   9.976  19.542  0.00  0.00    +0.000 A 
ATOM     11  C   UNL     1       0.188  10.693  20.496  0.00  0.00    +0.000 A 
BRANCH   3  13
ATOM     12  C   UNL     1      -1.262  12.044  22.171  0.00  0.00    +0.000 C 
ATOM     13  O   UNL     1      -0.688  10.834  22.650  0.00  0.00    +0.000 OA
ENDBRANCH   3  13
ENDBRANCH   2   7
ENDBRANCH   1   2
BRANCH   1  14
ATOM     14  O   UNL     1       3.454   4.962  19.228  0.00  0.00    +0.000 OA
BRANCH  14  15
ATOM     15  P   UNL     1       4.202   3.875  18.313  0.00  0.00    +0.000 P 
ATOM     16  O   UNL     1       3.230   3.061  17.498  0.00  0.00    +0.000 OA
BRANCH  15  17
ATOM     17  N   UNL     1       5.051   2.951  19.363  0.00  0.00    +0.000 NA
ATOM     18  H   UNL     1       5.512   2.199  18.882  0.00  0.00    +0.000 HD
ATOM     19  H   UNL     1       5.772   3.483  19.831  0.00  0.00    +0.000 HD
ENDBRANCH  15  17
BRANCH  15  20
ATOM     20  N   UNL     1       5.449   4.499  17.422  0.00  0.00    +0.000 NA
BRANCH  20  21
ATOM     21  C   UNL     1       5.153   4.593  15.974  0.00  0.00    +0.000 C 
BRANCH  21  22
ATOM     22  C   UNL     1       6.029   3.858  14.954  0.00  0.00    +0.000 C 
ATOM     23 CL   UNL     1       7.272   4.977  14.316  0.00  0.00    +0.000 Cl
ENDBRANCH  21  22
ENDBRANCH  20  21
BRANCH  20  24
ATOM     24  C   UNL     1       6.419   5.487  17.898  0.00  0.00    +0.000 C 
BRANCH  24  25
ATOM     25  C   UNL     1       6.343   6.862  17.227  0.00  0.00    +0.000 C 
ATOM     26 CL   UNL     1       7.798   7.824  17.605  0.00  0.00    +0.000 Cl
ENDBRANCH  24  25
ENDBRANCH  20  24
ENDBRANCH  15  20
ENDBRANCH  14  15
ENDBRANCH   1  14
TORSDOF 11
ENDMDL
MODEL 3
REMARK VINA RESULT:      -6.5      5.877      7.740
REMARK  Name = 
REMARK  12 active torsions:
REMARK  status: ('A' for Active; 'I' for Inactive)
REMARK    1  A    between atoms: C_1  and  O_2
REMARK    2  A    between atoms: O_2  and  C_3
REMARK    3  A    between atoms: C_7  and  C_8
REMARK    4  A    between atoms: C_8  and  C_9
REMARK    5  A    between atoms: C_9  and  O_10
REMARK    6  A    between atoms: O_10  and  P_11
REMARK    7  A    between atoms: P_11  and  N_12
REMARK    8  A    between atoms: P_11  and  N_14
REMARK    9  A    between atoms: N_14  and  C_15
REMARK   10  A    between atoms: N_14  and  C_18
REMARK   11  A    between atoms: C_15  and  C_16
REMARK   12  A    between atoms: C_18  and  C_19
REMARK                            x       y       z     vdW  Elec       q    Type
REMARK                         _______ _______ _______ _____ _____    ______ ____
ROOT
ATOM      1  C   UNL     1       8.268   7.819  18.541  0.00  0.00    +0.000 C 
ENDROOT
BRANCH   1   2
ATOM      2  C   UNL     1       8.326   9.299  18.096  0.00  0.00    +0.000 C 
BRANCH   2   7
ATOM      3  C   UNL     1      11.513  13.675  18.678  0.00  0.00    +0.000 A 
ATOM      4  C   UNL     1      11.098  13.156  17.447  0.00  0.00    +0.000 A 
ATOM      5  C   UNL     1      10.271  12.020  17.366  0.00  0.00    +0.000 A 
ATOM      6  C   UNL     1       9.872  11.392  18.560  0.00  0.00    +0.000 A 
ATOM      7  C   UNL     1       9.099  10.262  18.944  0.00  0.00    +0.000 A 
ATOM      8  N   UNL     1       8.989  10.194  20.280  0.00  0.00    +0.000 NA
ATOM      9  O   UNL     1       9.735  11.246  20.784  0.00  0.00    +0.000 OA
ATOM     10  C   UNL     1      10.271  11.958  19.759  0.00  0.00    +0.000 A 
ATOM     11  C   UNL     1      11.080  13.084  19.873  0.00  0.00    +0.000 A 
BRANCH   3  13
ATOM     12  C   UNL     1      12.097  15.575  19.990  0.00  0.00    +0.000 C 
ATOM     13  O   UNL     1      12.333  14.759  18.850  0.00  0.00    +0.000 OA
ENDBRANCH   3  13
ENDBRANCH   2   7
ENDBRANCH   1   2
BRANCH   1  14
ATOM     14  O   UNL     1       7.784   6.835  17.613  0.00  0.00    +0.000 OA
BRANCH  14  15
ATOM     15  P   UNL     1       7.101   5.492  18.170  0.00  0.00    +0.000 P 
ATOM     16  O   UNL     1       6.974   5.508  19.671  0.00  0.00    +0.000 OA
BRANCH  15  17
ATOM     17  N   UNL     1       8.066   4.279  17.646  0.00  0.00    +0.000 NA
ATOM     18  H   UNL     1       8.898   4.647  17.217  0.00  0.00    +0.000 HD
ATOM     19  H   UNL     1       8.369   3.686  18.406  0.00  0.00    +0.000 HD
ENDBRANCH  15  17
BRANCH  15  20
ATOM     20  N   UNL     1       5.698   5.087  17.393  0.00  0.00    +0.000 NA
BRANCH  20  21
ATOM     21  C   UNL     1       4.737   6.208  17.282  0.00  0.00    +0.000 C 
BRANCH  21  22
ATOM     22  C   UNL     1       3.491   6.253  18.173  0.00  0.00    +0.000 C 
ATOM     23 CL   UNL     1       2.545   4.747  17.954  0.00  0.00    +0.000 Cl
ENDBRANCH  21  22
ENDBRANCH  20  21
BRANCH  20  24
ATOM     24  C   UNL     1       5.578   4.090  16.326  0.00  0.00    +0.000 C 
BRANCH  24  25
ATOM     25  C   UNL     1       5.409   4.655  14.913  0.00  0.00    +0.000 C 
ATOM     26 CL   UNL     1       6.997   4.831  14.116  0.00  0.00    +0.000 Cl
ENDBRANCH  24  25
ENDBRANCH  20  24
ENDBRANCH  15  20
ENDBRANCH  14  15
ENDBRANCH   1  14
TORSDOF 11
ENDMDL
MODEL 4
REMARK VINA RESULT:      -6.3      1.749      3.097
REMARK  Name = 
REMARK  12 active torsions:
REMARK  status: ('A' for Active; 'I' for Inactive)
REMARK    1  A    between atoms: C_1  and  O_2
REMARK    2  A    between atoms: O_2  and  C_3
REMARK    3  A    between atoms: C_7  and  C_8
REMARK    4  A    between atoms: C_8  and  C_9
REMARK    5  A    between atoms: C_9  and  O_10
REMARK    6  A    between atoms: O_10  and  P_11
REMARK    7  A    between atoms: P_11  and  N_12
REMARK    8  A    between atoms: P_11  and  N_14
REMARK    9  A    between atoms: N_14  and  C_15
REMARK   10  A    between atoms: N_14  and  C_18
REMARK   11  A    between atoms: C_15  and  C_16
REMARK   12  A    between atoms: C_18  and  C_19
REMARK                            x       y       z     vdW  Elec       q    Type
REMARK                         _______ _______ _______ _____ _____    ______ ____
ROOT
ATOM      1  C   UNL     1       2.831   6.129  18.231  0.00  0.00    +0.000 C 
ENDROOT
BRANCH   1   2
ATOM      2  C   UNL     1       2.496   7.636  18.145  0.00  0.00    +0.000 C 
BRANCH   2   7
ATOM      3  C   UNL     1      -0.921  11.303  20.272  0.00  0.00    +0.000 A 
ATOM      4  C   UNL     1      -0.608  11.209  18.911  0.00  0.00    +0.000 A 
ATOM      5  C   UNL     1       0.285  10.234  18.425  0.00  0.00    +0.000 A 
ATOM      6  C   UNL     1       0.880   9.350  19.344  0.00  0.00    +0.000 A 
ATOM      7  C   UNL     1       1.812   8.277  19.314  0.00  0.00    +0.000 A 
ATOM      8  N   UNL     1       1.947   7.731  20.532  0.00  0.00    +0.000 NA
ATOM      9  O   UNL     1       1.146   8.476  21.381  0.00  0.00    +0.000 OA
ATOM     10  C   UNL     1       0.514   9.450  20.675  0.00  0.00    +0.000 A 
ATOM     11  C   UNL     1      -0.370  10.395  21.186  0.00  0.00    +0.000 A 
BRANCH   3  13
ATOM     12  C   UNL     1      -2.892  12.625  20.071  0.00  0.00    +0.000 C 
ATOM     13  O   UNL     1      -1.759  12.231  20.834  0.00  0.00    +0.000 OA
ENDBRANCH   3  13
ENDBRANCH   2   7
ENDBRANCH   1   2
BRANCH   1  14
ATOM     14  O   UNL     1       4.117   5.733  18.735  0.00  0.00    +0.000 OA
BRANCH  14  15
ATOM     15  P   UNL     1       4.983   4.649  17.927  0.00  0.00    +0.000 P 
ATOM     16  O   UNL     1       4.153   3.916  16.905  0.00  0.00    +0.000 OA
BRANCH  15  17
ATOM     17  N   UNL     1       5.577   3.644  19.073  0.00  0.00    +0.000 NA
ATOM     18  H   UNL     1       6.390   4.044  19.510  0.00  0.00    +0.000 HD
ATOM     19  H   UNL     1       4.905   3.477  19.810  0.00  0.00    +0.000 HD
ENDBRANCH  15  17
BRANCH  15  20
ATOM     20  N   UNL     1       6.400   5.247  17.320  0.00  0.00    +0.000 NA
BRANCH  20  21
ATOM     21  C   UNL     1       6.999   4.395  16.266  0.00  0.00    +0.000 C 
BRANCH  21  22
ATOM     22  C   UNL     1       7.043   4.875  14.811  0.00  0.00    +0.000 C 
ATOM     23 CL   UNL     1       5.794   4.014  13.860  0.00  0.00    +0.000 Cl
ENDBRANCH  21  22
ENDBRANCH  20  21
BRANCH  20  24
ATOM     24  C   UNL     1       6.741   6.666  17.205  0.00  0.00    +0.000 C 
BRANCH  24  25
ATOM     25  C   UNL     1       7.868   7.149  18.124  0.00  0.00    +0.000 C 
ATOM     26 CL   UNL     1       8.126   8.904  17.928  0.00  0.00    +0.000 Cl
ENDBRANCH  24  25
ENDBRANCH  20  24
ENDBRANCH  15  20
ENDBRANCH  14  15
ENDBRANCH   1  14
TORSDOF 11
ENDMDL
MODEL 5
REMARK VINA RESULT:      -6.3      6.364      8.685
REMARK  Name = 
REMARK  12 active torsions:
REMARK  status: ('A' for Active; 'I' for Inactive)
REMARK    1  A    between atoms: C_1  and  O_2
REMARK    2  A    between atoms: O_2  and  C_3
REMARK    3  A    between atoms: C_7  and  C_8
REMARK    4  A    between atoms: C_8  and  C_9
REMARK    5  A    between atoms: C_9  and  O_10
REMARK    6  A    between atoms: O_10  and  P_11
REMARK    7  A    between atoms: P_11  and  N_12
REMARK    8  A    between atoms: P_11  and  N_14
REMARK    9  A    between atoms: N_14  and  C_15
REMARK   10  A    between atoms: N_14  and  C_18
REMARK   11  A    between atoms: C_15  and  C_16
REMARK   12  A    between atoms: C_18  and  C_19
REMARK                            x       y       z     vdW  Elec       q    Type
REMARK                         _______ _______ _______ _____ _____    ______ ____
ROOT
ATOM      1  C   UNL     1       8.304   9.025  18.107  0.00  0.00    +0.000 C 
ENDROOT
BRANCH   1   2
ATOM      2  C   UNL     1       8.189   7.547  18.546  0.00  0.00    +0.000 C 
BRANCH   2   7
ATOM      3  C   UNL     1       4.453   3.656  17.804  0.00  0.00    +0.000 A 
ATOM      4  C   UNL     1       4.815   4.179  19.050  0.00  0.00    +0.000 A 
ATOM      5  C   UNL     1       5.790   5.187  19.173  0.00  0.00    +0.000 A 
ATOM      6  C   UNL     1       6.418   5.661  18.006  0.00  0.00    +0.000 A 
ATOM      7  C   UNL     1       7.425   6.605  17.666  0.00  0.00    +0.000 A 
ATOM      8  N   UNL     1       7.561   6.696  16.334  0.00  0.00    +0.000 NA
ATOM      9  O   UNL     1       6.682   5.773  15.792  0.00  0.00    +0.000 OA
ATOM     10  C   UNL     1       6.005   5.147  16.790  0.00  0.00    +0.000 A 
ATOM     11  C   UNL     1       5.040   4.157  16.633  0.00  0.00    +0.000 A 
BRANCH   3  13
ATOM     12  C   UNL     1       3.185   1.857  18.713  0.00  0.00    +0.000 C 
ATOM     13  O   UNL     1       3.534   2.661  17.594  0.00  0.00    +0.000 OA
ENDBRANCH   3  13
ENDBRANCH   2   7
ENDBRANCH   1   2
BRANCH   1  14
ATOM     14  O   UNL     1       9.158   9.906  18.853  0.00  0.00    +0.000 OA
BRANCH  14  15
ATOM     15  P   UNL     1       9.384  11.411  18.340  0.00  0.00    +0.000 P 
ATOM     16  O   UNL     1       8.239  11.891  17.485  0.00  0.00    +0.000 OA
BRANCH  15  17
ATOM     17  N   UNL     1      10.795  11.366  17.512  0.00  0.00    +0.000 NA
ATOM     18  H   UNL     1      10.732  10.729  16.736  0.00  0.00    +0.000 HD
ATOM     19  H   UNL     1      11.031  12.270  17.126  0.00  0.00    +0.000 HD
ENDBRANCH  15  17
BRANCH  15  20
ATOM     20  N   UNL     1       9.800  12.469  19.541  0.00  0.00    +0.000 NA
BRANCH  20  21
ATOM     21  C   UNL     1       9.230  13.823  19.361  0.00  0.00    +0.000 C 
BRANCH  21  22
ATOM     22  C   UNL     1       9.912  14.836  18.435  0.00  0.00    +0.000 C 
ATOM     23 CL   UNL     1       8.711  16.044  17.881  0.00  0.00    +0.000 Cl
ENDBRANCH  21  22
ENDBRANCH  20  21
BRANCH  20  24
ATOM     24  C   UNL     1      10.053  12.108  20.938  0.00  0.00    +0.000 C 
BRANCH  24  25
ATOM     25  C   UNL     1       8.804  11.869  21.792  0.00  0.00    +0.000 C 
ATOM     26 CL   UNL     1       8.705  13.076  23.105  0.00  0.00    +0.000 Cl
ENDBRANCH  24  25
ENDBRANCH  20  24
ENDBRANCH  15  20
ENDBRANCH  14  15
ENDBRANCH   1  14
TORSDOF 11
ENDMDL
MODEL 6
REMARK VINA RESULT:      -6.3      1.482      2.625
REMARK  Name = 
REMARK  12 active torsions:
REMARK  status: ('A' for Active; 'I' for Inactive)
REMARK    1  A    between atoms: C_1  and  O_2
REMARK    2  A    between atoms: O_2  and  C_3
REMARK    3  A    between atoms: C_7  and  C_8
REMARK    4  A    between atoms: C_8  and  C_9
REMARK    5  A    between atoms: C_9  and  O_10
REMARK    6  A    between atoms: O_10  and  P_11
REMARK    7  A    between atoms: P_11  and  N_12
REMARK    8  A    between atoms: P_11  and  N_14
REMARK    9  A    between atoms: N_14  and  C_15
REMARK   10  A    between atoms: N_14  and  C_18
REMARK   11  A    between atoms: C_15  and  C_16
REMARK   12  A    between atoms: C_18  and  C_19
REMARK                            x       y       z     vdW  Elec       q    Type
REMARK                         _______ _______ _______ _____ _____    ______ ____
ROOT
ATOM      1  C   UNL     1       2.419   5.133  18.936  0.00  0.00    +0.000 C 
ENDROOT
BRANCH   1   2
ATOM      2  C   UNL     1       2.611   6.457  19.712  0.00  0.00    +0.000 C 
BRANCH   2   7
ATOM      3  C   UNL     1       0.139  11.305  19.902  0.00  0.00    +0.000 A 
ATOM      4  C   UNL     1       0.218  10.414  20.978  0.00  0.00    +0.000 A 
ATOM      5  C   UNL     1       0.875   9.174  20.863  0.00  0.00    +0.000 A 
ATOM      6  C   UNL     1       1.447   8.829  19.624  0.00  0.00    +0.000 A 
ATOM      7  C   UNL     1       2.152   7.728  19.065  0.00  0.00    +0.000 A 
ATOM      8  N   UNL     1       2.538   8.001  17.808  0.00  0.00    +0.000 NA
ATOM      9  O   UNL     1       2.042   9.259  17.516  0.00  0.00    +0.000 OA
ATOM     10  C   UNL     1       1.382   9.753  18.596  0.00  0.00    +0.000 A 
ATOM     11  C   UNL     1       0.749  10.989  18.680  0.00  0.00    +0.000 A 
BRANCH   3  13
ATOM     12  C   UNL     1      -1.504  12.734  18.936  0.00  0.00    +0.000 C 
ATOM     13  O   UNL     1      -0.498  12.519  19.918  0.00  0.00    +0.000 OA
ENDBRANCH   3  13
ENDBRANCH   2   7
ENDBRANCH   1   2
BRANCH   1  14
ATOM     14  O   UNL     1       2.985   3.927  19.473  0.00  0.00    +0.000 OA
BRANCH  14  15
ATOM     15  P   UNL     1       4.038   3.089  18.597  0.00  0.00    +0.000 P 
ATOM     16  O   UNL     1       3.350   2.159  17.631  0.00  0.00    +0.000 OA
BRANCH  15  17
ATOM     17  N   UNL     1       4.948   2.281  19.690  0.00  0.00    +0.000 NA
ATOM     18  H   UNL     1       5.300   2.908  20.392  0.00  0.00    +0.000 HD
ATOM     19  H   UNL     1       4.411   1.574  20.174  0.00  0.00    +0.000 HD
ENDBRANCH  15  17
BRANCH  15  20
ATOM     20  N   UNL     1       5.210   4.021  17.894  0.00  0.00    +0.000 NA
BRANCH  20  21
ATOM     21  C   UNL     1       4.986   4.265  16.450  0.00  0.00    +0.000 C 
BRANCH  21  22
ATOM     22  C   UNL     1       5.908   3.631  15.403  0.00  0.00    +0.000 C 
ATOM     23 CL   UNL     1       6.970   4.890  14.700  0.00  0.00    +0.000 Cl
ENDBRANCH  21  22
ENDBRANCH  20  21
BRANCH  20  24
ATOM     24  C   UNL     1       5.971   5.075  18.567  0.00  0.00    +0.000 C 
BRANCH  24  25
ATOM     25  C   UNL     1       6.013   6.423  17.840  0.00  0.00    +0.000 C 
ATOM     26 CL   UNL     1       7.661   7.109  17.890  0.00  0.00    +0.000 Cl
ENDBRANCH  24  25
ENDBRANCH  20  24
ENDBRANCH  15  20
ENDBRANCH  14  15
ENDBRANCH   1  14
TORSDOF 11
ENDMDL
MODEL 7
REMARK VINA RESULT:      -6.2      2.043      3.473
REMARK  Name = 
REMARK  12 active torsions:
REMARK  status: ('A' for Active; 'I' for Inactive)
REMARK    1  A    between atoms: C_1  and  O_2
REMARK    2  A    between atoms: O_2  and  C_3
REMARK    3  A    between atoms: C_7  and  C_8
REMARK    4  A    between atoms: C_8  and  C_9
REMARK    5  A    between atoms: C_9  and  O_10
REMARK    6  A    between atoms: O_10  and  P_11
REMARK    7  A    between atoms: P_11  and  N_12
REMARK    8  A    between atoms: P_11  and  N_14
REMARK    9  A    between atoms: N_14  and  C_15
REMARK   10  A    between atoms: N_14  and  C_18
REMARK   11  A    between atoms: C_15  and  C_16
REMARK   12  A    between atoms: C_18  and  C_19
REMARK                            x       y       z     vdW  Elec       q    Type
REMARK                         _______ _______ _______ _____ _____    ______ ____
ROOT
ATOM      1  C   UNL     1       4.262   3.363  16.999  0.00  0.00    +0.000 C 
ENDROOT
BRANCH   1   2
ATOM      2  C   UNL     1       2.766   3.378  17.392  0.00  0.00    +0.000 C 
BRANCH   2   7
ATOM      3  C   UNL     1       1.729   7.876  20.279  0.00  0.00    +0.000 A 
ATOM      4  C   UNL     1       2.164   7.872  18.950  0.00  0.00    +0.000 A 
ATOM      5  C   UNL     1       2.413   6.671  18.258  0.00  0.00    +0.000 A 
ATOM      6  C   UNL     1       2.231   5.453  18.939  0.00  0.00    +0.000 A 
ATOM      7  C   UNL     1       2.377   4.065  18.665  0.00  0.00    +0.000 A 
ATOM      8  N   UNL     1       1.963   3.329  19.708  0.00  0.00    +0.000 NA
ATOM      9  O   UNL     1       1.595   4.228  20.694  0.00  0.00    +0.000 OA
ATOM     10  C   UNL     1       1.762   5.498  20.241  0.00  0.00    +0.000 A 
ATOM     11  C   UNL     1       1.498   6.666  20.949  0.00  0.00    +0.000 A 
BRANCH   3  13
ATOM     12  C   UNL     1       0.770  10.052  20.409  0.00  0.00    +0.000 C 
ATOM     13  O   UNL     1       1.484   8.994  21.034  0.00  0.00    +0.000 OA
ENDBRANCH   3  13
ENDBRANCH   2   7
ENDBRANCH   1   2
BRANCH   1  14
ATOM     14  O   UNL     1       5.252   3.456  18.035  0.00  0.00    +0.000 OA
BRANCH  14  15
ATOM     15  P   UNL     1       6.220   4.736  18.091  0.00  0.00    +0.000 P 
ATOM     16  O   UNL     1       7.674   4.343  18.038  0.00  0.00    +0.000 OA
BRANCH  15  17
ATOM     17  N   UNL     1       5.837   5.493  19.490  0.00  0.00    +0.000 NA
ATOM     18  H   UNL     1       6.630   5.519  20.109  0.00  0.00    +0.000 HD
ATOM     19  H   UNL     1       5.561   6.453  19.333  0.00  0.00    +0.000 HD
ENDBRANCH  15  17
BRANCH  15  20
ATOM     20  N   UNL     1       5.817   5.924  17.013  0.00  0.00    +0.000 NA
BRANCH  20  21
ATOM     21  C   UNL     1       6.202   7.283  17.458  0.00  0.00    +0.000 C 
BRANCH  21  22
ATOM     22  C   UNL     1       7.615   7.814  17.195  0.00  0.00    +0.000 C 
ATOM     23 CL   UNL     1       8.487   7.991  18.749  0.00  0.00    +0.000 Cl
ENDBRANCH  21  22
ENDBRANCH  20  21
BRANCH  20  24
ATOM     24  C   UNL     1       5.763   5.765  15.558  0.00  0.00    +0.000 C 
BRANCH  24  25
ATOM     25  C   UNL     1       6.833   4.850  14.955  0.00  0.00    +0.000 C 
ATOM     26 CL   UNL     1       6.101   3.719  13.785  0.00  0.00    +0.000 Cl
ENDBRANCH  24  25
ENDBRANCH  20  24
ENDBRANCH  15  20
ENDBRANCH  14  15
ENDBRANCH   1  14
TORSDOF 11
ENDMDL
MODEL 8
REMARK VINA RESULT:      -6.2      1.731      2.233
REMARK  Name = 
REMARK  12 active torsions:
REMARK  status: ('A' for Active; 'I' for Inactive)
REMARK    1  A    between atoms: C_1  and  O_2
REMARK    2  A    between atoms: O_2  and  C_3
REMARK    3  A    between atoms: C_7  and  C_8
REMARK    4  A    between atoms: C_8  and  C_9
REMARK    5  A    between atoms: C_9  and  O_10
REMARK    6  A    between atoms: O_10  and  P_11
REMARK    7  A    between atoms: P_11  and  N_12
REMARK    8  A    between atoms: P_11  and  N_14
REMARK    9  A    between atoms: N_14  and  C_15
REMARK   10  A    between atoms: N_14  and  C_18
REMARK   11  A    between atoms: C_15  and  C_16
REMARK   12  A    between atoms: C_18  and  C_19
REMARK                            x       y       z     vdW  Elec       q    Type
REMARK                         _______ _______ _______ _____ _____    ______ ____
ROOT
ATOM      1  C   UNL     1       2.316   5.181  18.393  0.00  0.00    +0.000 C 
ENDROOT
BRANCH   1   2
ATOM      2  C   UNL     1       2.614   6.696  18.314  0.00  0.00    +0.000 C 
BRANCH   2   7
ATOM      3  C   UNL     1       0.524  11.444  19.967  0.00  0.00    +0.000 A 
ATOM      4  C   UNL     1       0.991  11.193  18.673  0.00  0.00    +0.000 A 
ATOM      5  C   UNL     1       1.520   9.939  18.308  0.00  0.00    +0.000 A 
ATOM      6  C   UNL     1       1.588   8.929  19.286  0.00  0.00    +0.000 A 
ATOM      7  C   UNL     1       2.043   7.585  19.376  0.00  0.00    +0.000 A 
ATOM      8  N   UNL     1       1.769   7.071  20.585  0.00  0.00    +0.000 NA
ATOM      9  O   UNL     1       1.181   8.090  21.314  0.00  0.00    +0.000 OA
ATOM     10  C   UNL     1       1.080   9.204  20.544  0.00  0.00    +0.000 A 
ATOM     11  C   UNL     1       0.544  10.428  20.933  0.00  0.00    +0.000 A 
BRANCH   3  13
ATOM     12  C   UNL     1       0.804  13.799  20.189  0.00  0.00    +0.000 C 
ATOM     13  O   UNL     1       0.017  12.636  20.414  0.00  0.00    +0.000 OA
ENDBRANCH   3  13
ENDBRANCH   2   7
ENDBRANCH   1   2
BRANCH   1  14
ATOM     14  O   UNL     1       3.186   4.343  19.171  0.00  0.00    +0.000 OA
BRANCH  14  15
ATOM     15  P   UNL     1       4.415   3.598  18.454  0.00  0.00    +0.000 P 
ATOM     16  O   UNL     1       3.947   2.645  17.384  0.00  0.00    +0.000 OA
BRANCH  15  17
ATOM     17  N   UNL     1       5.204   2.827  19.663  0.00  0.00    +0.000 NA
ATOM     18  H   UNL     1       5.330   3.438  20.451  0.00  0.00    +0.000 HD
ATOM     19  H   UNL     1       4.687   2.025  19.996  0.00  0.00    +0.000 HD
ENDBRANCH  15  17
BRANCH  15  20
ATOM     20  N   UNL     1       5.612   4.621  17.949  0.00  0.00    +0.000 NA
BRANCH  20  21
ATOM     21  C   UNL     1       6.123   5.508  19.019  0.00  0.00    +0.000 C 
BRANCH  21  22
ATOM     22  C   UNL     1       7.631   5.705  19.210  0.00  0.00    +0.000 C 
ATOM     23 CL   UNL     1       8.134   7.247  18.449  0.00  0.00    +0.000 Cl
ENDBRANCH  21  22
ENDBRANCH  20  21
BRANCH  20  24
ATOM     24  C   UNL     1       6.589   4.330  16.898  0.00  0.00    +0.000 C 
BRANCH  24  25
ATOM     25  C   UNL     1       6.502   5.218  15.653  0.00  0.00    +0.000 C 
ATOM     26 CL   UNL     1       5.523   4.426  14.388  0.00  0.00    +0.000 Cl
ENDBRANCH  24  25
ENDBRANCH  20  24
ENDBRANCH  15  20
ENDBRANCH  14  15
ENDBRANCH   1  14
TORSDOF 11
ENDMDL
MODEL 9
REMARK VINA RESULT:      -6.2      5.629      7.416
REMARK  Name = 
REMARK  12 active torsions:
REMARK  status: ('A' for Active; 'I' for Inactive)
REMARK    1  A    between atoms: C_1  and  O_2
REMARK    2  A    between atoms: O_2  and  C_3
REMARK    3  A    between atoms: C_7  and  C_8
REMARK    4  A    between atoms: C_8  and  C_9
REMARK    5  A    between atoms: C_9  and  O_10
REMARK    6  A    between atoms: O_10  and  P_11
REMARK    7  A    between atoms: P_11  and  N_12
REMARK    8  A    between atoms: P_11  and  N_14
REMARK    9  A    between atoms: N_14  and  C_15
REMARK   10  A    between atoms: N_14  and  C_18
REMARK   11  A    between atoms: C_15  and  C_16
REMARK   12  A    between atoms: C_18  and  C_19
REMARK                            x       y       z     vdW  Elec       q    Type
REMARK                         _______ _______ _______ _____ _____    ______ ____
ROOT
ATOM      1  C   UNL     1       7.872   7.685  17.936  0.00  0.00    +0.000 C 
ENDROOT
BRANCH   1   2
ATOM      2  C   UNL     1       7.898   9.189  17.581  0.00  0.00    +0.000 C 
BRANCH   2   7
ATOM      3  C   UNL     1       9.790  14.131  18.865  0.00  0.00    +0.000 A 
ATOM      4  C   UNL     1       8.963  13.860  17.769  0.00  0.00    +0.000 A 
ATOM      5  C   UNL     1       8.507  12.557  17.493  0.00  0.00    +0.000 A 
ATOM      6  C   UNL     1       8.912  11.509  18.341  0.00  0.00    +0.000 A 
ATOM      7  C   UNL     1       8.727  10.102  18.431  0.00  0.00    +0.000 A 
ATOM      8  N   UNL     1       9.309   9.618  19.540  0.00  0.00    +0.000 NA
ATOM      9  O   UNL     1       9.925  10.694  20.155  0.00  0.00    +0.000 OA
ATOM     10  C   UNL     1       9.697  11.824  19.436  0.00  0.00    +0.000 A 
ATOM     11  C   UNL     1      10.158  13.101  19.741  0.00  0.00    +0.000 A 
BRANCH   3  13
ATOM     12  C   UNL     1      11.309  15.395  20.193  0.00  0.00    +0.000 C 
ATOM     13  O   UNL     1      10.298  15.360  19.195  0.00  0.00    +0.000 OA
ENDBRANCH   3  13
ENDBRANCH   2   7
ENDBRANCH   1   2
BRANCH   1  14
ATOM     14  O   UNL     1       7.778   6.723  16.873  0.00  0.00    +0.000 OA
BRANCH  14  15
ATOM     15  P   UNL     1       7.181   5.264  17.177  0.00  0.00    +0.000 P 
ATOM     16  O   UNL     1       7.998   4.526  18.206  0.00  0.00    +0.000 OA
BRANCH  15  17
ATOM     17  N   UNL     1       7.176   4.500  15.730  0.00  0.00    +0.000 NA
ATOM     18  H   UNL     1       8.061   4.052  15.562  0.00  0.00    +0.000 HD
ATOM     19  H   UNL     1       6.472   3.776  15.691  0.00  0.00    +0.000 HD
ENDBRANCH  15  17
BRANCH  15  20
ATOM     20  N   UNL     1       5.558   5.262  17.497  0.00  0.00    +0.000 NA
BRANCH  20  21
ATOM     21  C   UNL     1       5.236   4.995  18.918  0.00  0.00    +0.000 C 
BRANCH  21  22
ATOM     22  C   UNL     1       4.247   3.885  19.294  0.00  0.00    +0.000 C 
ATOM     23 CL   UNL     1       3.962   2.831  17.875  0.00  0.00    +0.000 Cl
ENDBRANCH  21  22
ENDBRANCH  20  21
BRANCH  20  24
ATOM     24  C   UNL     1       4.555   6.068  16.799  0.00  0.00    +0.000 C 
BRANCH  24  25
ATOM     25  C   UNL     1       3.976   7.238  17.600  0.00  0.00    +0.000 C 
ATOM     26 CL   UNL     1       2.299   6.885  18.099  0.00  0.00    +0.000 Cl
ENDBRANCH  24  25
ENDBRANCH  20  24
ENDBRANCH  15  20
ENDBRANCH  14  15
ENDBRANCH   1  14
TORSDOF 11
ENDMDL
