MODEL 1
REMARK VINA RESULT:      -8.2      0.000      0.000
REMARK  Name = 
REMARK  4 active torsions:
REMARK  status: ('A' for Active; 'I' for Inactive)
REMARK    1  A    between atoms: C_2  and  C_3
REMARK    2  A    between atoms: C_3  and  N_4
REMARK    3  A    between atoms: C_13  and  N_14
REMARK    4  A    between atoms: N_21  and  C_22
REMARK                            x       y       z     vdW  Elec       q    Type
REMARK                         _______ _______ _______ _____ _____    ______ ____
ROOT
ATOM      1  N   UNL     1       5.961   5.986  16.306  0.00  0.00    +0.000 N 
ATOM      2  C   UNL     1       6.671   5.027  15.602  0.00  0.00    +0.000 C 
ATOM      3  O   UNL     1       7.779   5.220  15.100  0.00  0.00    +0.000 OA
ATOM      4  C   UNL     1       5.968   3.683  15.434  0.00  0.00    +0.000 C 
ATOM      5  O   UNL     1       4.915   3.306  16.297  0.00  0.00    +0.000 OA
ATOM      6  C   UNL     1       4.242   4.349  16.865  0.00  0.00    +0.000 A 
ATOM      7  C   UNL     1       3.040   4.003  17.489  0.00  0.00    +0.000 A 
ATOM      8  C   UNL     1       2.301   4.970  18.165  0.00  0.00    +0.000 A 
ATOM      9  F   UNL     1       1.198   4.583  18.818  0.00  0.00    +0.000 F 
ATOM     10  C   UNL     1       2.764   6.283  18.254  0.00  0.00    +0.000 A 
ATOM     11  C   UNL     1       3.953   6.624  17.589  0.00  0.00    +0.000 A 
ATOM     12  C   UNL     1       4.713   5.668  16.902  0.00  0.00    +0.000 A 
ENDROOT
BRANCH  10  13
ATOM     13  N   UNL     1       2.108   7.243  19.070  0.00  0.00    +0.000 N 
ATOM     14  N   UNL     1       1.924   6.862  20.404  0.00  0.00    +0.000 NA
ATOM     15  N   UNL     1       1.341   7.631  21.222  0.00  0.00    +0.000 NA
ATOM     16  C   UNL     1       0.998   8.859  20.790  0.00  0.00    +0.000 A 
ATOM     17  C   UNL     1       1.184   9.359  19.534  0.00  0.00    +0.000 A 
ATOM     18  C   UNL     1       0.744  10.684  19.577  0.00  0.00    +0.000 A 
ATOM     19  N   UNL     1       0.264  11.005  20.785  0.00  0.00    +0.000 NA
ATOM     20  N   UNL     1       0.425   9.869  21.509  0.00  0.00    +0.000 N 
ATOM     21  C   UNL     1       0.013   9.832  22.890  0.00  0.00    +0.000 C 
ATOM     22  C   UNL     1       1.767   8.510  18.552  0.00  0.00    +0.000 A 
ATOM     23  O   UNL     1       1.965   8.897  17.405  0.00  0.00    +0.000 OA
ENDBRANCH  10  13
BRANCH   1  24
ATOM     24  C   UNL     1       6.586   7.287  16.490  0.00  0.00    +0.000 C 
BRANCH  24  26
ATOM     25  C   UNL     1       8.322   7.352  18.717  0.00  0.00    +0.000 C 
ATOM     26  C   UNL     1       7.521   7.322  17.689  0.00  0.00    +0.000 C 
ENDBRANCH  24  26
ENDBRANCH   1  24
TORSDOF 3
ENDMDL
MODEL 2
REMARK VINA RESULT:      -7.6      0.926      1.032
REMARK  Name = 
REMARK  4 active torsions:
REMARK  status: ('A' for Active; 'I' for Inactive)
REMARK    1  A    between atoms: C_2  and  C_3
REMARK    2  A    between atoms: C_3  and  N_4
REMARK    3  A    between atoms: C_13  and  N_14
REMARK    4  A    between atoms: N_21  and  C_22
REMARK                            x       y       z     vdW  Elec       q    Type
REMARK                         _______ _______ _______ _____ _____    ______ ____
ROOT
ATOM      1  N   UNL     1       6.478   5.337  17.825  0.00  0.00    +0.000 N 
ATOM      2  C   UNL     1       7.195   4.379  17.126  0.00  0.00    +0.000 C 
ATOM      3  O   UNL     1       8.417   4.249  17.194  0.00  0.00    +0.000 OA
ATOM      4  C   UNL     1       6.370   3.489  16.200  0.00  0.00    +0.000 C 
ATOM      5  O   UNL     1       4.977   3.348  16.386  0.00  0.00    +0.000 OA
ATOM      6  C   UNL     1       4.377   4.400  17.016  0.00  0.00    +0.000 A 
ATOM      7  C   UNL     1       2.980   4.400  16.958  0.00  0.00    +0.000 A 
ATOM      8  C   UNL     1       2.254   5.383  17.624  0.00  0.00    +0.000 A 
ATOM      9  F   UNL     1       0.917   5.302  17.611  0.00  0.00    +0.000 F 
ATOM     10  C   UNL     1       2.906   6.356  18.381  0.00  0.00    +0.000 A 
ATOM     11  C   UNL     1       4.310   6.366  18.399  0.00  0.00    +0.000 A 
ATOM     12  C   UNL     1       5.062   5.387  17.735  0.00  0.00    +0.000 A 
ENDROOT
BRANCH  10  13
ATOM     13  N   UNL     1       2.180   7.267  19.195  0.00  0.00    +0.000 N 
ATOM     14  N   UNL     1       1.922   6.824  20.497  0.00  0.00    +0.000 NA
ATOM     15  N   UNL     1       1.272   7.545  21.308  0.00  0.00    +0.000 NA
ATOM     16  C   UNL     1       0.932   8.785  20.908  0.00  0.00    +0.000 A 
ATOM     17  C   UNL     1       1.185   9.343  19.690  0.00  0.00    +0.000 A 
ATOM     18  C   UNL     1       0.716  10.657  19.762  0.00  0.00    +0.000 A 
ATOM     19  N   UNL     1       0.155  10.915  20.950  0.00  0.00    +0.000 NA
ATOM     20  N   UNL     1       0.294   9.751  21.632  0.00  0.00    +0.000 N 
ATOM     21  C   UNL     1      -0.203   9.646  22.982  0.00  0.00    +0.000 C 
ATOM     22  C   UNL     1       1.846   8.548  18.710  0.00  0.00    +0.000 A 
ATOM     23  O   UNL     1       2.107   8.990  17.596  0.00  0.00    +0.000 OA
ENDBRANCH  10  13
BRANCH   1  24
ATOM     24  C   UNL     1       7.219   6.214  18.718  0.00  0.00    +0.000 C 
BRANCH  24  26
ATOM     25  C   UNL     1       8.030   8.610  17.461  0.00  0.00    +0.000 C 
ATOM     26  C   UNL     1       7.656   7.504  18.042  0.00  0.00    +0.000 C 
ENDBRANCH  24  26
ENDBRANCH   1  24
TORSDOF 3
ENDMDL
MODEL 3
REMARK VINA RESULT:      -7.5      1.214      1.645
REMARK  Name = 
REMARK  4 active torsions:
REMARK  status: ('A' for Active; 'I' for Inactive)
REMARK    1  A    between atoms: C_2  and  C_3
REMARK    2  A    between atoms: C_3  and  N_4
REMARK    3  A    between atoms: C_13  and  N_14
REMARK    4  A    between atoms: N_21  and  C_22
REMARK                            x       y       z     vdW  Elec       q    Type
REMARK                         _______ _______ _______ _____ _____    ______ ____
ROOT
ATOM      1  N   UNL     1       6.013   5.769  16.423  0.00  0.00    +0.000 N 
ATOM      2  C   UNL     1       6.677   4.709  15.825  0.00  0.00    +0.000 C 
ATOM      3  O   UNL     1       7.822   4.778  15.379  0.00  0.00    +0.000 OA
ATOM      4  C   UNL     1       5.872   3.419  15.702  0.00  0.00    +0.000 C 
ATOM      5  O   UNL     1       4.745   3.187  16.522  0.00  0.00    +0.000 OA
ATOM      6  C   UNL     1       4.133   4.318  16.981  0.00  0.00    +0.000 A 
ATOM      7  C   UNL     1       2.875   4.114  17.554  0.00  0.00    +0.000 A 
ATOM      8  C   UNL     1       2.184   5.181  18.121  0.00  0.00    +0.000 A 
ATOM      9  F   UNL     1       1.019   4.931  18.732  0.00  0.00    +0.000 F 
ATOM     10  C   UNL     1       2.751   6.455  18.154  0.00  0.00    +0.000 A 
ATOM     11  C   UNL     1       3.999   6.653  17.541  0.00  0.00    +0.000 A 
ATOM     12  C   UNL     1       4.712   5.594  16.963  0.00  0.00    +0.000 A 
ENDROOT
BRANCH  10  13
ATOM     13  N   UNL     1       2.135   7.519  18.868  0.00  0.00    +0.000 N 
ATOM     14  N   UNL     1       1.741   8.609  18.084  0.00  0.00    +0.000 NA
ATOM     15  N   UNL     1       1.193   9.619  18.613  0.00  0.00    +0.000 NA
ATOM     16  C   UNL     1       0.914   9.564  19.928  0.00  0.00    +0.000 A 
ATOM     17  C   UNL     1       1.195   8.531  20.775  0.00  0.00    +0.000 A 
ATOM     18  C   UNL     1       0.658   8.890  22.013  0.00  0.00    +0.000 A 
ATOM     19  N   UNL     1       0.098  10.106  21.974  0.00  0.00    +0.000 NA
ATOM     20  N   UNL     1       0.273  10.500  20.687  0.00  0.00    +0.000 N 
ATOM     21  C   UNL     1      -0.213  11.788  20.259  0.00  0.00    +0.000 C 
ATOM     22  C   UNL     1       1.880   7.399  20.250  0.00  0.00    +0.000 A 
ATOM     23  O   UNL     1       2.161   6.435  20.955  0.00  0.00    +0.000 OA
ENDBRANCH  10  13
BRANCH   1  24
ATOM     24  C   UNL     1       6.735   7.024  16.561  0.00  0.00    +0.000 C 
BRANCH  24  26
ATOM     25  C   UNL     1       8.330   7.109  18.890  0.00  0.00    +0.000 C 
ATOM     26  C   UNL     1       7.594   7.070  17.815  0.00  0.00    +0.000 C 
ENDBRANCH  24  26
ENDBRANCH   1  24
TORSDOF 3
ENDMDL
MODEL 4
REMARK VINA RESULT:      -7.5      2.395      3.832
REMARK  Name = 
REMARK  4 active torsions:
REMARK  status: ('A' for Active; 'I' for Inactive)
REMARK    1  A    between atoms: C_2  and  C_3
REMARK    2  A    between atoms: C_3  and  N_4
REMARK    3  A    between atoms: C_13  and  N_14
REMARK    4  A    between atoms: N_21  and  C_22
REMARK                            x       y       z     vdW  Elec       q    Type
REMARK                         _______ _______ _______ _____ _____    ______ ____
ROOT
ATOM      1  N   UNL     1       2.403   3.861  18.475  0.00  0.00    +0.000 N 
ATOM      2  C   UNL     1       3.160   2.947  17.759  0.00  0.00    +0.000 C 
ATOM      3  O   UNL     1       2.934   1.737  17.735  0.00  0.00    +0.000 OA
ATOM      4  C   UNL     1       4.356   3.528  17.013  0.00  0.00    +0.000 C 
ATOM      5  O   UNL     1       4.416   4.905  16.703  0.00  0.00    +0.000 OA
ATOM      6  C   UNL     1       3.689   5.708  17.535  0.00  0.00    +0.000 A 
ATOM      7  C   UNL     1       3.957   7.075  17.415  0.00  0.00    +0.000 A 
ATOM      8  C   UNL     1       3.229   7.997  18.160  0.00  0.00    +0.000 A 
ATOM      9  F   UNL     1       3.460   9.301  17.957  0.00  0.00    +0.000 F 
ATOM     10  C   UNL     1       2.205   7.574  19.007  0.00  0.00    +0.000 A 
ATOM     11  C   UNL     1       1.973   6.196  19.147  0.00  0.00    +0.000 A 
ATOM     12  C   UNL     1       2.694   5.249  18.408  0.00  0.00    +0.000 A 
ENDROOT
BRANCH  10  13
ATOM     13  N   UNL     1       1.347   8.506  19.651  0.00  0.00    +0.000 N 
ATOM     14  N   UNL     1       1.408   8.502  21.049  0.00  0.00    +0.000 NA
ATOM     15  N   UNL     1       0.680   9.281  21.730  0.00  0.00    +0.000 NA
ATOM     16  C   UNL     1      -0.072  10.176  21.063  0.00  0.00    +0.000 A 
ATOM     17  C   UNL     1      -0.163  10.313  19.709  0.00  0.00    +0.000 A 
ATOM     18  C   UNL     1      -0.998  11.410  19.487  0.00  0.00    +0.000 A 
ATOM     19  N   UNL     1      -1.452  11.924  20.636  0.00  0.00    +0.000 NA
ATOM     20  N   UNL     1      -0.875  11.148  21.588  0.00  0.00    +0.000 N 
ATOM     21  C   UNL     1      -1.137  11.407  22.982  0.00  0.00    +0.000 C 
ATOM     22  C   UNL     1       0.577   9.412  18.892  0.00  0.00    +0.000 A 
ATOM     23  O   UNL     1       0.543   9.482  17.667  0.00  0.00    +0.000 OA
ENDBRANCH  10  13
BRANCH   1  24
ATOM     24  C   UNL     1       1.253   3.357  19.209  0.00  0.00    +0.000 C 
BRANCH  24  26
ATOM     25  C   UNL     1       1.870   2.718  21.890  0.00  0.00    +0.000 C 
ATOM     26  C   UNL     1       1.585   3.013  20.652  0.00  0.00    +0.000 C 
ENDBRANCH  24  26
ENDBRANCH   1  24
TORSDOF 3
ENDMDL
MODEL 5
REMARK VINA RESULT:      -7.5      2.544      4.185
REMARK  Name = 
REMARK  4 active torsions:
REMARK  status: ('A' for Active; 'I' for Inactive)
REMARK    1  A    between atoms: C_2  and  C_3
REMARK    2  A    between atoms: C_3  and  N_4
REMARK    3  A    between atoms: C_13  and  N_14
REMARK    4  A    between atoms: N_21  and  C_22
REMARK                            x       y       z     vdW  Elec       q    Type
REMARK                         _______ _______ _______ _____ _____    ______ ____
ROOT
ATOM      1  N   UNL     1       2.338   3.922  18.407  0.00  0.00    +0.000 N 
ATOM      2  C   UNL     1       3.120   2.927  17.841  0.00  0.00    +0.000 C 
ATOM      3  O   UNL     1       2.842   1.728  17.880  0.00  0.00    +0.000 OA
ATOM      4  C   UNL     1       4.411   3.403  17.183  0.00  0.00    +0.000 C 
ATOM      5  O   UNL     1       4.566   4.749  16.783  0.00  0.00    +0.000 OA
ATOM      6  C   UNL     1       3.797   5.640  17.476  0.00  0.00    +0.000 A 
ATOM      7  C   UNL     1       4.139   6.982  17.287  0.00  0.00    +0.000 A 
ATOM      8  C   UNL     1       3.383   7.987  17.885  0.00  0.00    +0.000 A 
ATOM      9  F   UNL     1       3.694   9.261  17.614  0.00  0.00    +0.000 F 
ATOM     10  C   UNL     1       2.261   7.669  18.649  0.00  0.00    +0.000 A 
ATOM     11  C   UNL     1       1.951   6.316  18.862  0.00  0.00    +0.000 A 
ATOM     12  C   UNL     1       2.699   5.288  18.272  0.00  0.00    +0.000 A 
ENDROOT
BRANCH  10  13
ATOM     13  N   UNL     1       1.387   8.680  19.132  0.00  0.00    +0.000 N 
ATOM     14  N   UNL     1       0.709   9.401  18.143  0.00  0.00    +0.000 NA
ATOM     15  N   UNL     1      -0.086  10.335  18.455  0.00  0.00    +0.000 NA
ATOM     16  C   UNL     1      -0.331  10.537  19.763  0.00  0.00    +0.000 A 
ATOM     17  C   UNL     1       0.221   9.856  20.807  0.00  0.00    +0.000 A 
ATOM     18  C   UNL     1      -0.385  10.359  21.961  0.00  0.00    +0.000 A 
ATOM     19  N   UNL     1      -1.250  11.340  21.674  0.00  0.00    +0.000 NA
ATOM     20  N   UNL     1      -1.196  11.434  20.322  0.00  0.00    +0.000 N 
ATOM     21  C   UNL     1      -2.012  12.405  19.636  0.00  0.00    +0.000 C 
ATOM     22  C   UNL     1       1.182   8.845  20.518  0.00  0.00    +0.000 A 
ATOM     23  O   UNL     1       1.714   8.193  21.410  0.00  0.00    +0.000 OA
ENDBRANCH  10  13
BRANCH   1  24
ATOM     24  C   UNL     1       1.098   3.519  19.051  0.00  0.00    +0.000 C 
BRANCH  24  26
ATOM     25  C   UNL     1       1.479   2.703  21.728  0.00  0.00    +0.000 C 
ATOM     26  C   UNL     1       1.303   3.080  20.492  0.00  0.00    +0.000 C 
ENDBRANCH  24  26
ENDBRANCH   1  24
TORSDOF 3
ENDMDL
MODEL 6
REMARK VINA RESULT:      -7.2      3.683      8.431
REMARK  Name = 
REMARK  4 active torsions:
REMARK  status: ('A' for Active; 'I' for Inactive)
REMARK    1  A    between atoms: C_2  and  C_3
REMARK    2  A    between atoms: C_3  and  N_4
REMARK    3  A    between atoms: C_13  and  N_14
REMARK    4  A    between atoms: N_21  and  C_22
REMARK                            x       y       z     vdW  Elec       q    Type
REMARK                         _______ _______ _______ _____ _____    ______ ____
ROOT
ATOM      1  N   UNL     1      -3.109  10.863  18.467  0.00  0.00    +0.000 N 
ATOM      2  C   UNL     1      -4.077  11.819  18.735  0.00  0.00    +0.000 C 
ATOM      3  O   UNL     1      -5.200  11.820  18.232  0.00  0.00    +0.000 OA
ATOM      4  C   UNL     1      -3.650  12.935  19.683  0.00  0.00    +0.000 C 
ATOM      5  O   UNL     1      -2.553  12.762  20.557  0.00  0.00    +0.000 OA
ATOM      6  C   UNL     1      -1.629  11.849  20.136  0.00  0.00    +0.000 A 
ATOM      7  C   UNL     1      -0.420  11.870  20.838  0.00  0.00    +0.000 A 
ATOM      8  C   UNL     1       0.573  10.938  20.547  0.00  0.00    +0.000 A 
ATOM      9  F   UNL     1       1.683  10.941  21.295  0.00  0.00    +0.000 F 
ATOM     10  C   UNL     1       0.362   9.957  19.579  0.00  0.00    +0.000 A 
ATOM     11  C   UNL     1      -0.842   9.971  18.856  0.00  0.00    +0.000 A 
ATOM     12  C   UNL     1      -1.855  10.900  19.130  0.00  0.00    +0.000 A 
ENDROOT
BRANCH  10  13
ATOM     13  N   UNL     1       1.295   8.903  19.382  0.00  0.00    +0.000 N 
ATOM     14  N   UNL     1       1.262   7.892  20.348  0.00  0.00    +0.000 NA
ATOM     15  N   UNL     1       2.056   6.909  20.282  0.00  0.00    +0.000 NA
ATOM     16  C   UNL     1       2.855   6.822  19.202  0.00  0.00    +0.000 A 
ATOM     17  C   UNL     1       2.927   7.713  18.171  0.00  0.00    +0.000 A 
ATOM     18  C   UNL     1       3.831   7.170  17.255  0.00  0.00    +0.000 A 
ATOM     19  N   UNL     1       4.344   6.014  17.694  0.00  0.00    +0.000 NA
ATOM     20  N   UNL     1       3.734   5.824  18.891  0.00  0.00    +0.000 N 
ATOM     21  C   UNL     1       4.041   4.654  19.676  0.00  0.00    +0.000 C 
ATOM     22  C   UNL     1       2.110   8.877  18.231  0.00  0.00    +0.000 A 
ATOM     23  O   UNL     1       2.124   9.716  17.336  0.00  0.00    +0.000 OA
ENDBRANCH  10  13
BRANCH   1  24
ATOM     24  C   UNL     1      -3.465   9.779  17.565  0.00  0.00    +0.000 C 
BRANCH  24  26
ATOM     25  C   UNL     1      -2.912  10.390  14.863  0.00  0.00    +0.000 C 
ATOM     26  C   UNL     1      -3.168  10.108  16.110  0.00  0.00    +0.000 C 
ENDBRANCH  24  26
ENDBRANCH   1  24
TORSDOF 3
ENDMDL
MODEL 7
REMARK VINA RESULT:      -7.1      1.413      1.693
REMARK  Name = 
REMARK  4 active torsions:
REMARK  status: ('A' for Active; 'I' for Inactive)
REMARK    1  A    between atoms: C_2  and  C_3
REMARK    2  A    between atoms: C_3  and  N_4
REMARK    3  A    between atoms: C_13  and  N_14
REMARK    4  A    between atoms: N_21  and  C_22
REMARK                            x       y       z     vdW  Elec       q    Type
REMARK                         _______ _______ _______ _____ _____    ______ ____
ROOT
ATOM      1  N   UNL     1       5.026   5.581  17.061  0.00  0.00    +0.000 N 
ATOM      2  C   UNL     1       5.648   4.370  16.801  0.00  0.00    +0.000 C 
ATOM      3  O   UNL     1       6.615   4.241  16.050  0.00  0.00    +0.000 OA
ATOM      4  C   UNL     1       5.025   3.154  17.480  0.00  0.00    +0.000 C 
ATOM      5  O   UNL     1       4.197   3.304  18.615  0.00  0.00    +0.000 OA
ATOM      6  C   UNL     1       3.577   4.517  18.711  0.00  0.00    +0.000 A 
ATOM      7  C   UNL     1       2.555   4.581  19.661  0.00  0.00    +0.000 A 
ATOM      8  C   UNL     1       1.897   5.785  19.900  0.00  0.00    +0.000 A 
ATOM      9  F   UNL     1       0.979   5.824  20.875  0.00  0.00    +0.000 F 
ATOM     10  C   UNL     1       2.272   6.944  19.221  0.00  0.00    +0.000 A 
ATOM     11  C   UNL     1       3.275   6.857  18.242  0.00  0.00    +0.000 A 
ATOM     12  C   UNL     1       3.949   5.656  17.983  0.00  0.00    +0.000 A 
ENDROOT
BRANCH  10  13
ATOM     13  N   UNL     1       1.725   8.209  19.565  0.00  0.00    +0.000 N 
ATOM     14  N   UNL     1       1.446   8.386  20.924  0.00  0.00    +0.000 NA
ATOM     15  N   UNL     1       0.945   9.469  21.346  0.00  0.00    +0.000 NA
ATOM     16  C   UNL     1       0.787  10.471  20.461  0.00  0.00    +0.000 A 
ATOM     17  C   UNL     1       1.082  10.433  19.130  0.00  0.00    +0.000 A 
ATOM     18  C   UNL     1       0.825  11.716  18.640  0.00  0.00    +0.000 A 
ATOM     19  N   UNL     1       0.352  12.523  19.598  0.00  0.00    +0.000 NA
ATOM     20  N   UNL     1       0.333  11.736  20.703  0.00  0.00    +0.000 N 
ATOM     21  C   UNL     1      -0.127  12.273  21.960  0.00  0.00    +0.000 C 
ATOM     22  C   UNL     1       1.577   9.214  18.586  0.00  0.00    +0.000 A 
ATOM     23  O   UNL     1       1.864   9.112  17.397  0.00  0.00    +0.000 OA
ENDBRANCH  10  13
BRANCH   1  24
ATOM     24  C   UNL     1       5.579   6.771  16.434  0.00  0.00    +0.000 C 
BRANCH  24  26
ATOM     25  C   UNL     1       7.803   7.803  17.836  0.00  0.00    +0.000 C 
ATOM     26  C   UNL     1       6.776   7.327  17.188  0.00  0.00    +0.000 C 
ENDBRANCH  24  26
ENDBRANCH   1  24
TORSDOF 3
ENDMDL
MODEL 8
REMARK VINA RESULT:      -7.1      3.844      8.627
REMARK  Name = 
REMARK  4 active torsions:
REMARK  status: ('A' for Active; 'I' for Inactive)
REMARK    1  A    between atoms: C_2  and  C_3
REMARK    2  A    between atoms: C_3  and  N_4
REMARK    3  A    between atoms: C_13  and  N_14
REMARK    4  A    between atoms: N_21  and  C_22
REMARK                            x       y       z     vdW  Elec       q    Type
REMARK                         _______ _______ _______ _____ _____    ______ ____
ROOT
ATOM      1  N   UNL     1      -3.199  10.893  18.419  0.00  0.00    +0.000 N 
ATOM      2  C   UNL     1      -4.173  11.789  18.831  0.00  0.00    +0.000 C 
ATOM      3  O   UNL     1      -5.337  11.771  18.431  0.00  0.00    +0.000 OA
ATOM      4  C   UNL     1      -3.703  12.866  19.804  0.00  0.00    +0.000 C 
ATOM      5  O   UNL     1      -2.525  12.690  20.564  0.00  0.00    +0.000 OA
ATOM      6  C   UNL     1      -1.610  11.843  20.007  0.00  0.00    +0.000 A 
ATOM      7  C   UNL     1      -0.343  11.876  20.598  0.00  0.00    +0.000 A 
ATOM      8  C   UNL     1       0.653  11.006  20.163  0.00  0.00    +0.000 A 
ATOM      9  F   UNL     1       1.827  11.013  20.808  0.00  0.00    +0.000 F 
ATOM     10  C   UNL     1       0.391  10.074  19.159  0.00  0.00    +0.000 A 
ATOM     11  C   UNL     1      -0.873  10.078  18.549  0.00  0.00    +0.000 A 
ATOM     12  C   UNL     1      -1.891  10.946  18.969  0.00  0.00    +0.000 A 
ENDROOT
BRANCH  10  13
ATOM     13  N   UNL     1       1.341   9.075  18.814  0.00  0.00    +0.000 N 
ATOM     14  N   UNL     1       2.005   9.281  17.600  0.00  0.00    +0.000 NA
ATOM     15  N   UNL     1       2.864   8.450  17.184  0.00  0.00    +0.000 NA
ATOM     16  C   UNL     1       3.185   7.424  17.994  0.00  0.00    +0.000 A 
ATOM     17  C   UNL     1       2.651   7.161  19.221  0.00  0.00    +0.000 A 
ATOM     18  C   UNL     1       3.341   6.049  19.712  0.00  0.00    +0.000 A 
ATOM     19  N   UNL     1       4.241   5.599  18.829  0.00  0.00    +0.000 NA
ATOM     20  N   UNL     1       4.124   6.455  17.783  0.00  0.00    +0.000 N 
ATOM     21  C   UNL     1       4.954   6.282  16.617  0.00  0.00    +0.000 C 
ATOM     22  C   UNL     1       1.625   8.020  19.707  0.00  0.00    +0.000 A 
ATOM     23  O   UNL     1       1.104   7.841  20.803  0.00  0.00    +0.000 OA
ENDBRANCH  10  13
BRANCH   1  24
ATOM     24  C   UNL     1      -3.594   9.849  17.487  0.00  0.00    +0.000 C 
BRANCH  24  26
ATOM     25  C   UNL     1      -3.021  10.515  14.802  0.00  0.00    +0.000 C 
ATOM     26  C   UNL     1      -3.286  10.208  16.042  0.00  0.00    +0.000 C 
ENDBRANCH  24  26
ENDBRANCH   1  24
TORSDOF 3
ENDMDL
MODEL 9
REMARK VINA RESULT:      -7.1      2.758      4.493
REMARK  Name = 
REMARK  4 active torsions:
REMARK  status: ('A' for Active; 'I' for Inactive)
REMARK    1  A    between atoms: C_2  and  C_3
REMARK    2  A    between atoms: C_3  and  N_4
REMARK    3  A    between atoms: C_13  and  N_14
REMARK    4  A    between atoms: N_21  and  C_22
REMARK                            x       y       z     vdW  Elec       q    Type
REMARK                         _______ _______ _______ _____ _____    ______ ____
ROOT
ATOM      1  N   UNL     1       3.143   5.134  19.689  0.00  0.00    +0.000 N 
ATOM      2  C   UNL     1       3.976   4.253  19.017  0.00  0.00    +0.000 C 
ATOM      3  O   UNL     1       4.176   3.091  19.371  0.00  0.00    +0.000 OA
ATOM      4  C   UNL     1       4.694   4.829  17.800  0.00  0.00    +0.000 C 
ATOM      5  O   UNL     1       4.207   5.987  17.155  0.00  0.00    +0.000 OA
ATOM      6  C   UNL     1       3.466   6.814  17.951  0.00  0.00    +0.000 A 
ATOM      7  C   UNL     1       3.218   8.079  17.412  0.00  0.00    +0.000 A 
ATOM      8  C   UNL     1       2.414   8.985  18.100  0.00  0.00    +0.000 A 
ATOM      9  F   UNL     1       2.134  10.156  17.514  0.00  0.00    +0.000 F 
ATOM     10  C   UNL     1       1.823   8.630  19.312  0.00  0.00    +0.000 A 
ATOM     11  C   UNL     1       2.113   7.370  19.859  0.00  0.00    +0.000 A 
ATOM     12  C   UNL     1       2.920   6.443  19.186  0.00  0.00    +0.000 A 
ENDROOT
BRANCH  10  13
ATOM     13  N   UNL     1       0.875   9.477  19.947  0.00  0.00    +0.000 N 
ATOM     14  N   UNL     1      -0.020  10.118  19.084  0.00  0.00    +0.000 NA
ATOM     15  N   UNL     1      -0.901  10.906  19.535  0.00  0.00    +0.000 NA
ATOM     16  C   UNL     1      -1.009  11.024  20.871  0.00  0.00    +0.000 A 
ATOM     17  C   UNL     1      -0.235  10.402  21.807  0.00  0.00    +0.000 A 
ATOM     18  C   UNL     1      -0.761  10.767  23.048  0.00  0.00    +0.000 A 
ATOM     19  N   UNL     1      -1.792  11.612  22.917  0.00  0.00    +0.000 NA
ATOM     20  N   UNL     1      -1.921  11.758  21.575  0.00  0.00    +0.000 N 
ATOM     21  C   UNL     1      -2.952  12.613  21.041  0.00  0.00    +0.000 C 
ATOM     22  C   UNL     1       0.822   9.563  21.354  0.00  0.00    +0.000 A 
ATOM     23  O   UNL     1       1.553   8.971  22.141  0.00  0.00    +0.000 OA
ENDBRANCH  10  13
BRANCH   1  24
ATOM     24  C   UNL     1       2.438   4.635  20.859  0.00  0.00    +0.000 C 
BRANCH  24  26
ATOM     25  C   UNL     1       0.415   2.778  20.199  0.00  0.00    +0.000 C 
ATOM     26  C   UNL     1       1.349   3.635  20.504  0.00  0.00    +0.000 C 
ENDBRANCH  24  26
ENDBRANCH   1  24
TORSDOF 3
ENDMDL
