MODEL 1
REMARK VINA RESULT:      -7.8      0.000      0.000
REMARK  Name = 
REMARK  5 active torsions:
REMARK  status: ('A' for Active; 'I' for Inactive)
REMARK    1  A    between atoms: O_1  and  C_2
REMARK    2  A    between atoms: C_4  and  C_5
REMARK    3  A    between atoms: C_5  and  S_6
REMARK    4  A    between atoms: S_6  and  C_7
REMARK    5  A    between atoms: C_9  and  C_10
REMARK                            x       y       z     vdW  Elec       q    Type
REMARK                         _______ _______ _______ _____ _____    ______ ____
ROOT
ATOM      1  C   UNL     1       5.406   4.676  16.131  0.00  0.00    +0.000 C 
ENDROOT
BRANCH   1   4
ATOM      2  C   UNL     1       3.540   2.346  18.238  0.00  0.00    +0.000 A 
ATOM      3  N   UNL     1       4.404   2.782  17.314  0.00  0.00    +0.000 NA
ATOM      4  C   UNL     1       4.501   4.121  17.208  0.00  0.00    +0.000 A 
ATOM      5  N   UNL     1       3.811   5.000  17.969  0.00  0.00    +0.000 NA
ATOM      6  C   UNL     1       2.952   4.511  18.878  0.00  0.00    +0.000 A 
ATOM      7  C   UNL     1       2.198   5.380  19.662  0.00  0.00    +0.000 A 
ATOM      8  C   UNL     1       1.271   4.914  20.604  0.00  0.00    +0.000 A 
ATOM      9  C   UNL     1       1.091   3.548  20.784  0.00  0.00    +0.000 A 
ATOM     10  C   UNL     1       1.839   2.657  20.021  0.00  0.00    +0.000 A 
ATOM     11  C   UNL     1       2.763   3.142  19.065  0.00  0.00    +0.000 A 
BRANCH   2  12
ATOM     12  O   UNL     1       3.462   0.989  18.292  0.00  0.00    +0.000 OA
ATOM     13  H   UNL     1       4.189   0.749  17.689  0.00  0.00    +0.000 HD
ENDBRANCH   2  12
ENDBRANCH   1   4
BRANCH   1  14
ATOM     14  S   UNL     1       5.239   6.486  15.998  0.00  0.00    +0.000 S 
BRANCH  14  15
ATOM     15  C   UNL     1       6.516   7.010  17.070  0.00  0.00    +0.000 A 
ATOM     16  N   UNL     1       6.859   8.272  17.187  0.00  0.00    +0.000 NA
ATOM     17  C   UNL     1       7.923   8.396  18.070  0.00  0.00    +0.000 A 
ATOM     18  C   UNL     1       8.340   7.210  18.646  0.00  0.00    +0.000 A 
ATOM     19  S   UNL     1       7.403   5.908  18.037  0.00  0.00    +0.000 S 
BRANCH  17  20
ATOM     20  C   UNL     1       8.516   9.699  18.339  0.00  0.00    +0.000 A 
ATOM     21  C   UNL     1       8.177  10.787  17.522  0.00  0.00    +0.000 A 
ATOM     22  C   UNL     1       8.766  12.038  17.716  0.00  0.00    +0.000 A 
ATOM     23  C   UNL     1       9.703  12.215  18.730  0.00  0.00    +0.000 A 
ATOM     24  C   UNL     1      10.044  11.146  19.557  0.00  0.00    +0.000 A 
ATOM     25  C   UNL     1       9.451   9.894  19.367  0.00  0.00    +0.000 A 
ENDBRANCH  17  20
ENDBRANCH  14  15
ENDBRANCH   1  14
TORSDOF 5
ENDMDL
MODEL 2
REMARK VINA RESULT:      -7.8      4.184      6.810
REMARK  Name = 
REMARK  5 active torsions:
REMARK  status: ('A' for Active; 'I' for Inactive)
REMARK    1  A    between atoms: O_1  and  C_2
REMARK    2  A    between atoms: C_4  and  C_5
REMARK    3  A    between atoms: C_5  and  S_6
REMARK    4  A    between atoms: S_6  and  C_7
REMARK    5  A    between atoms: C_9  and  C_10
REMARK                            x       y       z     vdW  Elec       q    Type
REMARK                         _______ _______ _______ _____ _____    ______ ____
ROOT
ATOM      1  C   UNL     1       4.114   3.503  17.389  0.00  0.00    +0.000 C 
ENDROOT
BRANCH   1   4
ATOM      2  C   UNL     1       6.823   5.485  15.945  0.00  0.00    +0.000 A 
ATOM      3  N   UNL     1       5.964   5.016  16.857  0.00  0.00    +0.000 NA
ATOM      4  C   UNL     1       5.158   4.026  16.427  0.00  0.00    +0.000 A 
ATOM      5  N   UNL     1       5.188   3.502  15.182  0.00  0.00    +0.000 NA
ATOM      6  C   UNL     1       6.064   4.014  14.302  0.00  0.00    +0.000 A 
ATOM      7  C   UNL     1       6.110   3.524  12.999  0.00  0.00    +0.000 A 
ATOM      8  C   UNL     1       6.989   4.046  12.041  0.00  0.00    +0.000 A 
ATOM      9  C   UNL     1       7.859   5.075  12.384  0.00  0.00    +0.000 A 
ATOM     10  C   UNL     1       7.842   5.574  13.682  0.00  0.00    +0.000 A 
ATOM     11  C   UNL     1       6.940   5.047  14.635  0.00  0.00    +0.000 A 
BRANCH   2  12
ATOM     12  O   UNL     1       7.600   6.496  16.420  0.00  0.00    +0.000 OA
ATOM     13  H   UNL     1       8.365   6.423  15.821  0.00  0.00    +0.000 HD
ENDBRANCH   2  12
ENDBRANCH   1   4
BRANCH   1  14
ATOM     14  S   UNL     1       4.643   3.721  19.118  0.00  0.00    +0.000 S 
BRANCH  14  15
ATOM     15  C   UNL     1       3.402   4.803  19.706  0.00  0.00    +0.000 A 
ATOM     16  N   UNL     1       3.201   5.989  19.180  0.00  0.00    +0.000 NA
ATOM     17  C   UNL     1       2.188   6.647  19.864  0.00  0.00    +0.000 A 
ATOM     18  C   UNL     1       1.605   5.914  20.882  0.00  0.00    +0.000 A 
ATOM     19  S   UNL     1       2.369   4.383  21.007  0.00  0.00    +0.000 S 
BRANCH  17  20
ATOM     20  C   UNL     1       1.804   8.003  19.497  0.00  0.00    +0.000 A 
ATOM     21  C   UNL     1       2.163   8.498  18.235  0.00  0.00    +0.000 A 
ATOM     22  C   UNL     1       1.858   9.811  17.869  0.00  0.00    +0.000 A 
ATOM     23  C   UNL     1       1.192  10.645  18.762  0.00  0.00    +0.000 A 
ATOM     24  C   UNL     1       0.819  10.165  20.017  0.00  0.00    +0.000 A 
ATOM     25  C   UNL     1       1.120   8.848  20.383  0.00  0.00    +0.000 A 
ENDBRANCH  17  20
ENDBRANCH  14  15
ENDBRANCH   1  14
TORSDOF 5
ENDMDL
MODEL 3
REMARK VINA RESULT:      -7.8      0.205      1.006
REMARK  Name = 
REMARK  5 active torsions:
REMARK  status: ('A' for Active; 'I' for Inactive)
REMARK    1  A    between atoms: O_1  and  C_2
REMARK    2  A    between atoms: C_4  and  C_5
REMARK    3  A    between atoms: C_5  and  S_6
REMARK    4  A    between atoms: S_6  and  C_7
REMARK    5  A    between atoms: C_9  and  C_10
REMARK                            x       y       z     vdW  Elec       q    Type
REMARK                         _______ _______ _______ _____ _____    ______ ____
ROOT
ATOM      1  C   UNL     1       5.625   4.666  16.314  0.00  0.00    +0.000 C 
ENDROOT
BRANCH   1   4
ATOM      2  C   UNL     1       3.427   2.431  18.191  0.00  0.00    +0.000 A 
ATOM      3  N   UNL     1       4.369   2.825  17.326  0.00  0.00    +0.000 NA
ATOM      4  C   UNL     1       4.622   4.148  17.321  0.00  0.00    +0.000 A 
ATOM      5  N   UNL     1       4.009   5.047  18.122  0.00  0.00    +0.000 NA
ATOM      6  C   UNL     1       3.065   4.601  18.967  0.00  0.00    +0.000 A 
ATOM      7  C   UNL     1       2.387   5.496  19.789  0.00  0.00    +0.000 A 
ATOM      8  C   UNL     1       1.377   5.078  20.667  0.00  0.00    +0.000 A 
ATOM      9  C   UNL     1       1.036   3.733  20.742  0.00  0.00    +0.000 A 
ATOM     10  C   UNL     1       1.706   2.816  19.940  0.00  0.00    +0.000 A 
ATOM     11  C   UNL     1       2.715   3.253  19.050  0.00  0.00    +0.000 A 
BRANCH   2  12
ATOM     12  O   UNL     1       3.192   1.092  18.144  0.00  0.00    +0.000 OA
ATOM     13  H   UNL     1       3.477   0.834  19.039  0.00  0.00    +0.000 HD
ENDBRANCH   2  12
ENDBRANCH   1   4
BRANCH   1  14
ATOM     14  S   UNL     1       5.441   6.461  16.064  0.00  0.00    +0.000 S 
BRANCH  14  15
ATOM     15  C   UNL     1       6.665   7.069  17.154  0.00  0.00    +0.000 A 
ATOM     16  N   UNL     1       7.003   8.336  17.191  0.00  0.00    +0.000 NA
ATOM     17  C   UNL     1       8.024   8.529  18.113  0.00  0.00    +0.000 A 
ATOM     18  C   UNL     1       8.411   7.392  18.797  0.00  0.00    +0.000 A 
ATOM     19  S   UNL     1       7.503   6.045  18.244  0.00  0.00    +0.000 S 
BRANCH  17  20
ATOM     20  C   UNL     1       8.605   9.851  18.310  0.00  0.00    +0.000 A 
ATOM     21  C   UNL     1       9.528  10.045  19.346  0.00  0.00    +0.000 A 
ATOM     22  C   UNL     1      10.065  11.310  19.598  0.00  0.00    +0.000 A 
ATOM     23  C   UNL     1       9.682  12.395  18.815  0.00  0.00    +0.000 A 
ATOM     24  C   UNL     1       8.772  12.217  17.774  0.00  0.00    +0.000 A 
ATOM     25  C   UNL     1       8.238  10.950  17.519  0.00  0.00    +0.000 A 
ENDBRANCH  17  20
ENDBRANCH  14  15
ENDBRANCH   1  14
TORSDOF 5
ENDMDL
MODEL 4
REMARK VINA RESULT:      -7.7      4.311      6.294
REMARK  Name = 
REMARK  5 active torsions:
REMARK  status: ('A' for Active; 'I' for Inactive)
REMARK    1  A    between atoms: O_1  and  C_2
REMARK    2  A    between atoms: C_4  and  C_5
REMARK    3  A    between atoms: C_5  and  S_6
REMARK    4  A    between atoms: S_6  and  C_7
REMARK    5  A    between atoms: C_9  and  C_10
REMARK                            x       y       z     vdW  Elec       q    Type
REMARK                         _______ _______ _______ _____ _____    ______ ____
ROOT
ATOM      1  C   UNL     1       3.185   4.867  19.868  0.00  0.00    +0.000 C 
ENDROOT
BRANCH   1   4
ATOM      2  C   UNL     1       2.227   8.083  18.421  0.00  0.00    +0.000 A 
ATOM      3  N   UNL     1       2.740   6.850  18.502  0.00  0.00    +0.000 NA
ATOM      4  C   UNL     1       2.564   6.235  19.688  0.00  0.00    +0.000 A 
ATOM      5  N   UNL     1       1.910   6.776  20.740  0.00  0.00    +0.000 NA
ATOM      6  C   UNL     1       1.420   8.019  20.609  0.00  0.00    +0.000 A 
ATOM      7  C   UNL     1       0.766   8.626  21.677  0.00  0.00    +0.000 A 
ATOM      8  C   UNL     1       0.263   9.932  21.594  0.00  0.00    +0.000 A 
ATOM      9  C   UNL     1       0.400  10.654  20.414  0.00  0.00    +0.000 A 
ATOM     10  C   UNL     1       1.039  10.067  19.328  0.00  0.00    +0.000 A 
ATOM     11  C   UNL     1       1.553   8.753  19.430  0.00  0.00    +0.000 A 
BRANCH   2  12
ATOM     12  O   UNL     1       2.448   8.670  17.214  0.00  0.00    +0.000 OA
ATOM     13  H   UNL     1       3.195   9.253  17.439  0.00  0.00    +0.000 HD
ENDBRANCH   2  12
ENDBRANCH   1   4
BRANCH   1  14
ATOM     14  S   UNL     1       3.027   3.867  18.354  0.00  0.00    +0.000 S 
BRANCH  14  15
ATOM     15  C   UNL     1       4.538   4.239  17.557  0.00  0.00    +0.000 A 
ATOM     16  N   UNL     1       4.692   4.127  16.259  0.00  0.00    +0.000 NA
ATOM     17  C   UNL     1       5.996   4.445  15.905  0.00  0.00    +0.000 A 
ATOM     18  C   UNL     1       6.802   4.841  16.956  0.00  0.00    +0.000 A 
ATOM     19  S   UNL     1       5.915   4.776  18.424  0.00  0.00    +0.000 S 
BRANCH  17  20
ATOM     20  C   UNL     1       6.430   4.355  14.517  0.00  0.00    +0.000 A 
ATOM     21  C   UNL     1       7.437   5.216  14.058  0.00  0.00    +0.000 A 
ATOM     22  C   UNL     1       7.841   5.195  12.722  0.00  0.00    +0.000 A 
ATOM     23  C   UNL     1       7.241   4.312  11.828  0.00  0.00    +0.000 A 
ATOM     24  C   UNL     1       6.245   3.443  12.271  0.00  0.00    +0.000 A 
ATOM     25  C   UNL     1       5.843   3.460  13.610  0.00  0.00    +0.000 A 
ENDBRANCH  17  20
ENDBRANCH  14  15
ENDBRANCH   1  14
TORSDOF 5
ENDMDL
MODEL 5
REMARK VINA RESULT:      -7.7      1.774      2.577
REMARK  Name = 
REMARK  5 active torsions:
REMARK  status: ('A' for Active; 'I' for Inactive)
REMARK    1  A    between atoms: O_1  and  C_2
REMARK    2  A    between atoms: C_4  and  C_5
REMARK    3  A    between atoms: C_5  and  S_6
REMARK    4  A    between atoms: S_6  and  C_7
REMARK    5  A    between atoms: C_9  and  C_10
REMARK                            x       y       z     vdW  Elec       q    Type
REMARK                         _______ _______ _______ _____ _____    ______ ____
ROOT
ATOM      1  C   UNL     1       3.791   7.374  17.034  0.00  0.00    +0.000 C 
ENDROOT
BRANCH   1   4
ATOM      2  C   UNL     1       2.094   6.221  20.057  0.00  0.00    +0.000 A 
ATOM      3  N   UNL     1       2.665   7.059  19.185  0.00  0.00    +0.000 NA
ATOM      4  C   UNL     1       3.071   6.494  18.031  0.00  0.00    +0.000 A 
ATOM      5  N   UNL     1       2.918   5.187  17.725  0.00  0.00    +0.000 NA
ATOM      6  C   UNL     1       2.344   4.386  18.638  0.00  0.00    +0.000 A 
ATOM      7  C   UNL     1       2.194   3.027  18.376  0.00  0.00    +0.000 A 
ATOM      8  C   UNL     1       1.625   2.150  19.311  0.00  0.00    +0.000 A 
ATOM      9  C   UNL     1       1.181   2.635  20.536  0.00  0.00    +0.000 A 
ATOM     10  C   UNL     1       1.309   3.990  20.818  0.00  0.00    +0.000 A 
ATOM     11  C   UNL     1       1.896   4.861  19.870  0.00  0.00    +0.000 A 
BRANCH   2  12
ATOM     12  O   UNL     1       1.722   6.833  21.213  0.00  0.00    +0.000 OA
ATOM     13  H   UNL     1       1.264   6.097  21.659  0.00  0.00    +0.000 HD
ENDBRANCH   2  12
ENDBRANCH   1   4
BRANCH   1  14
ATOM     14  S   UNL     1       5.173   6.485  16.247  0.00  0.00    +0.000 S 
BRANCH  14  15
ATOM     15  C   UNL     1       6.511   7.026  17.232  0.00  0.00    +0.000 A 
ATOM     16  N   UNL     1       6.853   8.290  17.318  0.00  0.00    +0.000 NA
ATOM     17  C   UNL     1       7.970   8.427  18.132  0.00  0.00    +0.000 A 
ATOM     18  C   UNL     1       8.429   7.248  18.689  0.00  0.00    +0.000 A 
ATOM     19  S   UNL     1       7.464   5.936  18.150  0.00  0.00    +0.000 S 
BRANCH  17  20
ATOM     20  C   UNL     1       8.571   9.735  18.352  0.00  0.00    +0.000 A 
ATOM     21  C   UNL     1       9.398   9.930  19.467  0.00  0.00    +0.000 A 
ATOM     22  C   UNL     1       9.948  11.185  19.739  0.00  0.00    +0.000 A 
ATOM     23  C   UNL     1       9.674  12.260  18.898  0.00  0.00    +0.000 A 
ATOM     24  C   UNL     1       8.861  12.081  17.781  0.00  0.00    +0.000 A 
ATOM     25  C   UNL     1       8.314  10.824  17.505  0.00  0.00    +0.000 A 
ENDBRANCH  17  20
ENDBRANCH  14  15
ENDBRANCH   1  14
TORSDOF 5
ENDMDL
MODEL 6
REMARK VINA RESULT:      -7.7      1.840      2.570
REMARK  Name = 
REMARK  5 active torsions:
REMARK  status: ('A' for Active; 'I' for Inactive)
REMARK    1  A    between atoms: O_1  and  C_2
REMARK    2  A    between atoms: C_4  and  C_5
REMARK    3  A    between atoms: C_5  and  S_6
REMARK    4  A    between atoms: S_6  and  C_7
REMARK    5  A    between atoms: C_9  and  C_10
REMARK                            x       y       z     vdW  Elec       q    Type
REMARK                         _______ _______ _______ _____ _____    ______ ____
ROOT
ATOM      1  C   UNL     1       6.646   4.874  17.717  0.00  0.00    +0.000 C 
ENDROOT
BRANCH   1   4
ATOM      2  C   UNL     1       3.499   5.461  19.478  0.00  0.00    +0.000 A 
ATOM      3  N   UNL     1       4.728   5.690  19.001  0.00  0.00    +0.000 NA
ATOM      4  C   UNL     1       5.232   4.709  18.227  0.00  0.00    +0.000 A 
ATOM      5  N   UNL     1       4.576   3.569  17.915  0.00  0.00    +0.000 NA
ATOM      6  C   UNL     1       3.348   3.385  18.426  0.00  0.00    +0.000 A 
ATOM      7  C   UNL     1       2.649   2.212  18.155  0.00  0.00    +0.000 A 
ATOM      8  C   UNL     1       1.376   1.967  18.688  0.00  0.00    +0.000 A 
ATOM      9  C   UNL     1       0.772   2.915  19.505  0.00  0.00    +0.000 A 
ATOM     10  C   UNL     1       1.443   4.101  19.782  0.00  0.00    +0.000 A 
ATOM     11  C   UNL     1       2.733   4.330  19.247  0.00  0.00    +0.000 A 
BRANCH   2  12
ATOM     12  O   UNL     1       3.043   6.469  20.270  0.00  0.00    +0.000 OA
ATOM     13  H   UNL     1       3.409   6.193  21.130  0.00  0.00    +0.000 HD
ENDBRANCH   2  12
ENDBRANCH   1   4
BRANCH   1  14
ATOM     14  S   UNL     1       7.747   5.511  19.020  0.00  0.00    +0.000 S 
BRANCH  14  15
ATOM     15  C   UNL     1       7.933   7.172  18.507  0.00  0.00    +0.000 A 
ATOM     16  N   UNL     1       8.746   8.006  19.112  0.00  0.00    +0.000 NA
ATOM     17  C   UNL     1       8.663   9.261  18.525  0.00  0.00    +0.000 A 
ATOM     18  C   UNL     1       7.807   9.340  17.442  0.00  0.00    +0.000 A 
ATOM     19  S   UNL     1       7.062   7.817  17.179  0.00  0.00    +0.000 S 
BRANCH  17  20
ATOM     20  C   UNL     1       9.443  10.376  19.046  0.00  0.00    +0.000 A 
ATOM     21  C   UNL     1      10.292  11.082  18.182  0.00  0.00    +0.000 A 
ATOM     22  C   UNL     1      11.093  12.122  18.658  0.00  0.00    +0.000 A 
ATOM     23  C   UNL     1      11.056  12.466  20.006  0.00  0.00    +0.000 A 
ATOM     24  C   UNL     1      10.210  11.781  20.877  0.00  0.00    +0.000 A 
ATOM     25  C   UNL     1       9.403  10.743  20.400  0.00  0.00    +0.000 A 
ENDBRANCH  17  20
ENDBRANCH  14  15
ENDBRANCH   1  14
TORSDOF 5
ENDMDL
MODEL 7
REMARK VINA RESULT:      -7.7      3.383      6.111
REMARK  Name = 
REMARK  5 active torsions:
REMARK  status: ('A' for Active; 'I' for Inactive)
REMARK    1  A    between atoms: O_1  and  C_2
REMARK    2  A    between atoms: C_4  and  C_5
REMARK    3  A    between atoms: C_5  and  S_6
REMARK    4  A    between atoms: S_6  and  C_7
REMARK    5  A    between atoms: C_9  and  C_10
REMARK                            x       y       z     vdW  Elec       q    Type
REMARK                         _______ _______ _______ _____ _____    ______ ____
ROOT
ATOM      1  C   UNL     1       3.710   1.967  18.465  0.00  0.00    +0.000 C 
ENDROOT
BRANCH   1   4
ATOM      2  C   UNL     1       5.194   4.561  16.363  0.00  0.00    +0.000 A 
ATOM      3  N   UNL     1       4.411   3.538  16.723  0.00  0.00    +0.000 NA
ATOM      4  C   UNL     1       4.514   3.165  18.013  0.00  0.00    +0.000 A 
ATOM      5  N   UNL     1       5.322   3.762  18.918  0.00  0.00    +0.000 NA
ATOM      6  C   UNL     1       6.093   4.780  18.504  0.00  0.00    +0.000 A 
ATOM      7  C   UNL     1       6.962   5.404  19.395  0.00  0.00    +0.000 A 
ATOM      8  C   UNL     1       7.803   6.453  19.000  0.00  0.00    +0.000 A 
ATOM      9  C   UNL     1       7.776   6.906  17.686  0.00  0.00    +0.000 A 
ATOM     10  C   UNL     1       6.910   6.308  16.778  0.00  0.00    +0.000 A 
ATOM     11  C   UNL     1       6.075   5.242  17.188  0.00  0.00    +0.000 A 
BRANCH   2  12
ATOM     12  O   UNL     1       5.070   4.885  15.047  0.00  0.00    +0.000 OA
ATOM     13  H   UNL     1       5.749   4.303  14.660  0.00  0.00    +0.000 HD
ENDBRANCH   2  12
ENDBRANCH   1   4
BRANCH   1  14
ATOM     14  S   UNL     1       1.933   2.360  18.552  0.00  0.00    +0.000 S 
BRANCH  14  15
ATOM     15  C   UNL     1       1.975   3.861  19.448  0.00  0.00    +0.000 A 
ATOM     16  N   UNL     1       1.819   5.028  18.868  0.00  0.00    +0.000 NA
ATOM     17  C   UNL     1       1.940   6.045  19.805  0.00  0.00    +0.000 A 
ATOM     18  C   UNL     1       2.143   5.616  21.103  0.00  0.00    +0.000 A 
ATOM     19  S   UNL     1       2.223   3.903  21.143  0.00  0.00    +0.000 S 
BRANCH  17  20
ATOM     20  C   UNL     1       1.847   7.441  19.400  0.00  0.00    +0.000 A 
ATOM     21  C   UNL     1       1.257   8.369  20.270  0.00  0.00    +0.000 A 
ATOM     22  C   UNL     1       1.104   9.705  19.893  0.00  0.00    +0.000 A 
ATOM     23  C   UNL     1       1.537  10.128  18.639  0.00  0.00    +0.000 A 
ATOM     24  C   UNL     1       2.134   9.220  17.766  0.00  0.00    +0.000 A 
ATOM     25  C   UNL     1       2.293   7.883  18.145  0.00  0.00    +0.000 A 
ENDBRANCH  17  20
ENDBRANCH  14  15
ENDBRANCH   1  14
TORSDOF 5
ENDMDL
MODEL 8
REMARK VINA RESULT:      -7.6      1.894      2.513
REMARK  Name = 
REMARK  5 active torsions:
REMARK  status: ('A' for Active; 'I' for Inactive)
REMARK    1  A    between atoms: O_1  and  C_2
REMARK    2  A    between atoms: C_4  and  C_5
REMARK    3  A    between atoms: C_5  and  S_6
REMARK    4  A    between atoms: S_6  and  C_7
REMARK    5  A    between atoms: C_9  and  C_10
REMARK                            x       y       z     vdW  Elec       q    Type
REMARK                         _______ _______ _______ _____ _____    ______ ____
ROOT
ATOM      1  C   UNL     1       6.681   4.828  17.871  0.00  0.00    +0.000 C 
ENDROOT
BRANCH   1   4
ATOM      2  C   UNL     1       3.221   5.612  18.743  0.00  0.00    +0.000 A 
ATOM      3  N   UNL     1       4.419   5.718  18.156  0.00  0.00    +0.000 NA
ATOM      4  C   UNL     1       5.286   4.728  18.445  0.00  0.00    +0.000 A 
ATOM      5  N   UNL     1       5.006   3.678  19.249  0.00  0.00    +0.000 NA
ATOM      6  C   UNL     1       3.792   3.623  19.820  0.00  0.00    +0.000 A 
ATOM      7  C   UNL     1       3.472   2.575  20.678  0.00  0.00    +0.000 A 
ATOM      8  C   UNL     1       2.226   2.492  21.316  0.00  0.00    +0.000 A 
ATOM      9  C   UNL     1       1.264   3.469  21.088  0.00  0.00    +0.000 A 
ATOM     10  C   UNL     1       1.554   4.521  20.226  0.00  0.00    +0.000 A 
ATOM     11  C   UNL     1       2.820   4.599  19.599  0.00  0.00    +0.000 A 
BRANCH   2  12
ATOM     12  O   UNL     1       2.389   6.645  18.438  0.00  0.00    +0.000 OA
ATOM     13  H   UNL     1       2.864   7.032  17.680  0.00  0.00    +0.000 HD
ENDBRANCH   2  12
ENDBRANCH   1   4
BRANCH   1  14
ATOM     14  S   UNL     1       7.852   5.498  19.096  0.00  0.00    +0.000 S 
BRANCH  14  15
ATOM     15  C   UNL     1       7.989   7.152  18.546  0.00  0.00    +0.000 A 
ATOM     16  N   UNL     1       8.787   8.019  19.123  0.00  0.00    +0.000 NA
ATOM     17  C   UNL     1       8.664   9.259  18.511  0.00  0.00    +0.000 A 
ATOM     18  C   UNL     1       7.795   9.292  17.437  0.00  0.00    +0.000 A 
ATOM     19  S   UNL     1       7.087   7.745  17.214  0.00  0.00    +0.000 S 
BRANCH  17  20
ATOM     20  C   UNL     1       9.420  10.404  19.000  0.00  0.00    +0.000 A 
ATOM     21  C   UNL     1      10.183  11.157  18.097  0.00  0.00    +0.000 A 
ATOM     22  C   UNL     1      10.962  12.229  18.538  0.00  0.00    +0.000 A 
ATOM     23  C   UNL     1      10.987  12.559  19.890  0.00  0.00    +0.000 A 
ATOM     24  C   UNL     1      10.226  11.827  20.800  0.00  0.00    +0.000 A 
ATOM     25  C   UNL     1       9.442  10.756  20.358  0.00  0.00    +0.000 A 
ENDBRANCH  17  20
ENDBRANCH  14  15
ENDBRANCH   1  14
TORSDOF 5
ENDMDL
MODEL 9
REMARK VINA RESULT:      -7.6      4.223      7.164
REMARK  Name = 
REMARK  5 active torsions:
REMARK  status: ('A' for Active; 'I' for Inactive)
REMARK    1  A    between atoms: O_1  and  C_2
REMARK    2  A    between atoms: C_4  and  C_5
REMARK    3  A    between atoms: C_5  and  S_6
REMARK    4  A    between atoms: S_6  and  C_7
REMARK    5  A    between atoms: C_9  and  C_10
REMARK                            x       y       z     vdW  Elec       q    Type
REMARK                         _______ _______ _______ _____ _____    ______ ____
ROOT
ATOM      1  C   UNL     1       2.154   4.452  19.184  0.00  0.00    +0.000 C 
ENDROOT
BRANCH   1   4
ATOM      2  C   UNL     1       5.768   4.863  18.837  0.00  0.00    +0.000 A 
ATOM      3  N   UNL     1       4.570   4.765  19.424  0.00  0.00    +0.000 NA
ATOM      4  C   UNL     1       3.545   4.502  18.592  0.00  0.00    +0.000 A 
ATOM      5  N   UNL     1       3.670   4.324  17.257  0.00  0.00    +0.000 NA
ATOM      6  C   UNL     1       4.894   4.440  16.716  0.00  0.00    +0.000 A 
ATOM      7  C   UNL     1       5.064   4.294  15.342  0.00  0.00    +0.000 A 
ATOM      8  C   UNL     1       6.318   4.432  14.732  0.00  0.00    +0.000 A 
ATOM      9  C   UNL     1       7.440   4.711  15.504  0.00  0.00    +0.000 A 
ATOM     10  C   UNL     1       7.299   4.850  16.881  0.00  0.00    +0.000 A 
ATOM     11  C   UNL     1       6.025   4.720  17.482  0.00  0.00    +0.000 A 
BRANCH   2  12
ATOM     12  O   UNL     1       6.767   5.151  19.715  0.00  0.00    +0.000 OA
ATOM     13  H   UNL     1       6.262   5.180  20.548  0.00  0.00    +0.000 HD
ENDBRANCH   2  12
ENDBRANCH   1   4
BRANCH   1  14
ATOM     14  S   UNL     1       2.111   5.230  20.831  0.00  0.00    +0.000 S 
BRANCH  14  15
ATOM     15  C   UNL     1       1.738   6.884  20.401  0.00  0.00    +0.000 A 
ATOM     16  N   UNL     1       1.042   7.672  21.186  0.00  0.00    +0.000 NA
ATOM     17  C   UNL     1       0.862   8.908  20.580  0.00  0.00    +0.000 A 
ATOM     18  C   UNL     1       1.474   9.045  19.348  0.00  0.00    +0.000 A 
ATOM     19  S   UNL     1       2.260   7.579  18.924  0.00  0.00    +0.000 S 
BRANCH  17  20
ATOM     20  C   UNL     1       0.082   9.948  21.236  0.00  0.00    +0.000 A 
ATOM     21  C   UNL     1      -0.329   9.762  22.564  0.00  0.00    +0.000 A 
ATOM     22  C   UNL     1      -1.123  10.714  23.207  0.00  0.00    +0.000 A 
ATOM     23  C   UNL     1      -1.516  11.864  22.528  0.00  0.00    +0.000 A 
ATOM     24  C   UNL     1      -1.108  12.069  21.211  0.00  0.00    +0.000 A 
ATOM     25  C   UNL     1      -0.309  11.119  20.568  0.00  0.00    +0.000 A 
ENDBRANCH  17  20
ENDBRANCH  14  15
ENDBRANCH   1  14
TORSDOF 5
ENDMDL
