MODEL 1
REMARK VINA RESULT:      -9.0      0.000      0.000
REMARK  Name = 
REMARK  6 active torsions:
REMARK  status: ('A' for Active; 'I' for Inactive)
REMARK    1  A    between atoms: C_1  and  C_2
REMARK    2  A    between atoms: C_9  and  C_11
REMARK    3  A    between atoms: C_11  and  C_12
REMARK    4  A    between atoms: C_12  and  C_13
REMARK    5  A    between atoms: C_16  and  S_17
REMARK    6  A    between atoms: S_17  and  N_20
REMARK                            x       y       z     vdW  Elec       q    Type
REMARK                         _______ _______ _______ _____ _____    ______ ____
ROOT
ATOM      1  C   UNL     1       8.019   7.078  18.443  0.00  0.00    +0.000 C 
ENDROOT
BRANCH   1  10
ATOM      2  C   UNL     1      10.816  16.455  19.124  0.00  0.00    +0.000 C 
ATOM      3  C   UNL     1      10.508  15.050  19.557  0.00  0.00    +0.000 A 
ATOM      4  C   UNL     1      10.584  14.668  20.898  0.00  0.00    +0.000 A 
ATOM      5  C   UNL     1      10.312  13.346  21.290  0.00  0.00    +0.000 A 
ATOM      6  C   UNL     1       9.952  12.384  20.322  0.00  0.00    +0.000 A 
ATOM      7  N   UNL     1       9.663  11.039  20.546  0.00  0.00    +0.000 NA
ATOM      8  C   UNL     1       9.305  10.473  19.417  0.00  0.00    +0.000 A 
ATOM      9  N   UNL     1       8.938   9.145  19.339  0.00  0.00    +0.000 N 
ATOM     10  C   UNL     1       8.270   8.570  18.276  0.00  0.00    +0.000 C 
ATOM     11  O   UNL     1       7.874   9.158  17.271  0.00  0.00    +0.000 OA
ATOM     12  S   UNL     1       9.398  11.457  18.029  0.00  0.00    +0.000 S 
ATOM     13  C   UNL     1       9.870  12.792  18.991  0.00  0.00    +0.000 A 
ATOM     14  C   UNL     1      10.146  14.107  18.586  0.00  0.00    +0.000 A 
ATOM     15  H   UNL     1       9.046   8.638  20.207  0.00  0.00    +0.000 HD
ENDBRANCH   1  10
BRANCH   1  16
ATOM     16  C   UNL     1       7.289   6.536  17.203  0.00  0.00    +0.000 C 
BRANCH  16  17
ATOM     17  C   UNL     1       6.212   5.513  17.477  0.00  0.00    +0.000 A 
ATOM     18  C   UNL     1       6.121   4.898  18.738  0.00  0.00    +0.000 A 
ATOM     19  C   UNL     1       5.121   3.957  19.008  0.00  0.00    +0.000 A 
ATOM     20  C   UNL     1       4.197   3.640  18.011  0.00  0.00    +0.000 A 
ATOM     21  C   UNL     1       4.251   4.270  16.767  0.00  0.00    +0.000 A 
ATOM     22  C   UNL     1       5.254   5.205  16.502  0.00  0.00    +0.000 A 
BRANCH  20  23
ATOM     23  S   UNL     1       3.032   2.315  18.237  0.00  0.00    +0.000 S 
ATOM     24  O   UNL     1       2.276   2.230  17.002  0.00  0.00    +0.000 OA
ATOM     25  O   UNL     1       3.724   1.163  18.771  0.00  0.00    +0.000 OA
BRANCH  23  26
ATOM     26  N   UNL     1       1.996   2.913  19.448  0.00  0.00    +0.000 NA
ATOM     27  C   UNL     1       1.531   4.314  19.304  0.00  0.00    +0.000 C 
ATOM     28  C   UNL     1       2.216   5.068  20.432  0.00  0.00    +0.000 C 
ATOM     29  C   UNL     1       2.284   4.050  21.553  0.00  0.00    +0.000 C 
ATOM     30  C   UNL     1       2.472   2.717  20.844  0.00  0.00    +0.000 C 
ENDBRANCH  23  26
ENDBRANCH  20  23
ENDBRANCH  16  17
ENDBRANCH   1  16
TORSDOF 5
ENDMDL
MODEL 2
REMARK VINA RESULT:      -8.7      1.269      1.622
REMARK  Name = 
REMARK  6 active torsions:
REMARK  status: ('A' for Active; 'I' for Inactive)
REMARK    1  A    between atoms: C_1  and  C_2
REMARK    2  A    between atoms: C_9  and  C_11
REMARK    3  A    between atoms: C_11  and  C_12
REMARK    4  A    between atoms: C_12  and  C_13
REMARK    5  A    between atoms: C_16  and  S_17
REMARK    6  A    between atoms: S_17  and  N_20
REMARK                            x       y       z     vdW  Elec       q    Type
REMARK                         _______ _______ _______ _____ _____    ______ ____
ROOT
ATOM      1  C   UNL     1       7.455   8.189  17.475  0.00  0.00    +0.000 C 
ENDROOT
BRANCH   1  10
ATOM      2  C   UNL     1      12.035  16.194  20.816  0.00  0.00    +0.000 C 
ATOM      3  C   UNL     1      11.246  15.317  19.886  0.00  0.00    +0.000 A 
ATOM      4  C   UNL     1      10.865  15.758  18.617  0.00  0.00    +0.000 A 
ATOM      5  C   UNL     1      10.110  14.936  17.762  0.00  0.00    +0.000 A 
ATOM      6  C   UNL     1       9.732  13.643  18.182  0.00  0.00    +0.000 A 
ATOM      7  N   UNL     1       8.982  12.716  17.461  0.00  0.00    +0.000 NA
ATOM      8  C   UNL     1       8.887  11.599  18.145  0.00  0.00    +0.000 A 
ATOM      9  N   UNL     1       8.218  10.492  17.666  0.00  0.00    +0.000 N 
ATOM     10  C   UNL     1       8.334   9.214  18.177  0.00  0.00    +0.000 C 
ATOM     11  O   UNL     1       9.074   8.872  19.099  0.00  0.00    +0.000 OA
ATOM     12  S   UNL     1       9.575  11.623  19.704  0.00  0.00    +0.000 S 
ATOM     13  C   UNL     1      10.136  13.220  19.447  0.00  0.00    +0.000 A 
ATOM     14  C   UNL     1      10.884  14.033  20.312  0.00  0.00    +0.000 A 
ATOM     15  H   UNL     1       7.746  10.647  16.785  0.00  0.00    +0.000 HD
ENDBRANCH   1  10
BRANCH   1  16
ATOM     16  C   UNL     1       7.685   6.801  18.096  0.00  0.00    +0.000 C 
BRANCH  16  17
ATOM     17  C   UNL     1       6.497   5.870  18.065  0.00  0.00    +0.000 A 
ATOM     18  C   UNL     1       6.323   4.906  19.074  0.00  0.00    +0.000 A 
ATOM     19  C   UNL     1       5.220   4.044  19.063  0.00  0.00    +0.000 A 
ATOM     20  C   UNL     1       4.278   4.158  18.039  0.00  0.00    +0.000 A 
ATOM     21  C   UNL     1       4.417   5.134  17.051  0.00  0.00    +0.000 A 
ATOM     22  C   UNL     1       5.522   5.988  17.066  0.00  0.00    +0.000 A 
BRANCH  20  23
ATOM     23  S   UNL     1       2.969   2.966  17.871  0.00  0.00    +0.000 S 
ATOM     24  O   UNL     1       2.325   3.254  16.603  0.00  0.00    +0.000 OA
ATOM     25  O   UNL     1       3.489   1.648  18.163  0.00  0.00    +0.000 OA
BRANCH  23  26
ATOM     26  N   UNL     1       1.892   3.394  19.117  0.00  0.00    +0.000 NA
ATOM     27  C   UNL     1       1.792   4.835  19.454  0.00  0.00    +0.000 C 
ATOM     28  C   UNL     1       2.413   4.955  20.836  0.00  0.00    +0.000 C 
ATOM     29  C   UNL     1       2.042   3.649  21.509  0.00  0.00    +0.000 C 
ATOM     30  C   UNL     1       2.048   2.626  20.382  0.00  0.00    +0.000 C 
ENDBRANCH  23  26
ENDBRANCH  20  23
ENDBRANCH  16  17
ENDBRANCH   1  16
TORSDOF 5
ENDMDL
MODEL 3
REMARK VINA RESULT:      -8.6      1.595      2.236
REMARK  Name = 
REMARK  6 active torsions:
REMARK  status: ('A' for Active; 'I' for Inactive)
REMARK    1  A    between atoms: C_1  and  C_2
REMARK    2  A    between atoms: C_9  and  C_11
REMARK    3  A    between atoms: C_11  and  C_12
REMARK    4  A    between atoms: C_12  and  C_13
REMARK    5  A    between atoms: C_16  and  S_17
REMARK    6  A    between atoms: S_17  and  N_20
REMARK                            x       y       z     vdW  Elec       q    Type
REMARK                         _______ _______ _______ _____ _____    ______ ____
ROOT
ATOM      1  C   UNL     1       8.081   9.037  17.684  0.00  0.00    +0.000 C 
ENDROOT
BRANCH   1  10
ATOM      2  C   UNL     1      12.333  17.201  21.073  0.00  0.00    +0.000 C 
ATOM      3  C   UNL     1      11.741  16.236  20.085  0.00  0.00    +0.000 A 
ATOM      4  C   UNL     1      11.752  16.499  18.714  0.00  0.00    +0.000 A 
ATOM      5  C   UNL     1      11.178  15.598  17.800  0.00  0.00    +0.000 A 
ATOM      6  C   UNL     1      10.585  14.405  18.266  0.00  0.00    +0.000 A 
ATOM      7  N   UNL     1       9.969  13.421  17.494  0.00  0.00    +0.000 NA
ATOM      8  C   UNL     1       9.594  12.428  18.267  0.00  0.00    +0.000 A 
ATOM      9  N   UNL     1       8.975  11.298  17.773  0.00  0.00    +0.000 N 
ATOM     10  C   UNL     1       8.833  10.109  18.460  0.00  0.00    +0.000 C 
ATOM     11  O   UNL     1       9.267   9.872  19.587  0.00  0.00    +0.000 OA
ATOM     12  S   UNL     1       9.843  12.652  19.938  0.00  0.00    +0.000 S 
ATOM     13  C   UNL     1      10.598  14.158  19.638  0.00  0.00    +0.000 A 
ATOM     14  C   UNL     1      11.161  15.053  20.560  0.00  0.00    +0.000 A 
ATOM     15  H   UNL     1       8.771  11.342  16.783  0.00  0.00    +0.000 HD
ENDBRANCH   1  10
BRANCH   1  16
ATOM     16  C   UNL     1       8.346   7.661  18.317  0.00  0.00    +0.000 C 
BRANCH  16  17
ATOM     17  C   UNL     1       7.197   6.683  18.253  0.00  0.00    +0.000 A 
ATOM     18  C   UNL     1       7.111   5.625  19.176  0.00  0.00    +0.000 A 
ATOM     19  C   UNL     1       6.045   4.719  19.135  0.00  0.00    +0.000 A 
ATOM     20  C   UNL     1       5.050   4.883  18.170  0.00  0.00    +0.000 A 
ATOM     21  C   UNL     1       5.100   5.950  17.271  0.00  0.00    +0.000 A 
ATOM     22  C   UNL     1       6.169   6.848  17.315  0.00  0.00    +0.000 A 
BRANCH  20  23
ATOM     23  S   UNL     1       3.784   3.654  17.951  0.00  0.00    +0.000 S 
ATOM     24  O   UNL     1       3.536   3.582  16.523  0.00  0.00    +0.000 OA
ATOM     25  O   UNL     1       4.136   2.472  18.709  0.00  0.00    +0.000 OA
BRANCH  23  26
ATOM     26  N   UNL     1       2.423   4.363  18.687  0.00  0.00    +0.000 NA
ATOM     27  C   UNL     1       2.669   5.214  19.877  0.00  0.00    +0.000 C 
ATOM     28  C   UNL     1       2.078   4.434  21.040  0.00  0.00    +0.000 C 
ATOM     29  C   UNL     1       0.883   3.731  20.429  0.00  0.00    +0.000 C 
ATOM     30  C   UNL     1       1.310   3.427  19.001  0.00  0.00    +0.000 C 
ENDBRANCH  23  26
ENDBRANCH  20  23
ENDBRANCH  16  17
ENDBRANCH   1  16
TORSDOF 5
ENDMDL
MODEL 4
REMARK VINA RESULT:      -8.4      3.074     11.236
REMARK  Name = 
REMARK  6 active torsions:
REMARK  status: ('A' for Active; 'I' for Inactive)
REMARK    1  A    between atoms: C_1  and  C_2
REMARK    2  A    between atoms: C_9  and  C_11
REMARK    3  A    between atoms: C_11  and  C_12
REMARK    4  A    between atoms: C_12  and  C_13
REMARK    5  A    between atoms: C_16  and  S_17
REMARK    6  A    between atoms: S_17  and  N_20
REMARK                            x       y       z     vdW  Elec       q    Type
REMARK                         _______ _______ _______ _____ _____    ______ ____
ROOT
ATOM      1  C   UNL     1       8.445   8.846  17.798  0.00  0.00    +0.000 C 
ENDROOT
BRANCH   1  10
ATOM      2  C   UNL     1       1.869   1.602  18.502  0.00  0.00    +0.000 C 
ATOM      3  C   UNL     1       2.412   2.983  18.271  0.00  0.00    +0.000 A 
ATOM      4  C   UNL     1       1.567   4.064  18.010  0.00  0.00    +0.000 A 
ATOM      5  C   UNL     1       2.087   5.349  17.776  0.00  0.00    +0.000 A 
ATOM      6  C   UNL     1       3.482   5.560  17.809  0.00  0.00    +0.000 A 
ATOM      7  N   UNL     1       4.151   6.764  17.590  0.00  0.00    +0.000 NA
ATOM      8  C   UNL     1       5.440   6.589  17.768  0.00  0.00    +0.000 A 
ATOM      9  N   UNL     1       6.351   7.617  17.641  0.00  0.00    +0.000 N 
ATOM     10  C   UNL     1       7.652   7.583  18.103  0.00  0.00    +0.000 C 
ATOM     11  O   UNL     1       8.172   6.657  18.723  0.00  0.00    +0.000 OA
ATOM     12  S   UNL     1       5.936   4.990  18.089  0.00  0.00    +0.000 S 
ATOM     13  C   UNL     1       4.305   4.469  18.085  0.00  0.00    +0.000 A 
ATOM     14  C   UNL     1       3.798   3.181  18.313  0.00  0.00    +0.000 A 
ATOM     15  H   UNL     1       5.945   8.487  17.324  0.00  0.00    +0.000 HD
ENDBRANCH   1  10
BRANCH   1  16
ATOM     16  C   UNL     1       8.965   9.457  19.110  0.00  0.00    +0.000 C 
BRANCH  16  17
ATOM     17  C   UNL     1       9.613  10.815  18.984  0.00  0.00    +0.000 A 
ATOM     18  C   UNL     1      10.288  11.386  20.078  0.00  0.00    +0.000 A 
ATOM     19  C   UNL     1      10.902  12.639  19.970  0.00  0.00    +0.000 A 
ATOM     20  C   UNL     1      10.851  13.319  18.753  0.00  0.00    +0.000 A 
ATOM     21  C   UNL     1      10.218  12.750  17.647  0.00  0.00    +0.000 A 
ATOM     22  C   UNL     1       9.604  11.501  17.762  0.00  0.00    +0.000 A 
BRANCH  20  23
ATOM     23  S   UNL     1      11.444  14.990  18.619  0.00  0.00    +0.000 S 
ATOM     24  O   UNL     1      12.333  15.192  19.748  0.00  0.00    +0.000 OA
ATOM     25  O   UNL     1      11.891  15.226  17.264  0.00  0.00    +0.000 OA
BRANCH  23  26
ATOM     26  N   UNL     1      10.043  15.921  18.879  0.00  0.00    +0.000 NA
ATOM     27  C   UNL     1       9.173  15.525  20.014  0.00  0.00    +0.000 C 
ATOM     28  C   UNL     1       7.908  14.989  19.365  0.00  0.00    +0.000 C 
ATOM     29  C   UNL     1       7.757  15.840  18.121  0.00  0.00    +0.000 C 
ATOM     30  C   UNL     1       9.185  16.126  17.681  0.00  0.00    +0.000 C 
ENDBRANCH  23  26
ENDBRANCH  20  23
ENDBRANCH  16  17
ENDBRANCH   1  16
TORSDOF 5
ENDMDL
MODEL 5
REMARK VINA RESULT:      -8.3      1.449      2.080
REMARK  Name = 
REMARK  6 active torsions:
REMARK  status: ('A' for Active; 'I' for Inactive)
REMARK    1  A    between atoms: C_1  and  C_2
REMARK    2  A    between atoms: C_9  and  C_11
REMARK    3  A    between atoms: C_11  and  C_12
REMARK    4  A    between atoms: C_12  and  C_13
REMARK    5  A    between atoms: C_16  and  S_17
REMARK    6  A    between atoms: S_17  and  N_20
REMARK                            x       y       z     vdW  Elec       q    Type
REMARK                         _______ _______ _______ _____ _____    ______ ____
ROOT
ATOM      1  C   UNL     1       8.281   7.382  18.575  0.00  0.00    +0.000 C 
ENDROOT
BRANCH   1  10
ATOM      2  C   UNL     1      10.307  16.971  18.978  0.00  0.00    +0.000 C 
ATOM      3  C   UNL     1      10.191  15.543  19.431  0.00  0.00    +0.000 A 
ATOM      4  C   UNL     1      10.495  15.167  20.741  0.00  0.00    +0.000 A 
ATOM      5  C   UNL     1      10.402  13.825  21.150  0.00  0.00    +0.000 A 
ATOM      6  C   UNL     1       9.990  12.837  20.230  0.00  0.00    +0.000 A 
ATOM      7  N   UNL     1       9.857  11.471  20.474  0.00  0.00    +0.000 NA
ATOM      8  C   UNL     1       9.390  10.877  19.401  0.00  0.00    +0.000 A 
ATOM      9  N   UNL     1       9.134   9.521  19.358  0.00  0.00    +0.000 N 
ATOM     10  C   UNL     1       8.372   8.890  18.395  0.00  0.00    +0.000 C 
ATOM     11  O   UNL     1       7.783   9.442  17.466  0.00  0.00    +0.000 OA
ATOM     12  S   UNL     1       9.192  11.868  18.028  0.00  0.00    +0.000 S 
ATOM     13  C   UNL     1       9.680  13.238  18.931  0.00  0.00    +0.000 A 
ATOM     14  C   UNL     1       9.776  14.573  18.510  0.00  0.00    +0.000 A 
ATOM     15  H   UNL     1       9.412   9.025  20.194  0.00  0.00    +0.000 HD
ENDBRANCH   1  10
BRANCH   1  16
ATOM     16  C   UNL     1       7.549   6.762  17.372  0.00  0.00    +0.000 C 
BRANCH  16  17
ATOM     17  C   UNL     1       6.199   6.158  17.673  0.00  0.00    +0.000 A 
ATOM     18  C   UNL     1       5.296   5.878  16.631  0.00  0.00    +0.000 A 
ATOM     19  C   UNL     1       4.047   5.307  16.896  0.00  0.00    +0.000 A 
ATOM     20  C   UNL     1       3.703   5.002  18.214  0.00  0.00    +0.000 A 
ATOM     21  C   UNL     1       4.602   5.239  19.255  0.00  0.00    +0.000 A 
ATOM     22  C   UNL     1       5.846   5.813  18.984  0.00  0.00    +0.000 A 
BRANCH  20  23
ATOM     23  S   UNL     1       2.060   4.459  18.623  0.00  0.00    +0.000 S 
ATOM     24  O   UNL     1       1.698   5.157  19.843  0.00  0.00    +0.000 OA
ATOM     25  O   UNL     1       1.228   4.538  17.443  0.00  0.00    +0.000 OA
BRANCH  23  26
ATOM     26  N   UNL     1       2.278   2.815  19.003  0.00  0.00    +0.000 NA
ATOM     27  C   UNL     1       2.913   2.504  20.307  0.00  0.00    +0.000 C 
ATOM     28  C   UNL     1       4.274   1.930  19.949  0.00  0.00    +0.000 C 
ATOM     29  C   UNL     1       4.018   1.184  18.655  0.00  0.00    +0.000 C 
ATOM     30  C   UNL     1       2.947   2.003  17.950  0.00  0.00    +0.000 C 
ENDBRANCH  23  26
ENDBRANCH  20  23
ENDBRANCH  16  17
ENDBRANCH   1  16
TORSDOF 5
ENDMDL
MODEL 6
REMARK VINA RESULT:      -8.3      1.700      2.617
REMARK  Name = 
REMARK  6 active torsions:
REMARK  status: ('A' for Active; 'I' for Inactive)
REMARK    1  A    between atoms: C_1  and  C_2
REMARK    2  A    between atoms: C_9  and  C_11
REMARK    3  A    between atoms: C_11  and  C_12
REMARK    4  A    between atoms: C_12  and  C_13
REMARK    5  A    between atoms: C_16  and  S_17
REMARK    6  A    between atoms: S_17  and  N_20
REMARK                            x       y       z     vdW  Elec       q    Type
REMARK                         _______ _______ _______ _____ _____    ______ ____
ROOT
ATOM      1  C   UNL     1       8.865   8.577  18.726  0.00  0.00    +0.000 C 
ENDROOT
BRANCH   1  10
ATOM      2  C   UNL     1      10.804  18.188  19.041  0.00  0.00    +0.000 C 
ATOM      3  C   UNL     1      10.765  16.783  18.510  0.00  0.00    +0.000 A 
ATOM      4  C   UNL     1      11.397  16.439  17.313  0.00  0.00    +0.000 A 
ATOM      5  C   UNL     1      11.338  15.126  16.815  0.00  0.00    +0.000 A 
ATOM      6  C   UNL     1      10.637  14.132  17.532  0.00  0.00    +0.000 A 
ATOM      7  N   UNL     1      10.479  12.795  17.171  0.00  0.00    +0.000 NA
ATOM      8  C   UNL     1       9.824  12.159  18.114  0.00  0.00    +0.000 A 
ATOM      9  N   UNL     1       9.541  10.811  18.039  0.00  0.00    +0.000 N 
ATOM     10  C   UNL     1       9.139  10.027  19.102  0.00  0.00    +0.000 C 
ATOM     11  O   UNL     1       9.014  10.401  20.267  0.00  0.00    +0.000 OA
ATOM     12  S   UNL     1       9.269  13.118  19.409  0.00  0.00    +0.000 S 
ATOM     13  C   UNL     1      10.027  14.496  18.731  0.00  0.00    +0.000 A 
ATOM     14  C   UNL     1      10.072  15.805  19.235  0.00  0.00    +0.000 A 
ATOM     15  H   UNL     1       9.813  10.383  17.164  0.00  0.00    +0.000 HD
ENDBRANCH   1  10
BRANCH   1  16
ATOM     16  C   UNL     1       7.843   8.527  17.578  0.00  0.00    +0.000 C 
BRANCH  16  17
ATOM     17  C   UNL     1       6.846   7.395  17.644  0.00  0.00    +0.000 A 
ATOM     18  C   UNL     1       5.678   7.430  16.861  0.00  0.00    +0.000 A 
ATOM     19  C   UNL     1       4.751   6.382  16.905  0.00  0.00    +0.000 A 
ATOM     20  C   UNL     1       5.004   5.285  17.729  0.00  0.00    +0.000 A 
ATOM     21  C   UNL     1       6.176   5.217  18.483  0.00  0.00    +0.000 A 
ATOM     22  C   UNL     1       7.094   6.268  18.438  0.00  0.00    +0.000 A 
BRANCH  20  23
ATOM     23  S   UNL     1       3.772   4.023  17.967  0.00  0.00    +0.000 S 
ATOM     24  O   UNL     1       2.521   4.590  17.498  0.00  0.00    +0.000 OA
ATOM     25  O   UNL     1       4.269   2.771  17.440  0.00  0.00    +0.000 OA
BRANCH  23  26
ATOM     26  N   UNL     1       3.684   3.883  19.661  0.00  0.00    +0.000 NA
ATOM     27  C   UNL     1       3.429   2.529  20.211  0.00  0.00    +0.000 C 
ATOM     28  C   UNL     1       2.028   2.605  20.797  0.00  0.00    +0.000 C 
ATOM     29  C   UNL     1       1.933   4.027  21.311  0.00  0.00    +0.000 C 
ATOM     30  C   UNL     1       2.764   4.842  20.331  0.00  0.00    +0.000 C 
ENDBRANCH  23  26
ENDBRANCH  20  23
ENDBRANCH  16  17
ENDBRANCH   1  16
TORSDOF 5
ENDMDL
MODEL 7
REMARK VINA RESULT:      -8.2      7.005     10.000
REMARK  Name = 
REMARK  6 active torsions:
REMARK  status: ('A' for Active; 'I' for Inactive)
REMARK    1  A    between atoms: C_1  and  C_2
REMARK    2  A    between atoms: C_9  and  C_11
REMARK    3  A    between atoms: C_11  and  C_12
REMARK    4  A    between atoms: C_12  and  C_13
REMARK    5  A    between atoms: C_16  and  S_17
REMARK    6  A    between atoms: S_17  and  N_20
REMARK                            x       y       z     vdW  Elec       q    Type
REMARK                         _______ _______ _______ _____ _____    ______ ____
ROOT
ATOM      1  C   UNL     1       1.719  10.091  18.123  0.00  0.00    +0.000 C 
ENDROOT
BRANCH   1  10
ATOM      2  C   UNL     1      -7.335  13.511  19.718  0.00  0.00    +0.000 C 
ATOM      3  C   UNL     1      -6.202  12.823  19.012  0.00  0.00    +0.000 A 
ATOM      4  C   UNL     1      -6.351  12.310  17.722  0.00  0.00    +0.000 A 
ATOM      5  C   UNL     1      -5.290  11.651  17.078  0.00  0.00    +0.000 A 
ATOM      6  C   UNL     1      -4.049  11.506  17.735  0.00  0.00    +0.000 A 
ATOM      7  N   UNL     1      -2.909  10.875  17.239  0.00  0.00    +0.000 NA
ATOM      8  C   UNL     1      -1.929  10.996  18.104  0.00  0.00    +0.000 A 
ATOM      9  N   UNL     1      -0.668  10.487  17.870  0.00  0.00    +0.000 N 
ATOM     10  C   UNL     1       0.468  10.831  18.574  0.00  0.00    +0.000 C 
ATOM     11  O   UNL     1       0.530  11.664  19.478  0.00  0.00    +0.000 OA
ATOM     12  S   UNL     1      -2.327  11.753  19.578  0.00  0.00    +0.000 S 
ATOM     13  C   UNL     1      -3.919  12.039  19.016  0.00  0.00    +0.000 A 
ATOM     14  C   UNL     1      -4.973  12.692  19.673  0.00  0.00    +0.000 A 
ATOM     15  H   UNL     1      -0.595   9.950  17.016  0.00  0.00    +0.000 HD
ENDBRANCH   1  10
BRANCH   1  16
ATOM     16  C   UNL     1       1.370   8.623  17.826  0.00  0.00    +0.000 C 
BRANCH  16  17
ATOM     17  C   UNL     1       2.501   7.638  17.999  0.00  0.00    +0.000 A 
ATOM     18  C   UNL     1       2.301   6.445  18.717  0.00  0.00    +0.000 A 
ATOM     19  C   UNL     1       3.338   5.518  18.875  0.00  0.00    +0.000 A 
ATOM     20  C   UNL     1       4.580   5.783  18.298  0.00  0.00    +0.000 A 
ATOM     21  C   UNL     1       4.784   6.944  17.551  0.00  0.00    +0.000 A 
ATOM     22  C   UNL     1       3.747   7.866  17.400  0.00  0.00    +0.000 A 
BRANCH  20  23
ATOM     23  S   UNL     1       5.980   4.736  18.631  0.00  0.00    +0.000 S 
ATOM     24  O   UNL     1       7.085   5.627  18.931  0.00  0.00    +0.000 OA
ATOM     25  O   UNL     1       5.584   3.699  19.559  0.00  0.00    +0.000 OA
BRANCH  23  26
ATOM     26  N   UNL     1       6.285   4.006  17.125  0.00  0.00    +0.000 NA
ATOM     27  C   UNL     1       7.438   4.525  16.347  0.00  0.00    +0.000 C 
ATOM     28  C   UNL     1       6.815   5.222  15.149  0.00  0.00    +0.000 C 
ATOM     29  C   UNL     1       5.584   4.390  14.852  0.00  0.00    +0.000 C 
ATOM     30  C   UNL     1       5.111   3.909  16.216  0.00  0.00    +0.000 C 
ENDBRANCH  23  26
ENDBRANCH  20  23
ENDBRANCH  16  17
ENDBRANCH   1  16
TORSDOF 5
ENDMDL
MODEL 8
REMARK VINA RESULT:      -8.1      1.787      2.340
REMARK  Name = 
REMARK  6 active torsions:
REMARK  status: ('A' for Active; 'I' for Inactive)
REMARK    1  A    between atoms: C_1  and  C_2
REMARK    2  A    between atoms: C_9  and  C_11
REMARK    3  A    between atoms: C_11  and  C_12
REMARK    4  A    between atoms: C_12  and  C_13
REMARK    5  A    between atoms: C_16  and  S_17
REMARK    6  A    between atoms: S_17  and  N_20
REMARK                            x       y       z     vdW  Elec       q    Type
REMARK                         _______ _______ _______ _____ _____    ______ ____
ROOT
ATOM      1  C   UNL     1       8.202   7.215  18.337  0.00  0.00    +0.000 C 
ENDROOT
BRANCH   1  10
ATOM      2  C   UNL     1      10.424  16.734  19.152  0.00  0.00    +0.000 C 
ATOM      3  C   UNL     1      10.254  15.297  19.552  0.00  0.00    +0.000 A 
ATOM      4  C   UNL     1      10.486  14.872  20.861  0.00  0.00    +0.000 A 
ATOM      5  C   UNL     1      10.342  13.520  21.220  0.00  0.00    +0.000 A 
ATOM      6  C   UNL     1       9.954  12.572  20.250  0.00  0.00    +0.000 A 
ATOM      7  N   UNL     1       9.778  11.203  20.443  0.00  0.00    +0.000 NA
ATOM      8  C   UNL     1       9.349  10.654  19.329  0.00  0.00    +0.000 A 
ATOM      9  N   UNL     1       9.065   9.307  19.229  0.00  0.00    +0.000 N 
ATOM     10  C   UNL     1       8.336   8.726  18.211  0.00  0.00    +0.000 C 
ATOM     11  O   UNL     1       7.805   9.321  17.275  0.00  0.00    +0.000 OA
ATOM     12  S   UNL     1       9.240  11.693  17.983  0.00  0.00    +0.000 S 
ATOM     13  C   UNL     1       9.715  13.021  18.952  0.00  0.00    +0.000 A 
ATOM     14  C   UNL     1       9.862  14.366  18.580  0.00  0.00    +0.000 A 
ATOM     15  H   UNL     1       9.291   8.778  20.061  0.00  0.00    +0.000 HD
ENDBRANCH   1  10
BRANCH   1  16
ATOM     16  C   UNL     1       7.081   6.718  17.409  0.00  0.00    +0.000 C 
BRANCH  16  17
ATOM     17  C   UNL     1       5.823   6.251  18.101  0.00  0.00    +0.000 A 
ATOM     18  C   UNL     1       4.574   6.794  17.749  0.00  0.00    +0.000 A 
ATOM     19  C   UNL     1       3.400   6.362  18.375  0.00  0.00    +0.000 A 
ATOM     20  C   UNL     1       3.476   5.368  19.352  0.00  0.00    +0.000 A 
ATOM     21  C   UNL     1       4.702   4.792  19.686  0.00  0.00    +0.000 A 
ATOM     22  C   UNL     1       5.871   5.231  19.060  0.00  0.00    +0.000 A 
BRANCH  20  23
ATOM     23  S   UNL     1       2.045   4.924  20.311  0.00  0.00    +0.000 S 
ATOM     24  O   UNL     1       2.546   4.478  21.598  0.00  0.00    +0.000 OA
ATOM     25  O   UNL     1       1.065   5.985  20.218  0.00  0.00    +0.000 OA
BRANCH  23  26
ATOM     26  N   UNL     1       1.431   3.568  19.487  0.00  0.00    +0.000 NA
ATOM     27  C   UNL     1       1.868   2.234  19.968  0.00  0.00    +0.000 C 
ATOM     28  C   UNL     1       2.754   1.692  18.858  0.00  0.00    +0.000 C 
ATOM     29  C   UNL     1       2.124   2.244  17.596  0.00  0.00    +0.000 C 
ATOM     30  C   UNL     1       1.579   3.604  18.006  0.00  0.00    +0.000 C 
ENDBRANCH  23  26
ENDBRANCH  20  23
ENDBRANCH  16  17
ENDBRANCH   1  16
TORSDOF 5
ENDMDL
MODEL 9
REMARK VINA RESULT:      -8.1      6.953      8.976
REMARK  Name = 
REMARK  6 active torsions:
REMARK  status: ('A' for Active; 'I' for Inactive)
REMARK    1  A    between atoms: C_1  and  C_2
REMARK    2  A    between atoms: C_9  and  C_11
REMARK    3  A    between atoms: C_11  and  C_12
REMARK    4  A    between atoms: C_12  and  C_13
REMARK    5  A    between atoms: C_16  and  S_17
REMARK    6  A    between atoms: S_17  and  N_20
REMARK                            x       y       z     vdW  Elec       q    Type
REMARK                         _______ _______ _______ _____ _____    ______ ____
ROOT
ATOM      1  C   UNL     1       0.499   9.489  17.766  0.00  0.00    +0.000 C 
ENDROOT
BRANCH   1  10
ATOM      2  C   UNL     1      -5.530  15.006  23.191  0.00  0.00    +0.000 C 
ATOM      3  C   UNL     1      -4.399  14.074  22.864  0.00  0.00    +0.000 A 
ATOM      4  C   UNL     1      -3.615  13.498  23.866  0.00  0.00    +0.000 A 
ATOM      5  C   UNL     1      -2.546  12.642  23.548  0.00  0.00    +0.000 A 
ATOM      6  C   UNL     1      -2.256  12.351  22.198  0.00  0.00    +0.000 A 
ATOM      7  N   UNL     1      -1.232  11.535  21.720  0.00  0.00    +0.000 NA
ATOM      8  C   UNL     1      -1.314  11.447  20.412  0.00  0.00    +0.000 A 
ATOM      9  N   UNL     1      -0.441  10.684  19.665  0.00  0.00    +0.000 N 
ATOM     10  C   UNL     1      -0.644  10.304  18.354  0.00  0.00    +0.000 C 
ATOM     11  O   UNL     1      -1.641  10.554  17.678  0.00  0.00    +0.000 OA
ATOM     12  S   UNL     1      -2.520  12.402  19.678  0.00  0.00    +0.000 S 
ATOM     13  C   UNL     1      -3.060  12.926  21.215  0.00  0.00    +0.000 A 
ATOM     14  C   UNL     1      -4.126  13.787  21.520  0.00  0.00    +0.000 A 
ATOM     15  H   UNL     1       0.306  10.268  20.207  0.00  0.00    +0.000 HD
ENDBRANCH   1  10
BRANCH   1  16
ATOM     16  C   UNL     1       1.579   9.268  18.838  0.00  0.00    +0.000 C 
BRANCH  16  17
ATOM     17  C   UNL     1       2.392   8.004  18.691  0.00  0.00    +0.000 A 
ATOM     18  C   UNL     1       2.352   7.012  19.687  0.00  0.00    +0.000 A 
ATOM     19  C   UNL     1       3.092   5.832  19.558  0.00  0.00    +0.000 A 
ATOM     20  C   UNL     1       3.868   5.638  18.414  0.00  0.00    +0.000 A 
ATOM     21  C   UNL     1       3.889   6.595  17.399  0.00  0.00    +0.000 A 
ATOM     22  C   UNL     1       3.151   7.773  17.536  0.00  0.00    +0.000 A 
BRANCH  20  23
ATOM     23  S   UNL     1       4.974   4.250  18.290  0.00  0.00    +0.000 S 
ATOM     24  O   UNL     1       5.736   4.452  17.071  0.00  0.00    +0.000 OA
ATOM     25  O   UNL     1       5.636   4.057  19.562  0.00  0.00    +0.000 OA
BRANCH  23  26
ATOM     26  N   UNL     1       3.921   2.937  18.041  0.00  0.00    +0.000 NA
ATOM     27  C   UNL     1       2.724   3.184  17.201  0.00  0.00    +0.000 C 
ATOM     28  C   UNL     1       1.550   3.101  18.163  0.00  0.00    +0.000 C 
ATOM     29  C   UNL     1       1.982   2.048  19.163  0.00  0.00    +0.000 C 
ATOM     30  C   UNL     1       3.489   2.226  19.275  0.00  0.00    +0.000 C 
ENDBRANCH  23  26
ENDBRANCH  20  23
ENDBRANCH  16  17
ENDBRANCH   1  16
TORSDOF 5
ENDMDL
