MODEL 1
REMARK VINA RESULT:      -7.9      0.000      0.000
REMARK  Name = 
REMARK  7 active torsions:
REMARK  status: ('A' for Active; 'I' for Inactive)
REMARK    1  A    between atoms: C_2  and  C_3
REMARK    2  A    between atoms: C_3  and  N_4
REMARK    3  A    between atoms: N_4  and  C_5
REMARK    4  A    between atoms: C_8  and  O_9
REMARK    5  A    between atoms: O_9  and  C_10
REMARK    6  A    between atoms: N_18  and  N_19
REMARK    7  A    between atoms: C_20  and  C_21
REMARK                            x       y       z     vdW  Elec       q    Type
REMARK                         _______ _______ _______ _____ _____    ______ ____
ROOT
ATOM      1  C   UNL     1       8.196   7.402  18.186  0.00  0.00    +0.000 C 
ENDROOT
BRANCH   1   3
ATOM      2  O   UNL     1       7.601   9.632  17.505  0.00  0.00    +0.000 OA
ATOM      3  C   UNL     1       8.298   8.923  18.231  0.00  0.00    +0.000 C 
ATOM      4  N   UNL     1       9.189   9.384  19.189  0.00  0.00    +0.000 N 
ATOM      5  H   UNL     1       9.667   8.707  19.776  0.00  0.00    +0.000 HD
BRANCH   4   6
ATOM      6  N   UNL     1       9.333  10.721  19.375  0.00  0.00    +0.000 NA
ATOM      7  C   UNL     1      10.031  11.095  20.395  0.00  0.00    +0.000 C 
BRANCH   7   8
ATOM      8  C   UNL     1      10.241  12.529  20.699  0.00  0.00    +0.000 A 
ATOM      9  C   UNL     1       9.567  13.179  21.743  0.00  0.00    +0.000 A 
ATOM     10 CL   UNL     1       8.521  12.409  22.875  0.00  0.00    +0.000 Cl
ATOM     11  C   UNL     1       9.810  14.535  21.929  0.00  0.00    +0.000 A 
ATOM     12  N   UNL     1      10.666  15.268  21.179  0.00  0.00    +0.000 NA
ATOM     13  C   UNL     1      11.313  14.610  20.191  0.00  0.00    +0.000 A 
ATOM     14  C   UNL     1      11.142  13.260  19.914  0.00  0.00    +0.000 A 
ATOM     15 CL   UNL     1      12.034  12.584  18.599  0.00  0.00    +0.000 Cl
ENDBRANCH   7   8
ENDBRANCH   4   6
ENDBRANCH   1   3
BRANCH   1  16
ATOM     16  N   UNL     1       7.551   6.924  16.947  0.00  0.00    +0.000 N 
ATOM     17  H   UNL     1       7.516   7.657  16.235  0.00  0.00    +0.000 HD
BRANCH  16  18
ATOM     18  C   UNL     1       6.274   6.344  17.066  0.00  0.00    +0.000 A 
ATOM     19  C   UNL     1       5.095   7.074  17.265  0.00  0.00    +0.000 A 
ATOM     20  C   UNL     1       3.857   6.431  17.379  0.00  0.00    +0.000 A 
ATOM     21  C   UNL     1       3.778   5.043  17.332  0.00  0.00    +0.000 A 
ATOM     22  C   UNL     1       4.953   4.298  17.235  0.00  0.00    +0.000 A 
ATOM     23  C   UNL     1       6.184   4.946  17.074  0.00  0.00    +0.000 A 
BRANCH  21  24
ATOM     24  O   UNL     1       2.519   4.508  17.459  0.00  0.00    +0.000 OA
BRANCH  24  25
ATOM     25  C   UNL     1       2.094   4.021  18.675  0.00  0.00    +0.000 A 
ATOM     26  C   UNL     1       1.486   2.763  18.649  0.00  0.00    +0.000 A 
ATOM     27  C   UNL     1       1.007   2.190  19.827  0.00  0.00    +0.000 A 
ATOM     28  C   UNL     1       1.134   2.873  21.037  0.00  0.00    +0.000 A 
ATOM     29  C   UNL     1       1.775   4.109  21.073  0.00  0.00    +0.000 A 
ATOM     30  C   UNL     1       2.283   4.667  19.899  0.00  0.00    +0.000 A 
ENDBRANCH  24  25
ENDBRANCH  21  24
ENDBRANCH  16  18
ENDBRANCH   1  16
TORSDOF 7
ENDMDL
MODEL 2
REMARK VINA RESULT:      -7.7      7.861     10.570
REMARK  Name = 
REMARK  7 active torsions:
REMARK  status: ('A' for Active; 'I' for Inactive)
REMARK    1  A    between atoms: C_2  and  C_3
REMARK    2  A    between atoms: C_3  and  N_4
REMARK    3  A    between atoms: N_4  and  C_5
REMARK    4  A    between atoms: C_8  and  O_9
REMARK    5  A    between atoms: O_9  and  C_10
REMARK    6  A    between atoms: N_18  and  N_19
REMARK    7  A    between atoms: C_20  and  C_21
REMARK                            x       y       z     vdW  Elec       q    Type
REMARK                         _______ _______ _______ _____ _____    ______ ____
ROOT
ATOM      1  C   UNL     1       0.574  10.352  19.242  0.00  0.00    +0.000 C 
ENDROOT
BRANCH   1   3
ATOM      2  O   UNL     1       2.037   9.271  17.667  0.00  0.00    +0.000 OA
ATOM      3  C   UNL     1       1.471   9.218  18.760  0.00  0.00    +0.000 C 
ATOM      4  N   UNL     1       1.610   8.197  19.688  0.00  0.00    +0.000 N 
ATOM      5  H   UNL     1       1.144   8.287  20.585  0.00  0.00    +0.000 HD
BRANCH   4   6
ATOM      6  N   UNL     1       2.431   7.151  19.409  0.00  0.00    +0.000 NA
ATOM      7  C   UNL     1       1.913   6.162  18.759  0.00  0.00    +0.000 C 
BRANCH   7   8
ATOM      8  C   UNL     1       2.714   4.966  18.413  0.00  0.00    +0.000 A 
ATOM      9  C   UNL     1       3.804   5.025  17.534  0.00  0.00    +0.000 A 
ATOM     10 CL   UNL     1       4.440   6.470  16.841  0.00  0.00    +0.000 Cl
ATOM     11  C   UNL     1       4.475   3.841  17.248  0.00  0.00    +0.000 A 
ATOM     12  N   UNL     1       4.153   2.636  17.773  0.00  0.00    +0.000 NA
ATOM     13  C   UNL     1       3.108   2.613  18.630  0.00  0.00    +0.000 A 
ATOM     14  C   UNL     1       2.366   3.733  18.982  0.00  0.00    +0.000 A 
ATOM     15 CL   UNL     1       1.048   3.522  20.075  0.00  0.00    +0.000 Cl
ENDBRANCH   7   8
ENDBRANCH   4   6
ENDBRANCH   1   3
BRANCH   1  16
ATOM     16  N   UNL     1      -0.052  11.082  18.121  0.00  0.00    +0.000 N 
ATOM     17  H   UNL     1       0.261  12.055  18.086  0.00  0.00    +0.000 HD
BRANCH  16  18
ATOM     18  C   UNL     1      -1.456  11.052  18.035  0.00  0.00    +0.000 A 
ATOM     19  C   UNL     1      -2.308  11.863  18.797  0.00  0.00    +0.000 A 
ATOM     20  C   UNL     1      -3.699  11.778  18.664  0.00  0.00    +0.000 A 
ATOM     21  C   UNL     1      -4.266  10.855  17.792  0.00  0.00    +0.000 A 
ATOM     22  C   UNL     1      -3.437   9.972  17.101  0.00  0.00    +0.000 A 
ATOM     23  C   UNL     1      -2.046  10.092  17.202  0.00  0.00    +0.000 A 
BRANCH  21  24
ATOM     24  O   UNL     1      -5.640  10.845  17.738  0.00  0.00    +0.000 OA
BRANCH  24  25
ATOM     25  C   UNL     1      -6.376  10.663  18.887  0.00  0.00    +0.000 A 
ATOM     26  C   UNL     1      -6.741   9.344  19.174  0.00  0.00    +0.000 A 
ATOM     27  C   UNL     1      -7.501   9.058  20.308  0.00  0.00    +0.000 A 
ATOM     28  C   UNL     1      -7.900  10.088  21.160  0.00  0.00    +0.000 A 
ATOM     29  C   UNL     1      -7.505  11.398  20.899  0.00  0.00    +0.000 A 
ATOM     30  C   UNL     1      -6.717  11.681  19.782  0.00  0.00    +0.000 A 
ENDBRANCH  24  25
ENDBRANCH  21  24
ENDBRANCH  16  18
ENDBRANCH   1  16
TORSDOF 7
ENDMDL
MODEL 3
REMARK VINA RESULT:      -7.6      6.597      8.208
REMARK  Name = 
REMARK  7 active torsions:
REMARK  status: ('A' for Active; 'I' for Inactive)
REMARK    1  A    between atoms: C_2  and  C_3
REMARK    2  A    between atoms: C_3  and  N_4
REMARK    3  A    between atoms: N_4  and  C_5
REMARK    4  A    between atoms: C_8  and  O_9
REMARK    5  A    between atoms: O_9  and  C_10
REMARK    6  A    between atoms: N_18  and  N_19
REMARK    7  A    between atoms: C_20  and  C_21
REMARK                            x       y       z     vdW  Elec       q    Type
REMARK                         _______ _______ _______ _____ _____    ______ ____
ROOT
ATOM      1  C   UNL     1       2.795   3.340  20.957  0.00  0.00    +0.000 C 
ENDROOT
BRANCH   1   3
ATOM      2  O   UNL     1       0.776   4.141  19.921  0.00  0.00    +0.000 OA
ATOM      3  C   UNL     1       1.793   4.417  20.559  0.00  0.00    +0.000 C 
ATOM      4  N   UNL     1       2.125   5.677  21.035  0.00  0.00    +0.000 N 
ATOM      5  H   UNL     1       2.959   5.779  21.605  0.00  0.00    +0.000 HD
BRANCH   4   6
ATOM      6  N   UNL     1       1.285   6.719  20.802  0.00  0.00    +0.000 NA
ATOM      7  C   UNL     1       1.832   7.862  20.555  0.00  0.00    +0.000 C 
BRANCH   7   8
ATOM      8  C   UNL     1       1.011   9.068  20.300  0.00  0.00    +0.000 A 
ATOM      9  C   UNL     1       0.288   9.710  21.315  0.00  0.00    +0.000 A 
ATOM     10 CL   UNL     1       0.342   9.289  22.986  0.00  0.00    +0.000 Cl
ATOM     11  C   UNL     1      -0.478  10.818  20.968  0.00  0.00    +0.000 A 
ATOM     12  N   UNL     1      -0.562  11.326  19.717  0.00  0.00    +0.000 NA
ATOM     13  C   UNL     1       0.158  10.696  18.762  0.00  0.00    +0.000 A 
ATOM     14  C   UNL     1       0.952   9.580  18.997  0.00  0.00    +0.000 A 
ATOM     15 CL   UNL     1       1.788   8.885  17.656  0.00  0.00    +0.000 Cl
ENDBRANCH   7   8
ENDBRANCH   4   6
ENDBRANCH   1   3
BRANCH   1  16
ATOM     16  N   UNL     1       3.301   2.591  19.789  0.00  0.00    +0.000 N 
ATOM     17  H   UNL     1       3.829   1.763  20.073  0.00  0.00    +0.000 HD
BRANCH  16  18
ATOM     18  C   UNL     1       4.054   3.308  18.840  0.00  0.00    +0.000 A 
ATOM     19  C   UNL     1       5.214   4.034  19.143  0.00  0.00    +0.000 A 
ATOM     20  C   UNL     1       5.913   4.729  18.149  0.00  0.00    +0.000 A 
ATOM     21  C   UNL     1       5.447   4.740  16.840  0.00  0.00    +0.000 A 
ATOM     22  C   UNL     1       4.241   4.106  16.540  0.00  0.00    +0.000 A 
ATOM     23  C   UNL     1       3.570   3.374  17.527  0.00  0.00    +0.000 A 
BRANCH  21  24
ATOM     24  O   UNL     1       6.201   5.455  15.940  0.00  0.00    +0.000 OA
BRANCH  24  25
ATOM     25  C   UNL     1       6.429   4.956  14.677  0.00  0.00    +0.000 A 
ATOM     26  C   UNL     1       5.461   4.076  14.185  0.00  0.00    +0.000 A 
ATOM     27  C   UNL     1       5.609   3.504  12.922  0.00  0.00    +0.000 A 
ATOM     28  C   UNL     1       6.726   3.809  12.144  0.00  0.00    +0.000 A 
ATOM     29  C   UNL     1       7.674   4.716  12.614  0.00  0.00    +0.000 A 
ATOM     30  C   UNL     1       7.509   5.314  13.865  0.00  0.00    +0.000 A 
ENDBRANCH  24  25
ENDBRANCH  21  24
ENDBRANCH  16  18
ENDBRANCH   1  16
TORSDOF 7
ENDMDL
MODEL 4
REMARK VINA RESULT:      -7.5      8.936     10.963
REMARK  Name = 
REMARK  7 active torsions:
REMARK  status: ('A' for Active; 'I' for Inactive)
REMARK    1  A    between atoms: C_2  and  C_3
REMARK    2  A    between atoms: C_3  and  N_4
REMARK    3  A    between atoms: N_4  and  C_5
REMARK    4  A    between atoms: C_8  and  O_9
REMARK    5  A    between atoms: O_9  and  C_10
REMARK    6  A    between atoms: N_18  and  N_19
REMARK    7  A    between atoms: C_20  and  C_21
REMARK                            x       y       z     vdW  Elec       q    Type
REMARK                         _______ _______ _______ _____ _____    ______ ____
ROOT
ATOM      1  C   UNL     1       0.198  12.317  19.407  0.00  0.00    +0.000 C 
ENDROOT
BRANCH   1   3
ATOM      2  O   UNL     1      -0.849  12.405  21.572  0.00  0.00    +0.000 OA
ATOM      3  C   UNL     1      -0.966  12.575  20.358  0.00  0.00    +0.000 C 
ATOM      4  N   UNL     1      -2.098  13.059  19.719  0.00  0.00    +0.000 N 
ATOM      5  H   UNL     1      -2.062  13.220  18.718  0.00  0.00    +0.000 HD
BRANCH   4   6
ATOM      6  N   UNL     1      -3.189  13.388  20.458  0.00  0.00    +0.000 NA
ATOM      7  C   UNL     1      -4.108  12.487  20.571  0.00  0.00    +0.000 C 
BRANCH   7   8
ATOM      8  C   UNL     1      -5.345  12.743  21.343  0.00  0.00    +0.000 A 
ATOM      9  C   UNL     1      -6.596  12.883  20.727  0.00  0.00    +0.000 A 
ATOM     10 CL   UNL     1      -6.901  12.660  19.045  0.00  0.00    +0.000 Cl
ATOM     11  C   UNL     1      -7.694  13.152  21.536  0.00  0.00    +0.000 A 
ATOM     12  N   UNL     1      -7.638  13.275  22.883  0.00  0.00    +0.000 NA
ATOM     13  C   UNL     1      -6.421  13.119  23.450  0.00  0.00    +0.000 A 
ATOM     14  C   UNL     1      -5.259  12.853  22.737  0.00  0.00    +0.000 A 
ATOM     15 CL   UNL     1      -3.783  12.705  23.620  0.00  0.00    +0.000 Cl
ENDBRANCH   7   8
ENDBRANCH   4   6
ENDBRANCH   1   3
BRANCH   1  16
ATOM     16  N   UNL     1      -0.041  11.145  18.541  0.00  0.00    +0.000 N 
ATOM     17  H   UNL     1      -1.037  10.921  18.479  0.00  0.00    +0.000 HD
BRANCH  16  18
ATOM     18  C   UNL     1       0.673   9.969  18.835  0.00  0.00    +0.000 A 
ATOM     19  C   UNL     1       0.749   9.393  20.110  0.00  0.00    +0.000 A 
ATOM     20  C   UNL     1       1.482   8.222  20.333  0.00  0.00    +0.000 A 
ATOM     21  C   UNL     1       2.183   7.623  19.293  0.00  0.00    +0.000 A 
ATOM     22  C   UNL     1       2.201   8.237  18.041  0.00  0.00    +0.000 A 
ATOM     23  C   UNL     1       1.428   9.382  17.811  0.00  0.00    +0.000 A 
BRANCH  21  24
ATOM     24  O   UNL     1       2.877   6.481  19.615  0.00  0.00    +0.000 OA
BRANCH  24  25
ATOM     25  C   UNL     1       2.245   5.258  19.592  0.00  0.00    +0.000 A 
ATOM     26  C   UNL     1       2.175   4.632  18.344  0.00  0.00    +0.000 A 
ATOM     27  C   UNL     1       1.540   3.396  18.213  0.00  0.00    +0.000 A 
ATOM     28  C   UNL     1       0.973   2.781  19.330  0.00  0.00    +0.000 A 
ATOM     29  C   UNL     1       1.076   3.383  20.582  0.00  0.00    +0.000 A 
ATOM     30  C   UNL     1       1.739   4.603  20.718  0.00  0.00    +0.000 A 
ENDBRANCH  24  25
ENDBRANCH  21  24
ENDBRANCH  16  18
ENDBRANCH   1  16
TORSDOF 7
ENDMDL
MODEL 5
REMARK VINA RESULT:      -7.5      1.692      2.315
REMARK  Name = 
REMARK  7 active torsions:
REMARK  status: ('A' for Active; 'I' for Inactive)
REMARK    1  A    between atoms: C_2  and  C_3
REMARK    2  A    between atoms: C_3  and  N_4
REMARK    3  A    between atoms: N_4  and  C_5
REMARK    4  A    between atoms: C_8  and  O_9
REMARK    5  A    between atoms: O_9  and  C_10
REMARK    6  A    between atoms: N_18  and  N_19
REMARK    7  A    between atoms: C_20  and  C_21
REMARK                            x       y       z     vdW  Elec       q    Type
REMARK                         _______ _______ _______ _____ _____    ______ ____
ROOT
ATOM      1  C   UNL     1       8.422   9.433  18.019  0.00  0.00    +0.000 C 
ENDROOT
BRANCH   1   3
ATOM      2  O   UNL     1      10.099  11.148  17.825  0.00  0.00    +0.000 OA
ATOM      3  C   UNL     1       9.313  10.547  18.558  0.00  0.00    +0.000 C 
ATOM      4  N   UNL     1       9.093  10.824  19.899  0.00  0.00    +0.000 N 
ATOM      5  H   UNL     1       8.373  10.304  20.393  0.00  0.00    +0.000 HD
BRANCH   4   6
ATOM      6  N   UNL     1       9.779  11.835  20.491  0.00  0.00    +0.000 NA
ATOM      7  C   UNL     1       9.230  13.004  20.463  0.00  0.00    +0.000 C 
BRANCH   7   8
ATOM      8  C   UNL     1       9.896  14.180  21.068  0.00  0.00    +0.000 A 
ATOM      9  C   UNL     1       9.586  14.635  22.358  0.00  0.00    +0.000 A 
ATOM     10 CL   UNL     1       8.511  13.848  23.452  0.00  0.00    +0.000 Cl
ATOM     11  C   UNL     1      10.245  15.767  22.825  0.00  0.00    +0.000 A 
ATOM     12  N   UNL     1      11.177  16.452  22.123  0.00  0.00    +0.000 NA
ATOM     13  C   UNL     1      11.467  15.981  20.889  0.00  0.00    +0.000 A 
ATOM     14  C   UNL     1      10.867  14.864  20.323  0.00  0.00    +0.000 A 
ATOM     15 CL   UNL     1      11.340  14.412  18.726  0.00  0.00    +0.000 Cl
ENDBRANCH   7   8
ENDBRANCH   4   6
ENDBRANCH   1   3
BRANCH   1  16
ATOM     16  N   UNL     1       8.613   8.165  18.750  0.00  0.00    +0.000 N 
ATOM     17  H   UNL     1       9.594   7.875  18.747  0.00  0.00    +0.000 HD
BRANCH  16  18
ATOM     18  C   UNL     1       7.814   7.072  18.366  0.00  0.00    +0.000 A 
ATOM     19  C   UNL     1       7.716   5.877  19.091  0.00  0.00    +0.000 A 
ATOM     20  C   UNL     1       6.904   4.827  18.648  0.00  0.00    +0.000 A 
ATOM     21  C   UNL     1       6.202   4.937  17.453  0.00  0.00    +0.000 A 
ATOM     22  C   UNL     1       6.367   6.078  16.668  0.00  0.00    +0.000 A 
ATOM     23  C   UNL     1       7.143   7.145  17.138  0.00  0.00    +0.000 A 
BRANCH  21  24
ATOM     24  O   UNL     1       5.438   3.849  17.102  0.00  0.00    +0.000 OA
BRANCH  24  25
ATOM     25  C   UNL     1       4.114   3.784  17.474  0.00  0.00    +0.000 A 
ATOM     26  C   UNL     1       3.619   2.505  17.744  0.00  0.00    +0.000 A 
ATOM     27  C   UNL     1       2.285   2.332  18.114  0.00  0.00    +0.000 A 
ATOM     28  C   UNL     1       1.441   3.438  18.216  0.00  0.00    +0.000 A 
ATOM     29  C   UNL     1       1.940   4.718  17.987  0.00  0.00    +0.000 A 
ATOM     30  C   UNL     1       3.283   4.894  17.649  0.00  0.00    +0.000 A 
ENDBRANCH  24  25
ENDBRANCH  21  24
ENDBRANCH  16  18
ENDBRANCH   1  16
TORSDOF 7
ENDMDL
MODEL 6
REMARK VINA RESULT:      -7.5      7.925     10.465
REMARK  Name = 
REMARK  7 active torsions:
REMARK  status: ('A' for Active; 'I' for Inactive)
REMARK    1  A    between atoms: C_2  and  C_3
REMARK    2  A    between atoms: C_3  and  N_4
REMARK    3  A    between atoms: N_4  and  C_5
REMARK    4  A    between atoms: C_8  and  O_9
REMARK    5  A    between atoms: O_9  and  C_10
REMARK    6  A    between atoms: N_18  and  N_19
REMARK    7  A    between atoms: C_20  and  C_21
REMARK                            x       y       z     vdW  Elec       q    Type
REMARK                         _______ _______ _______ _____ _____    ______ ____
ROOT
ATOM      1  C   UNL     1       0.552  10.435  18.542  0.00  0.00    +0.000 C 
ENDROOT
BRANCH   1   3
ATOM      2  O   UNL     1       1.427   8.944  20.216  0.00  0.00    +0.000 OA
ATOM      3  C   UNL     1       1.459   9.315  19.042  0.00  0.00    +0.000 C 
ATOM      4  N   UNL     1       2.242   8.757  18.043  0.00  0.00    +0.000 N 
ATOM      5  H   UNL     1       2.142   9.103  17.094  0.00  0.00    +0.000 HD
BRANCH   4   6
ATOM      6  N   UNL     1       3.053   7.709  18.341  0.00  0.00    +0.000 NA
ATOM      7  C   UNL     1       2.487   6.557  18.483  0.00  0.00    +0.000 C 
BRANCH   7   8
ATOM      8  C   UNL     1       3.275   5.350  18.820  0.00  0.00    +0.000 A 
ATOM      9  C   UNL     1       4.548   5.113  18.282  0.00  0.00    +0.000 A 
ATOM     10 CL   UNL     1       5.418   6.212  17.279  0.00  0.00    +0.000 Cl
ATOM     11  C   UNL     1       5.196   3.935  18.636  0.00  0.00    +0.000 A 
ATOM     12  N   UNL     1       4.685   3.006  19.478  0.00  0.00    +0.000 NA
ATOM     13  C   UNL     1       3.464   3.270  19.994  0.00  0.00    +0.000 A 
ATOM     14  C   UNL     1       2.727   4.411  19.704  0.00  0.00    +0.000 A 
ATOM     15 CL   UNL     1       1.172   4.579  20.435  0.00  0.00    +0.000 Cl
ENDBRANCH   7   8
ENDBRANCH   4   6
ENDBRANCH   1   3
BRANCH   1  16
ATOM     16  N   UNL     1      -0.333   9.987  17.449  0.00  0.00    +0.000 N 
ATOM     17  H   UNL     1       0.045  10.236  16.533  0.00  0.00    +0.000 HD
BRANCH  16  18
ATOM     18  C   UNL     1      -1.682  10.385  17.507  0.00  0.00    +0.000 A 
ATOM     19  C   UNL     1      -2.225  11.175  18.530  0.00  0.00    +0.000 A 
ATOM     20  C   UNL     1      -3.579  11.530  18.528  0.00  0.00    +0.000 A 
ATOM     21  C   UNL     1      -4.424  11.074  17.522  0.00  0.00    +0.000 A 
ATOM     22  C   UNL     1      -3.923  10.205  16.553  0.00  0.00    +0.000 A 
ATOM     23  C   UNL     1      -2.559   9.890  16.532  0.00  0.00    +0.000 A 
BRANCH  21  24
ATOM     24  O   UNL     1      -5.736  11.473  17.613  0.00  0.00    +0.000 OA
BRANCH  24  25
ATOM     25  C   UNL     1      -6.460  11.216  18.756  0.00  0.00    +0.000 A 
ATOM     26  C   UNL     1      -6.886  12.339  19.473  0.00  0.00    +0.000 A 
ATOM     27  C   UNL     1      -7.612  12.183  20.653  0.00  0.00    +0.000 A 
ATOM     28  C   UNL     1      -7.916  10.905  21.122  0.00  0.00    +0.000 A 
ATOM     29  C   UNL     1      -7.528   9.785  20.390  0.00  0.00    +0.000 A 
ATOM     30  C   UNL     1      -6.830   9.941  19.192  0.00  0.00    +0.000 A 
ENDBRANCH  24  25
ENDBRANCH  21  24
ENDBRANCH  16  18
ENDBRANCH   1  16
TORSDOF 7
ENDMDL
MODEL 7
REMARK VINA RESULT:      -7.5      6.380      8.512
REMARK  Name = 
REMARK  7 active torsions:
REMARK  status: ('A' for Active; 'I' for Inactive)
REMARK    1  A    between atoms: C_2  and  C_3
REMARK    2  A    between atoms: C_3  and  N_4
REMARK    3  A    between atoms: N_4  and  C_5
REMARK    4  A    between atoms: C_8  and  O_9
REMARK    5  A    between atoms: O_9  and  C_10
REMARK    6  A    between atoms: N_18  and  N_19
REMARK    7  A    between atoms: C_20  and  C_21
REMARK                            x       y       z     vdW  Elec       q    Type
REMARK                         _______ _______ _______ _____ _____    ______ ____
ROOT
ATOM      1  C   UNL     1       2.499   5.768  19.507  0.00  0.00    +0.000 C 
ENDROOT
BRANCH   1   3
ATOM      2  O   UNL     1       1.308   6.814  21.317  0.00  0.00    +0.000 OA
ATOM      3  C   UNL     1       1.837   6.946  20.213  0.00  0.00    +0.000 C 
ATOM      4  N   UNL     1       1.953   8.139  19.515  0.00  0.00    +0.000 N 
ATOM      5  H   UNL     1       2.465   8.143  18.638  0.00  0.00    +0.000 HD
BRANCH   4   6
ATOM      6  N   UNL     1       1.458   9.280  20.060  0.00  0.00    +0.000 NA
ATOM      7  C   UNL     1       0.205   9.278  20.376  0.00  0.00    +0.000 C 
BRANCH   7   8
ATOM      8  C   UNL     1      -0.441  10.472  20.966  0.00  0.00    +0.000 A 
ATOM      9  C   UNL     1      -0.580  10.640  22.351  0.00  0.00    +0.000 A 
ATOM     10 CL   UNL     1       0.070   9.581  23.546  0.00  0.00    +0.000 Cl
ATOM     11  C   UNL     1      -1.228  11.783  22.806  0.00  0.00    +0.000 A 
ATOM     12  N   UNL     1      -1.723  12.752  22.001  0.00  0.00    +0.000 NA
ATOM     13  C   UNL     1      -1.560  12.570  20.672  0.00  0.00    +0.000 A 
ATOM     14  C   UNL     1      -0.933  11.466  20.109  0.00  0.00    +0.000 A 
ATOM     15 CL   UNL     1      -0.830  11.383  18.388  0.00  0.00    +0.000 Cl
ENDBRANCH   7   8
ENDBRANCH   4   6
ENDBRANCH   1   3
BRANCH   1  16
ATOM     16  N   UNL     1       3.944   5.685  19.798  0.00  0.00    +0.000 N 
ATOM     17  H   UNL     1       4.241   6.425  20.438  0.00  0.00    +0.000 HD
BRANCH  16  18
ATOM     18  C   UNL     1       4.824   5.654  18.700  0.00  0.00    +0.000 A 
ATOM     19  C   UNL     1       5.971   4.852  18.634  0.00  0.00    +0.000 A 
ATOM     20  C   UNL     1       6.805   4.873  17.510  0.00  0.00    +0.000 A 
ATOM     21  C   UNL     1       6.528   5.723  16.445  0.00  0.00    +0.000 A 
ATOM     22  C   UNL     1       5.448   6.601  16.537  0.00  0.00    +0.000 A 
ATOM     23  C   UNL     1       4.590   6.542  17.642  0.00  0.00    +0.000 A 
BRANCH  21  24
ATOM     24  O   UNL     1       7.411   5.675  15.392  0.00  0.00    +0.000 OA
BRANCH  24  25
ATOM     25  C   UNL     1       7.088   4.976  14.251  0.00  0.00    +0.000 A 
ATOM     26  C   UNL     1       7.860   5.263  13.122  0.00  0.00    +0.000 A 
ATOM     27  C   UNL     1       7.601   4.618  11.912  0.00  0.00    +0.000 A 
ATOM     28  C   UNL     1       6.569   3.684  11.826  0.00  0.00    +0.000 A 
ATOM     29  C   UNL     1       5.823   3.366  12.959  0.00  0.00    +0.000 A 
ATOM     30  C   UNL     1       6.104   3.986  14.177  0.00  0.00    +0.000 A 
ENDBRANCH  24  25
ENDBRANCH  21  24
ENDBRANCH  16  18
ENDBRANCH   1  16
TORSDOF 7
ENDMDL
MODEL 8
REMARK VINA RESULT:      -7.4      2.552      3.432
REMARK  Name = 
REMARK  7 active torsions:
REMARK  status: ('A' for Active; 'I' for Inactive)
REMARK    1  A    between atoms: C_2  and  C_3
REMARK    2  A    between atoms: C_3  and  N_4
REMARK    3  A    between atoms: N_4  and  C_5
REMARK    4  A    between atoms: C_8  and  O_9
REMARK    5  A    between atoms: O_9  and  C_10
REMARK    6  A    between atoms: N_18  and  N_19
REMARK    7  A    between atoms: C_20  and  C_21
REMARK                            x       y       z     vdW  Elec       q    Type
REMARK                         _______ _______ _______ _____ _____    ______ ____
ROOT
ATOM      1  C   UNL     1       8.576   9.294  18.542  0.00  0.00    +0.000 C 
ENDROOT
BRANCH   1   3
ATOM      2  O   UNL     1      10.371  10.872  18.261  0.00  0.00    +0.000 OA
ATOM      3  C   UNL     1       9.158  10.666  18.220  0.00  0.00    +0.000 C 
ATOM      4  N   UNL     1       8.199  11.591  17.837  0.00  0.00    +0.000 N 
ATOM      5  H   UNL     1       7.230  11.294  17.779  0.00  0.00    +0.000 HD
BRANCH   4   6
ATOM      6  N   UNL     1       8.588  12.838  17.465  0.00  0.00    +0.000 NA
ATOM      7  C   UNL     1       8.748  13.704  18.410  0.00  0.00    +0.000 C 
BRANCH   7   8
ATOM      8  C   UNL     1       9.158  15.095  18.116  0.00  0.00    +0.000 A 
ATOM      9  C   UNL     1      10.380  15.401  17.500  0.00  0.00    +0.000 A 
ATOM     10 CL   UNL     1      11.499  14.239  16.893  0.00  0.00    +0.000 Cl
ATOM     11  C   UNL     1      10.688  16.741  17.294  0.00  0.00    +0.000 A 
ATOM     12  N   UNL     1       9.881  17.771  17.637  0.00  0.00    +0.000 NA
ATOM     13  C   UNL     1       8.703  17.446  18.215  0.00  0.00    +0.000 A 
ATOM     14  C   UNL     1       8.297  16.142  18.471  0.00  0.00    +0.000 A 
ATOM     15 CL   UNL     1       6.768  15.906  19.237  0.00  0.00    +0.000 Cl
ENDBRANCH   7   8
ENDBRANCH   4   6
ENDBRANCH   1   3
BRANCH   1  16
ATOM     16  N   UNL     1       7.963   8.658  17.359  0.00  0.00    +0.000 N 
ATOM     17  H   UNL     1       7.372   9.314  16.844  0.00  0.00    +0.000 HD
BRANCH  16  18
ATOM     18  C   UNL     1       7.245   7.465  17.568  0.00  0.00    +0.000 A 
ATOM     19  C   UNL     1       6.010   7.177  16.971  0.00  0.00    +0.000 A 
ATOM     20  C   UNL     1       5.347   5.971  17.226  0.00  0.00    +0.000 A 
ATOM     21  C   UNL     1       5.889   5.045  18.111  0.00  0.00    +0.000 A 
ATOM     22  C   UNL     1       7.065   5.359  18.790  0.00  0.00    +0.000 A 
ATOM     23  C   UNL     1       7.749   6.545  18.496  0.00  0.00    +0.000 A 
BRANCH  21  24
ATOM     24  O   UNL     1       5.158   3.895  18.298  0.00  0.00    +0.000 OA
BRANCH  24  25
ATOM     25  C   UNL     1       3.838   3.969  18.681  0.00  0.00    +0.000 A 
ATOM     26  C   UNL     1       3.592   4.600  19.905  0.00  0.00    +0.000 A 
ATOM     27  C   UNL     1       2.288   4.711  20.387  0.00  0.00    +0.000 A 
ATOM     28  C   UNL     1       1.224   4.192  19.649  0.00  0.00    +0.000 A 
ATOM     29  C   UNL     1       1.461   3.599  18.411  0.00  0.00    +0.000 A 
ATOM     30  C   UNL     1       2.762   3.517  17.913  0.00  0.00    +0.000 A 
ENDBRANCH  24  25
ENDBRANCH  21  24
ENDBRANCH  16  18
ENDBRANCH   1  16
TORSDOF 7
ENDMDL
MODEL 9
REMARK VINA RESULT:      -7.4      1.123      1.373
REMARK  Name = 
REMARK  7 active torsions:
REMARK  status: ('A' for Active; 'I' for Inactive)
REMARK    1  A    between atoms: C_2  and  C_3
REMARK    2  A    between atoms: C_3  and  N_4
REMARK    3  A    between atoms: N_4  and  C_5
REMARK    4  A    between atoms: C_8  and  O_9
REMARK    5  A    between atoms: O_9  and  C_10
REMARK    6  A    between atoms: N_18  and  N_19
REMARK    7  A    between atoms: C_20  and  C_21
REMARK                            x       y       z     vdW  Elec       q    Type
REMARK                         _______ _______ _______ _____ _____    ______ ____
ROOT
ATOM      1  C   UNL     1       8.376   7.914  18.319  0.00  0.00    +0.000 C 
ENDROOT
BRANCH   1   3
ATOM      2  O   UNL     1       7.639  10.076  17.561  0.00  0.00    +0.000 OA
ATOM      3  C   UNL     1       8.469   9.432  18.203  0.00  0.00    +0.000 C 
ATOM      4  N   UNL     1       9.522   9.973  18.926  0.00  0.00    +0.000 N 
ATOM      5  H   UNL     1      10.110   9.350  19.470  0.00  0.00    +0.000 HD
BRANCH   4   6
ATOM      6  N   UNL     1       9.684  11.321  18.957  0.00  0.00    +0.000 NA
ATOM      7  C   UNL     1      10.648  11.774  19.688  0.00  0.00    +0.000 C 
BRANCH   7   8
ATOM      8  C   UNL     1      10.907  13.227  19.803  0.00  0.00    +0.000 A 
ATOM      9  C   UNL     1      10.421  13.991  20.874  0.00  0.00    +0.000 A 
ATOM     10 CL   UNL     1       9.584  13.358  22.241  0.00  0.00    +0.000 Cl
ATOM     11  C   UNL     1      10.693  15.355  20.877  0.00  0.00    +0.000 A 
ATOM     12  N   UNL     1      11.407  15.993  19.921  0.00  0.00    +0.000 NA
ATOM     13  C   UNL     1      11.876  15.228  18.910  0.00  0.00    +0.000 A 
ATOM     14  C   UNL     1      11.661  13.860  18.805  0.00  0.00    +0.000 A 
ATOM     15 CL   UNL     1      12.314  13.039  17.435  0.00  0.00    +0.000 Cl
ENDBRANCH   7   8
ENDBRANCH   4   6
ENDBRANCH   1   3
BRANCH   1  16
ATOM     16  N   UNL     1       7.869   7.292  17.080  0.00  0.00    +0.000 N 
ATOM     17  H   UNL     1       7.565   7.995  16.404  0.00  0.00    +0.000 HD
BRANCH  16  18
ATOM     18  C   UNL     1       6.857   6.322  17.213  0.00  0.00    +0.000 A 
ATOM     19  C   UNL     1       6.849   5.324  18.197  0.00  0.00    +0.000 A 
ATOM     20  C   UNL     1       5.812   4.387  18.268  0.00  0.00    +0.000 A 
ATOM     21  C   UNL     1       4.781   4.408  17.336  0.00  0.00    +0.000 A 
ATOM     22  C   UNL     1       4.826   5.330  16.290  0.00  0.00    +0.000 A 
ATOM     23  C   UNL     1       5.840   6.295  16.250  0.00  0.00    +0.000 A 
BRANCH  21  24
ATOM     24  O   UNL     1       3.814   3.442  17.488  0.00  0.00    +0.000 OA
BRANCH  24  25
ATOM     25  C   UNL     1       2.930   3.509  18.541  0.00  0.00    +0.000 A 
ATOM     26  C   UNL     1       2.727   2.317  19.243  0.00  0.00    +0.000 A 
ATOM     27  C   UNL     1       1.837   2.277  20.317  0.00  0.00    +0.000 A 
ATOM     28  C   UNL     1       1.147   3.429  20.694  0.00  0.00    +0.000 A 
ATOM     29  C   UNL     1       1.376   4.628  20.023  0.00  0.00    +0.000 A 
ATOM     30  C   UNL     1       2.290   4.676  18.969  0.00  0.00    +0.000 A 
ENDBRANCH  24  25
ENDBRANCH  21  24
ENDBRANCH  16  18
ENDBRANCH   1  16
TORSDOF 7
ENDMDL
