MODEL 1
REMARK VINA RESULT:      -8.7      0.000      0.000
REMARK  Name = 
REMARK  9 active torsions:
REMARK  status: ('A' for Active; 'I' for Inactive)
REMARK    1  A    between atoms: C_2  and  C_3
REMARK    2  A    between atoms: N_5  and  C_6
REMARK    3  A    between atoms: C_10  and  N_11
REMARK    4  A    between atoms: N_11  and  C_12
REMARK    5  A    between atoms: N_15  and  C_16
REMARK    6  A    between atoms: C_19  and  O_20
REMARK    7  A    between atoms: O_20  and  C_21
REMARK    8  A    between atoms: C_21  and  C_22
REMARK    9  A    between atoms: C_22  and  N_23
REMARK                            x       y       z     vdW  Elec       q    Type
REMARK                         _______ _______ _______ _____ _____    ______ ____
ROOT
ATOM      1  C   UNL     1       3.999   4.615  19.589  0.00  0.00    +0.000 A 
ATOM      2  N   UNL     1       3.620   5.879  19.272  0.00  0.00    +0.000 NA
ATOM      3  C   UNL     1       2.458   6.338  19.748  0.00  0.00    +0.000 A 
ATOM      4  N   UNL     1       2.100   7.644  19.408  0.00  0.00    +0.000 N 
ATOM      5  N   UNL     1       1.639   5.600  20.513  0.00  0.00    +0.000 NA
ATOM      6  C   UNL     1       2.003   4.329  20.767  0.00  0.00    +0.000 A 
ATOM      7  C   UNL     1       3.172   3.773  20.318  0.00  0.00    +0.000 A 
ATOM      8 CL   UNL     1       3.581   2.152  20.712  0.00  0.00    +0.000 Cl
ATOM      9  H   UNL     1       2.761   8.028  18.745  0.00  0.00    +0.000 HD
ENDROOT
BRANCH   4  10
ATOM     10  C   UNL     1       1.461   8.585  20.231  0.00  0.00    +0.000 A 
ATOM     11  C   UNL     1       0.854   9.726  19.702  0.00  0.00    +0.000 A 
ATOM     12  C   UNL     1       0.268  10.685  20.524  0.00  0.00    +0.000 A 
ATOM     13  C   UNL     1       0.279  10.537  21.911  0.00  0.00    +0.000 A 
ATOM     14  C   UNL     1       0.880   9.401  22.458  0.00  0.00    +0.000 A 
ATOM     15  C   UNL     1       1.458   8.428  21.622  0.00  0.00    +0.000 A 
BRANCH  13  16
ATOM     16  O   UNL     1      -0.267  11.440  22.796  0.00  0.00    +0.000 OA
BRANCH  16  17
ATOM     17  C   UNL     1      -1.696  11.388  22.874  0.00  0.00    +0.000 C 
BRANCH  17  18
ATOM     18  C   UNL     1      -2.281  12.666  23.457  0.00  0.00    +0.000 C 
BRANCH  18  19
ATOM     19  N   UNL     1      -3.728  12.649  23.348  0.00  0.00    +0.000 N 
ATOM     20  C   UNL     1      -4.620  12.764  24.377  0.00  0.00    +0.000 A 
ATOM     21  C   UNL     1      -5.856  12.771  23.774  0.00  0.00    +0.000 A 
ATOM     22  N   UNL     1      -5.733  12.677  22.413  0.00  0.00    +0.000 NA
ATOM     23  C   UNL     1      -4.441  12.602  22.184  0.00  0.00    +0.000 A 
ENDBRANCH  18  19
ENDBRANCH  17  18
ENDBRANCH  16  17
ENDBRANCH  13  16
ENDBRANCH   4  10
BRANCH   1  24
ATOM     24  N   UNL     1       5.231   4.129  19.076  0.00  0.00    +0.000 N 
ATOM     25  H   UNL     1       5.941   4.103  19.805  0.00  0.00    +0.000 HD
BRANCH  24  30
ATOM     26  C   UNL     1       5.984   4.463  15.417  0.00  0.00    +0.000 A 
ATOM     27  C   UNL     1       6.973   5.442  15.477  0.00  0.00    +0.000 A 
ATOM     28  C   UNL     1       7.347   6.007  16.697  0.00  0.00    +0.000 A 
ATOM     29  C   UNL     1       6.751   5.576  17.879  0.00  0.00    +0.000 A 
ATOM     30  C   UNL     1       5.809   4.546  17.855  0.00  0.00    +0.000 A 
ATOM     31  C   UNL     1       5.400   4.026  16.614  0.00  0.00    +0.000 A 
BRANCH  26  34
ATOM     32  C   UNL     1       6.243   3.851  13.019  0.00  0.00    +0.000 C 
ATOM     33  O   UNL     1       7.288   4.435  12.771  0.00  0.00    +0.000 OA
ATOM     34  N   UNL     1       5.553   3.863  14.213  0.00  0.00    +0.000 N 
ATOM     35  H   UNL     1       4.637   3.426  14.238  0.00  0.00    +0.000 HD
BRANCH  32  37
ATOM     36  C   UNL     1       4.290   3.322  11.648  0.00  0.00    +0.000 C 
ATOM     37  C   UNL     1       5.561   3.042  11.969  0.00  0.00    +0.000 C 
ENDBRANCH  32  37
ENDBRANCH  26  34
ENDBRANCH  24  30
ENDBRANCH   1  24
TORSDOF 9
ENDMDL
MODEL 2
REMARK VINA RESULT:      -8.7      5.820     10.503
REMARK  Name = 
REMARK  9 active torsions:
REMARK  status: ('A' for Active; 'I' for Inactive)
REMARK    1  A    between atoms: C_2  and  C_3
REMARK    2  A    between atoms: N_5  and  C_6
REMARK    3  A    between atoms: C_10  and  N_11
REMARK    4  A    between atoms: N_11  and  C_12
REMARK    5  A    between atoms: N_15  and  C_16
REMARK    6  A    between atoms: C_19  and  O_20
REMARK    7  A    between atoms: O_20  and  C_21
REMARK    8  A    between atoms: C_21  and  C_22
REMARK    9  A    between atoms: C_22  and  N_23
REMARK                            x       y       z     vdW  Elec       q    Type
REMARK                         _______ _______ _______ _____ _____    ______ ____
ROOT
ATOM      1  C   UNL     1       8.816  12.235  18.197  0.00  0.00    +0.000 A 
ATOM      2  N   UNL     1       8.412  11.139  17.505  0.00  0.00    +0.000 NA
ATOM      3  C   UNL     1       8.580   9.935  18.060  0.00  0.00    +0.000 A 
ATOM      4  N   UNL     1       8.150   8.827  17.326  0.00  0.00    +0.000 N 
ATOM      5  N   UNL     1       9.145   9.757  19.265  0.00  0.00    +0.000 NA
ATOM      6  C   UNL     1       9.593  10.851  19.909  0.00  0.00    +0.000 A 
ATOM      7  C   UNL     1       9.468  12.123  19.415  0.00  0.00    +0.000 A 
ATOM      8 CL   UNL     1      10.037  13.473  20.312  0.00  0.00    +0.000 Cl
ATOM      9  H   UNL     1       7.849   9.114  16.403  0.00  0.00    +0.000 HD
ENDROOT
BRANCH   4  10
ATOM     10  C   UNL     1       7.529   7.671  17.828  0.00  0.00    +0.000 A 
ATOM     11  C   UNL     1       8.165   6.848  18.760  0.00  0.00    +0.000 A 
ATOM     12  C   UNL     1       7.572   5.674  19.215  0.00  0.00    +0.000 A 
ATOM     13  C   UNL     1       6.320   5.279  18.745  0.00  0.00    +0.000 A 
ATOM     14  C   UNL     1       5.669   6.091  17.813  0.00  0.00    +0.000 A 
ATOM     15  C   UNL     1       6.266   7.284  17.366  0.00  0.00    +0.000 A 
BRANCH  13  16
ATOM     16  O   UNL     1       5.667   4.130  19.133  0.00  0.00    +0.000 OA
BRANCH  16  17
ATOM     17  C   UNL     1       4.598   3.745  18.261  0.00  0.00    +0.000 C 
BRANCH  17  18
ATOM     18  C   UNL     1       3.864   2.514  18.771  0.00  0.00    +0.000 C 
BRANCH  18  19
ATOM     19  N   UNL     1       2.950   2.883  19.836  0.00  0.00    +0.000 N 
ATOM     20  C   UNL     1       1.742   3.505  19.688  0.00  0.00    +0.000 A 
ATOM     21  C   UNL     1       1.219   3.569  20.959  0.00  0.00    +0.000 A 
ATOM     22  N   UNL     1       2.071   2.992  21.864  0.00  0.00    +0.000 NA
ATOM     23  C   UNL     1       3.106   2.589  21.160  0.00  0.00    +0.000 A 
ENDBRANCH  18  19
ENDBRANCH  17  18
ENDBRANCH  16  17
ENDBRANCH  13  16
ENDBRANCH   4  10
BRANCH   1  24
ATOM     24  N   UNL     1       8.641  13.513  17.600  0.00  0.00    +0.000 N 
ATOM     25  H   UNL     1       9.521  14.024  17.577  0.00  0.00    +0.000 HD
BRANCH  24  30
ATOM     26  C   UNL     1       5.195  14.909  18.092  0.00  0.00    +0.000 A 
ATOM     27  C   UNL     1       5.528  16.186  18.539  0.00  0.00    +0.000 A 
ATOM     28  C   UNL     1       6.862  16.556  18.713  0.00  0.00    +0.000 A 
ATOM     29  C   UNL     1       7.882  15.658  18.415  0.00  0.00    +0.000 A 
ATOM     30  C   UNL     1       7.578  14.396  17.899  0.00  0.00    +0.000 A 
ATOM     31  C   UNL     1       6.230  14.016  17.782  0.00  0.00    +0.000 A 
BRANCH  26  34
ATOM     32  C   UNL     1       3.010  14.034  18.899  0.00  0.00    +0.000 C 
ATOM     33  O   UNL     1       3.283  13.860  20.079  0.00  0.00    +0.000 OA
ATOM     34  N   UNL     1       3.865  14.469  17.908  0.00  0.00    +0.000 N 
ATOM     35  H   UNL     1       3.531  14.455  16.951  0.00  0.00    +0.000 HD
BRANCH  32  37
ATOM     36  C   UNL     1       0.603  14.457  18.845  0.00  0.00    +0.000 C 
ATOM     37  C   UNL     1       1.641  13.742  18.388  0.00  0.00    +0.000 C 
ENDBRANCH  32  37
ENDBRANCH  26  34
ENDBRANCH  24  30
ENDBRANCH   1  24
TORSDOF 9
ENDMDL
MODEL 3
REMARK VINA RESULT:      -8.7      6.130      9.680
REMARK  Name = 
REMARK  9 active torsions:
REMARK  status: ('A' for Active; 'I' for Inactive)
REMARK    1  A    between atoms: C_2  and  C_3
REMARK    2  A    between atoms: N_5  and  C_6
REMARK    3  A    between atoms: C_10  and  N_11
REMARK    4  A    between atoms: N_11  and  C_12
REMARK    5  A    between atoms: N_15  and  C_16
REMARK    6  A    between atoms: C_19  and  O_20
REMARK    7  A    between atoms: O_20  and  C_21
REMARK    8  A    between atoms: C_21  and  C_22
REMARK    9  A    between atoms: C_22  and  N_23
REMARK                            x       y       z     vdW  Elec       q    Type
REMARK                         _______ _______ _______ _____ _____    ______ ____
ROOT
ATOM      1  C   UNL     1       6.336   4.973  18.250  0.00  0.00    +0.000 A 
ATOM      2  N   UNL     1       7.106   5.866  18.922  0.00  0.00    +0.000 NA
ATOM      3  C   UNL     1       7.757   6.802  18.225  0.00  0.00    +0.000 A 
ATOM      4  N   UNL     1       8.537   7.709  18.946  0.00  0.00    +0.000 N 
ATOM      5  N   UNL     1       7.697   6.892  16.887  0.00  0.00    +0.000 NA
ATOM      6  C   UNL     1       6.977   5.961  16.234  0.00  0.00    +0.000 A 
ATOM      7  C   UNL     1       6.281   4.963  16.864  0.00  0.00    +0.000 A 
ATOM      8 CL   UNL     1       5.357   3.831  15.961  0.00  0.00    +0.000 Cl
ATOM      9  H   UNL     1       8.565   7.448  19.923  0.00  0.00    +0.000 HD
ENDROOT
BRANCH   4  10
ATOM     10  C   UNL     1       8.692   9.081  18.687  0.00  0.00    +0.000 A 
ATOM     11  C   UNL     1       9.554   9.874  19.447  0.00  0.00    +0.000 A 
ATOM     12  C   UNL     1       9.667  11.244  19.224  0.00  0.00    +0.000 A 
ATOM     13  C   UNL     1       8.910  11.869  18.234  0.00  0.00    +0.000 A 
ATOM     14  C   UNL     1       8.043  11.091  17.463  0.00  0.00    +0.000 A 
ATOM     15  C   UNL     1       7.943   9.704  17.682  0.00  0.00    +0.000 A 
BRANCH  13  16
ATOM     16  O   UNL     1       8.951  13.217  17.955  0.00  0.00    +0.000 OA
BRANCH  16  17
ATOM     17  C   UNL     1       9.500  14.014  19.011  0.00  0.00    +0.000 C 
BRANCH  17  18
ATOM     18  C   UNL     1      10.731  14.786  18.560  0.00  0.00    +0.000 C 
BRANCH  18  19
ATOM     19  N   UNL     1      10.374  16.157  18.245  0.00  0.00    +0.000 N 
ATOM     20  C   UNL     1      11.028  16.986  17.378  0.00  0.00    +0.000 A 
ATOM     21  C   UNL     1      10.277  18.139  17.358  0.00  0.00    +0.000 A 
ATOM     22  N   UNL     1       9.185  18.022  18.176  0.00  0.00    +0.000 NA
ATOM     23  C   UNL     1       9.269  16.819  18.700  0.00  0.00    +0.000 A 
ENDBRANCH  18  19
ENDBRANCH  17  18
ENDBRANCH  16  17
ENDBRANCH  13  16
ENDBRANCH   4  10
BRANCH   1  24
ATOM     24  N   UNL     1       5.651   3.976  18.994  0.00  0.00    +0.000 N 
ATOM     25  H   UNL     1       5.857   3.047  18.630  0.00  0.00    +0.000 HD
BRANCH  24  30
ATOM     26  C   UNL     1       2.360   5.290  20.220  0.00  0.00    +0.000 A 
ATOM     27  C   UNL     1       1.585   4.142  20.070  0.00  0.00    +0.000 A 
ATOM     28  C   UNL     1       2.133   2.976  19.534  0.00  0.00    +0.000 A 
ATOM     29  C   UNL     1       3.475   2.938  19.167  0.00  0.00    +0.000 A 
ATOM     30  C   UNL     1       4.291   4.053  19.372  0.00  0.00    +0.000 A 
ATOM     31  C   UNL     1       3.713   5.238  19.860  0.00  0.00    +0.000 A 
BRANCH  26  34
ATOM     32  C   UNL     1       1.810   7.713  20.081  0.00  0.00    +0.000 C 
ATOM     33  O   UNL     1       2.274   7.965  18.978  0.00  0.00    +0.000 OA
ATOM     34  N   UNL     1       1.861   6.504  20.743  0.00  0.00    +0.000 N 
ATOM     35  H   UNL     1       1.536   6.473  21.704  0.00  0.00    +0.000 HD
BRANCH  32  37
ATOM     36  C   UNL     1       0.050   8.456  21.606  0.00  0.00    +0.000 C 
ATOM     37  C   UNL     1       1.128   8.774  20.875  0.00  0.00    +0.000 C 
ENDBRANCH  32  37
ENDBRANCH  26  34
ENDBRANCH  24  30
ENDBRANCH   1  24
TORSDOF 9
ENDMDL
MODEL 4
REMARK VINA RESULT:      -8.6      4.885      8.262
REMARK  Name = 
REMARK  9 active torsions:
REMARK  status: ('A' for Active; 'I' for Inactive)
REMARK    1  A    between atoms: C_2  and  C_3
REMARK    2  A    between atoms: N_5  and  C_6
REMARK    3  A    between atoms: C_10  and  N_11
REMARK    4  A    between atoms: N_11  and  C_12
REMARK    5  A    between atoms: N_15  and  C_16
REMARK    6  A    between atoms: C_19  and  O_20
REMARK    7  A    between atoms: O_20  and  C_21
REMARK    8  A    between atoms: C_21  and  C_22
REMARK    9  A    between atoms: C_22  and  N_23
REMARK                            x       y       z     vdW  Elec       q    Type
REMARK                         _______ _______ _______ _____ _____    ______ ____
ROOT
ATOM      1  C   UNL     1       6.424   5.006  18.182  0.00  0.00    +0.000 A 
ATOM      2  N   UNL     1       7.183   5.893  18.875  0.00  0.00    +0.000 NA
ATOM      3  C   UNL     1       7.801   6.870  18.202  0.00  0.00    +0.000 A 
ATOM      4  N   UNL     1       8.570   7.769  18.944  0.00  0.00    +0.000 N 
ATOM      5  N   UNL     1       7.717   7.005  16.869  0.00  0.00    +0.000 NA
ATOM      6  C   UNL     1       7.009   6.082  16.194  0.00  0.00    +0.000 A 
ATOM      7  C   UNL     1       6.347   5.045  16.798  0.00  0.00    +0.000 A 
ATOM      8 CL   UNL     1       5.436   3.924  15.869  0.00  0.00    +0.000 Cl
ATOM      9  H   UNL     1       8.620   7.473  19.911  0.00  0.00    +0.000 HD
ENDROOT
BRANCH   4  10
ATOM     10  C   UNL     1       8.689   9.152  18.733  0.00  0.00    +0.000 A 
ATOM     11  C   UNL     1       8.008   9.793  17.696  0.00  0.00    +0.000 A 
ATOM     12  C   UNL     1       8.169  11.155  17.453  0.00  0.00    +0.000 A 
ATOM     13  C   UNL     1       9.028  11.921  18.240  0.00  0.00    +0.000 A 
ATOM     14  C   UNL     1       9.717  11.297  19.283  0.00  0.00    +0.000 A 
ATOM     15  C   UNL     1       9.540   9.923  19.533  0.00  0.00    +0.000 A 
BRANCH  13  16
ATOM     16  O   UNL     1       9.254  13.268  18.063  0.00  0.00    +0.000 OA
BRANCH  16  17
ATOM     17  C   UNL     1       8.403  14.109  18.851  0.00  0.00    +0.000 C 
BRANCH  17  18
ATOM     18  C   UNL     1       7.447  14.918  17.988  0.00  0.00    +0.000 C 
BRANCH  18  19
ATOM     19  N   UNL     1       6.113  14.891  18.560  0.00  0.00    +0.000 N 
ATOM     20  C   UNL     1       5.787  15.114  19.868  0.00  0.00    +0.000 A 
ATOM     21  C   UNL     1       4.413  15.060  19.904  0.00  0.00    +0.000 A 
ATOM     22  N   UNL     1       3.903  14.825  18.655  0.00  0.00    +0.000 NA
ATOM     23  C   UNL     1       4.949  14.725  17.865  0.00  0.00    +0.000 A 
ENDBRANCH  18  19
ENDBRANCH  17  18
ENDBRANCH  16  17
ENDBRANCH  13  16
ENDBRANCH   4  10
BRANCH   1  24
ATOM     24  N   UNL     1       5.775   3.967  18.900  0.00  0.00    +0.000 N 
ATOM     25  H   UNL     1       5.933   3.065  18.453  0.00  0.00    +0.000 HD
BRANCH  24  30
ATOM     26  C   UNL     1       2.536   5.294  20.245  0.00  0.00    +0.000 A 
ATOM     27  C   UNL     1       1.811   4.106  20.308  0.00  0.00    +0.000 A 
ATOM     28  C   UNL     1       2.370   2.904  19.872  0.00  0.00    +0.000 A 
ATOM     29  C   UNL     1       3.677   2.874  19.393  0.00  0.00    +0.000 A 
ATOM     30  C   UNL     1       4.449   4.037  19.386  0.00  0.00    +0.000 A 
ATOM     31  C   UNL     1       3.854   5.251  19.774  0.00  0.00    +0.000 A 
BRANCH  26  34
ATOM     32  C   UNL     1       1.876   7.663  19.865  0.00  0.00    +0.000 C 
ATOM     33  O   UNL     1       2.256   7.798  18.710  0.00  0.00    +0.000 OA
ATOM     34  N   UNL     1       2.021   6.544  20.657  0.00  0.00    +0.000 N 
ATOM     35  H   UNL     1       1.762   6.616  21.635  0.00  0.00    +0.000 HD
BRANCH  32  37
ATOM     36  C   UNL     1       1.058   8.728  21.907  0.00  0.00    +0.000 C 
ATOM     37  C   UNL     1       1.203   8.787  20.576  0.00  0.00    +0.000 C 
ENDBRANCH  32  37
ENDBRANCH  26  34
ENDBRANCH  24  30
ENDBRANCH   1  24
TORSDOF 9
ENDMDL
MODEL 5
REMARK VINA RESULT:      -8.6      6.134      9.808
REMARK  Name = 
REMARK  9 active torsions:
REMARK  status: ('A' for Active; 'I' for Inactive)
REMARK    1  A    between atoms: C_2  and  C_3
REMARK    2  A    between atoms: N_5  and  C_6
REMARK    3  A    between atoms: C_10  and  N_11
REMARK    4  A    between atoms: N_11  and  C_12
REMARK    5  A    between atoms: N_15  and  C_16
REMARK    6  A    between atoms: C_19  and  O_20
REMARK    7  A    between atoms: O_20  and  C_21
REMARK    8  A    between atoms: C_21  and  C_22
REMARK    9  A    between atoms: C_22  and  N_23
REMARK                            x       y       z     vdW  Elec       q    Type
REMARK                         _______ _______ _______ _____ _____    ______ ____
ROOT
ATOM      1  C   UNL     1       6.393   4.948  18.233  0.00  0.00    +0.000 A 
ATOM      2  N   UNL     1       7.141   5.849  18.919  0.00  0.00    +0.000 NA
ATOM      3  C   UNL     1       7.771   6.811  18.236  0.00  0.00    +0.000 A 
ATOM      4  N   UNL     1       8.529   7.725  18.970  0.00  0.00    +0.000 N 
ATOM      5  N   UNL     1       7.709   6.918  16.899  0.00  0.00    +0.000 NA
ATOM      6  C   UNL     1       7.011   5.980  16.232  0.00  0.00    +0.000 A 
ATOM      7  C   UNL     1       6.338   4.957  16.848  0.00  0.00    +0.000 A 
ATOM      8 CL   UNL     1       5.442   3.816  15.928  0.00  0.00    +0.000 Cl
ATOM      9  H   UNL     1       8.563   7.450  19.944  0.00  0.00    +0.000 HD
ENDROOT
BRANCH   4  10
ATOM     10  C   UNL     1       8.652   9.103  18.731  0.00  0.00    +0.000 A 
ATOM     11  C   UNL     1       7.936   9.735  17.712  0.00  0.00    +0.000 A 
ATOM     12  C   UNL     1       8.100  11.090  17.441  0.00  0.00    +0.000 A 
ATOM     13  C   UNL     1       8.998  11.861  18.178  0.00  0.00    +0.000 A 
ATOM     14  C   UNL     1       9.723  11.246  19.203  0.00  0.00    +0.000 A 
ATOM     15  C   UNL     1       9.543   9.879  19.483  0.00  0.00    +0.000 A 
BRANCH  13  16
ATOM     16  O   UNL     1       9.229  13.202  17.970  0.00  0.00    +0.000 OA
BRANCH  16  17
ATOM     17  C   UNL     1      10.558  13.622  18.303  0.00  0.00    +0.000 C 
BRANCH  17  18
ATOM     18  C   UNL     1      11.073  14.687  17.347  0.00  0.00    +0.000 C 
BRANCH  18  19
ATOM     19  N   UNL     1      10.709  16.008  17.827  0.00  0.00    +0.000 N 
ATOM     20  C   UNL     1      10.604  17.143  17.073  0.00  0.00    +0.000 A 
ATOM     21  C   UNL     1      10.162  18.108  17.949  0.00  0.00    +0.000 A 
ATOM     22  N   UNL     1       9.986  17.584  19.202  0.00  0.00    +0.000 NA
ATOM     23  C   UNL     1      10.326  16.318  19.100  0.00  0.00    +0.000 A 
ENDBRANCH  18  19
ENDBRANCH  17  18
ENDBRANCH  16  17
ENDBRANCH  13  16
ENDBRANCH   4  10
BRANCH   1  24
ATOM     24  N   UNL     1       5.731   3.925  18.963  0.00  0.00    +0.000 N 
ATOM     25  H   UNL     1       6.025   3.004  18.641  0.00  0.00    +0.000 HD
BRANCH  24  30
ATOM     26  C   UNL     1       2.331   4.958  20.159  0.00  0.00    +0.000 A 
ATOM     27  C   UNL     1       1.599   3.841  19.761  0.00  0.00    +0.000 A 
ATOM     28  C   UNL     1       2.213   2.793  19.074  0.00  0.00    +0.000 A 
ATOM     29  C   UNL     1       3.578   2.840  18.802  0.00  0.00    +0.000 A 
ATOM     30  C   UNL     1       4.347   3.915  19.251  0.00  0.00    +0.000 A 
ATOM     31  C   UNL     1       3.705   4.990  19.891  0.00  0.00    +0.000 A 
BRANCH  26  34
ATOM     32  C   UNL     1       1.672   7.349  20.371  0.00  0.00    +0.000 C 
ATOM     33  O   UNL     1       2.147   7.784  19.332  0.00  0.00    +0.000 OA
ATOM     34  N   UNL     1       1.765   6.056  20.844  0.00  0.00    +0.000 N 
ATOM     35  H   UNL     1       1.421   5.866  21.780  0.00  0.00    +0.000 HD
BRANCH  32  37
ATOM     36  C   UNL     1       1.601   9.136  22.037  0.00  0.00    +0.000 C 
ATOM     37  C   UNL     1       0.924   8.247  21.296  0.00  0.00    +0.000 C 
ENDBRANCH  32  37
ENDBRANCH  26  34
ENDBRANCH  24  30
ENDBRANCH   1  24
TORSDOF 9
ENDMDL
MODEL 6
REMARK VINA RESULT:      -8.5      5.654      8.885
REMARK  Name = 
REMARK  9 active torsions:
REMARK  status: ('A' for Active; 'I' for Inactive)
REMARK    1  A    between atoms: C_2  and  C_3
REMARK    2  A    between atoms: N_5  and  C_6
REMARK    3  A    between atoms: C_10  and  N_11
REMARK    4  A    between atoms: N_11  and  C_12
REMARK    5  A    between atoms: N_15  and  C_16
REMARK    6  A    between atoms: C_19  and  O_20
REMARK    7  A    between atoms: O_20  and  C_21
REMARK    8  A    between atoms: C_21  and  C_22
REMARK    9  A    between atoms: C_22  and  N_23
REMARK                            x       y       z     vdW  Elec       q    Type
REMARK                         _______ _______ _______ _____ _____    ______ ____
ROOT
ATOM      1  C   UNL     1       6.360   4.946  18.235  0.00  0.00    +0.000 A 
ATOM      2  N   UNL     1       7.128   5.838  18.911  0.00  0.00    +0.000 NA
ATOM      3  C   UNL     1       7.749   6.800  18.220  0.00  0.00    +0.000 A 
ATOM      4  N   UNL     1       8.528   7.705  18.945  0.00  0.00    +0.000 N 
ATOM      5  N   UNL     1       7.661   6.915  16.886  0.00  0.00    +0.000 NA
ATOM      6  C   UNL     1       6.944   5.986  16.228  0.00  0.00    +0.000 A 
ATOM      7  C   UNL     1       6.277   4.963  16.851  0.00  0.00    +0.000 A 
ATOM      8 CL   UNL     1       5.355   3.834  15.943  0.00  0.00    +0.000 Cl
ATOM      9  H   UNL     1       8.580   7.424  19.915  0.00  0.00    +0.000 HD
ENDROOT
BRANCH   4  10
ATOM     10  C   UNL     1       8.655   9.084  18.711  0.00  0.00    +0.000 A 
ATOM     11  C   UNL     1       7.952   9.719  17.686  0.00  0.00    +0.000 A 
ATOM     12  C   UNL     1       8.120  11.075  17.420  0.00  0.00    +0.000 A 
ATOM     13  C   UNL     1       9.010  11.842  18.170  0.00  0.00    +0.000 A 
ATOM     14  C   UNL     1       9.722  11.224  19.201  0.00  0.00    +0.000 A 
ATOM     15  C   UNL     1       9.538   9.857  19.475  0.00  0.00    +0.000 A 
BRANCH  13  16
ATOM     16  O   UNL     1       9.245  13.185  17.969  0.00  0.00    +0.000 OA
BRANCH  16  17
ATOM     17  C   UNL     1       8.102  14.016  18.199  0.00  0.00    +0.000 C 
BRANCH  17  18
ATOM     18  C   UNL     1       8.074  14.562  19.619  0.00  0.00    +0.000 C 
BRANCH  18  19
ATOM     19  N   UNL     1       7.882  16.001  19.598  0.00  0.00    +0.000 N 
ATOM     20  C   UNL     1       8.084  16.860  20.641  0.00  0.00    +0.000 A 
ATOM     21  C   UNL     1       7.850  18.111  20.119  0.00  0.00    +0.000 A 
ATOM     22  N   UNL     1       7.527  18.030  18.790  0.00  0.00    +0.000 NA
ATOM     23  C   UNL     1       7.551  16.747  18.504  0.00  0.00    +0.000 A 
ENDBRANCH  18  19
ENDBRANCH  17  18
ENDBRANCH  16  17
ENDBRANCH  13  16
ENDBRANCH   4  10
BRANCH   1  24
ATOM     24  N   UNL     1       5.707   3.922  18.972  0.00  0.00    +0.000 N 
ATOM     25  H   UNL     1       5.903   3.007  18.571  0.00  0.00    +0.000 HD
BRANCH  24  30
ATOM     26  C   UNL     1       2.419   5.212  20.236  0.00  0.00    +0.000 A 
ATOM     27  C   UNL     1       1.685   4.028  20.209  0.00  0.00    +0.000 A 
ATOM     28  C   UNL     1       2.255   2.844  19.741  0.00  0.00    +0.000 A 
ATOM     29  C   UNL     1       3.581   2.825  19.319  0.00  0.00    +0.000 A 
ATOM     30  C   UNL     1       4.361   3.981  19.402  0.00  0.00    +0.000 A 
ATOM     31  C   UNL     1       3.757   5.179  19.821  0.00  0.00    +0.000 A 
BRANCH  26  34
ATOM     32  C   UNL     1       1.879   7.627  19.974  0.00  0.00    +0.000 C 
ATOM     33  O   UNL     1       2.399   7.836  18.887  0.00  0.00    +0.000 OA
ATOM     34  N   UNL     1       1.895   6.444  20.684  0.00  0.00    +0.000 N 
ATOM     35  H   UNL     1       1.521   6.450  21.628  0.00  0.00    +0.000 HD
BRANCH  32  37
ATOM     36  C   UNL     1       1.309   8.843  22.016  0.00  0.00    +0.000 C 
ATOM     37  C   UNL     1       1.158   8.717  20.690  0.00  0.00    +0.000 C 
ENDBRANCH  32  37
ENDBRANCH  26  34
ENDBRANCH  24  30
ENDBRANCH   1  24
TORSDOF 9
ENDMDL
MODEL 7
REMARK VINA RESULT:      -8.5      5.425      8.636
REMARK  Name = 
REMARK  9 active torsions:
REMARK  status: ('A' for Active; 'I' for Inactive)
REMARK    1  A    between atoms: C_2  and  C_3
REMARK    2  A    between atoms: N_5  and  C_6
REMARK    3  A    between atoms: C_10  and  N_11
REMARK    4  A    between atoms: N_11  and  C_12
REMARK    5  A    between atoms: N_15  and  C_16
REMARK    6  A    between atoms: C_19  and  O_20
REMARK    7  A    between atoms: O_20  and  C_21
REMARK    8  A    between atoms: C_21  and  C_22
REMARK    9  A    between atoms: C_22  and  N_23
REMARK                            x       y       z     vdW  Elec       q    Type
REMARK                         _______ _______ _______ _____ _____    ______ ____
ROOT
ATOM      1  C   UNL     1       6.401   5.029  18.136  0.00  0.00    +0.000 A 
ATOM      2  N   UNL     1       7.138   5.924  18.840  0.00  0.00    +0.000 NA
ATOM      3  C   UNL     1       7.799   6.875  18.172  0.00  0.00    +0.000 A 
ATOM      4  N   UNL     1       8.545   7.785  18.925  0.00  0.00    +0.000 N 
ATOM      5  N   UNL     1       7.780   6.976  16.833  0.00  0.00    +0.000 NA
ATOM      6  C   UNL     1       7.092   6.043  16.150  0.00  0.00    +0.000 A 
ATOM      7  C   UNL     1       6.389   5.030  16.749  0.00  0.00    +0.000 A 
ATOM      8 CL   UNL     1       5.509   3.895  15.808  0.00  0.00    +0.000 Cl
ATOM      9  H   UNL     1       8.546   7.515  19.900  0.00  0.00    +0.000 HD
ENDROOT
BRANCH   4  10
ATOM     10  C   UNL     1       8.692   9.160  18.683  0.00  0.00    +0.000 A 
ATOM     11  C   UNL     1       9.534   9.953  19.464  0.00  0.00    +0.000 A 
ATOM     12  C   UNL     1       9.637  11.326  19.258  0.00  0.00    +0.000 A 
ATOM     13  C   UNL     1       8.890  11.955  18.263  0.00  0.00    +0.000 A 
ATOM     14  C   UNL     1       8.041  11.177  17.471  0.00  0.00    +0.000 A 
ATOM     15  C   UNL     1       7.951   9.788  17.674  0.00  0.00    +0.000 A 
BRANCH  13  16
ATOM     16  O   UNL     1       8.923  13.307  17.998  0.00  0.00    +0.000 OA
BRANCH  16  17
ATOM     17  C   UNL     1       8.354  14.116  19.034  0.00  0.00    +0.000 C 
BRANCH  17  18
ATOM     18  C   UNL     1       6.983  14.651  18.648  0.00  0.00    +0.000 C 
BRANCH  18  19
ATOM     19  N   UNL     1       6.737  15.920  19.309  0.00  0.00    +0.000 N 
ATOM     20  C   UNL     1       7.328  16.363  20.458  0.00  0.00    +0.000 A 
ATOM     21  C   UNL     1       6.836  17.635  20.641  0.00  0.00    +0.000 A 
ATOM     22  N   UNL     1       5.977  17.973  19.629  0.00  0.00    +0.000 NA
ATOM     23  C   UNL     1       5.934  16.921  18.842  0.00  0.00    +0.000 A 
ENDBRANCH  18  19
ENDBRANCH  17  18
ENDBRANCH  16  17
ENDBRANCH  13  16
ENDBRANCH   4  10
BRANCH   1  24
ATOM     24  N   UNL     1       5.705   4.016  18.849  0.00  0.00    +0.000 N 
ATOM     25  H   UNL     1       5.930   3.094  18.481  0.00  0.00    +0.000 HD
BRANCH  24  30
ATOM     26  C   UNL     1       2.410   5.222  20.173  0.00  0.00    +0.000 A 
ATOM     27  C   UNL     1       1.608   4.143  19.807  0.00  0.00    +0.000 A 
ATOM     28  C   UNL     1       2.142   3.064  19.100  0.00  0.00    +0.000 A 
ATOM     29  C   UNL     1       3.495   3.042  18.774  0.00  0.00    +0.000 A 
ATOM     30  C   UNL     1       4.334   4.077  19.191  0.00  0.00    +0.000 A 
ATOM     31  C   UNL     1       3.773   5.183  19.853  0.00  0.00    +0.000 A 
BRANCH  26  34
ATOM     32  C   UNL     1       1.723   7.607  20.352  0.00  0.00    +0.000 C 
ATOM     33  O   UNL     1       2.016   7.988  19.228  0.00  0.00    +0.000 OA
ATOM     34  N   UNL     1       1.927   6.347  20.877  0.00  0.00    +0.000 N 
ATOM     35  H   UNL     1       1.740   6.207  21.864  0.00  0.00    +0.000 HD
BRANCH  32  37
ATOM     36  C   UNL     1       0.565   9.690  20.894  0.00  0.00    +0.000 C 
ATOM     37  C   UNL     1       1.104   8.544  21.332  0.00  0.00    +0.000 C 
ENDBRANCH  32  37
ENDBRANCH  26  34
ENDBRANCH  24  30
ENDBRANCH   1  24
TORSDOF 9
ENDMDL
MODEL 8
REMARK VINA RESULT:      -8.5      4.154     10.694
REMARK  Name = 
REMARK  9 active torsions:
REMARK  status: ('A' for Active; 'I' for Inactive)
REMARK    1  A    between atoms: C_2  and  C_3
REMARK    2  A    between atoms: N_5  and  C_6
REMARK    3  A    between atoms: C_10  and  N_11
REMARK    4  A    between atoms: N_11  and  C_12
REMARK    5  A    between atoms: N_15  and  C_16
REMARK    6  A    between atoms: C_19  and  O_20
REMARK    7  A    between atoms: O_20  and  C_21
REMARK    8  A    between atoms: C_21  and  C_22
REMARK    9  A    between atoms: C_22  and  N_23
REMARK                            x       y       z     vdW  Elec       q    Type
REMARK                         _______ _______ _______ _____ _____    ______ ____
ROOT
ATOM      1  C   UNL     1      -0.798  11.319  20.765  0.00  0.00    +0.000 A 
ATOM      2  N   UNL     1       0.060  10.730  19.894  0.00  0.00    +0.000 NA
ATOM      3  C   UNL     1       0.825   9.724  20.331  0.00  0.00    +0.000 A 
ATOM      4  N   UNL     1       1.694   9.135  19.410  0.00  0.00    +0.000 N 
ATOM      5  N   UNL     1       0.795   9.280  21.598  0.00  0.00    +0.000 NA
ATOM      6  C   UNL     1      -0.018   9.916  22.461  0.00  0.00    +0.000 A 
ATOM      7  C   UNL     1      -0.834  10.958  22.104  0.00  0.00    +0.000 A 
ATOM      8 CL   UNL     1      -1.869  11.698  23.257  0.00  0.00    +0.000 Cl
ATOM      9  H   UNL     1       1.678   9.646  18.537  0.00  0.00    +0.000 HD
ENDROOT
BRANCH   4  10
ATOM     10  C   UNL     1       2.011   7.771  19.302  0.00  0.00    +0.000 A 
ATOM     11  C   UNL     1       1.911   6.910  20.396  0.00  0.00    +0.000 A 
ATOM     12  C   UNL     1       2.277   5.570  20.301  0.00  0.00    +0.000 A 
ATOM     13  C   UNL     1       2.766   5.048  19.105  0.00  0.00    +0.000 A 
ATOM     14  C   UNL     1       2.872   5.896  17.999  0.00  0.00    +0.000 A 
ATOM     15  C   UNL     1       2.487   7.245  18.095  0.00  0.00    +0.000 A 
BRANCH  13  16
ATOM     16  O   UNL     1       3.161   3.740  18.927  0.00  0.00    +0.000 OA
BRANCH  16  17
ATOM     17  C   UNL     1       4.083   3.552  17.847  0.00  0.00    +0.000 C 
BRANCH  17  18
ATOM     18  C   UNL     1       5.470   4.075  18.188  0.00  0.00    +0.000 C 
BRANCH  18  19
ATOM     19  N   UNL     1       6.182   4.433  16.975  0.00  0.00    +0.000 N 
ATOM     20  C   UNL     1       6.046   3.842  15.750  0.00  0.00    +0.000 A 
ATOM     21  C   UNL     1       6.859   4.570  14.914  0.00  0.00    +0.000 A 
ATOM     22  N   UNL     1       7.470   5.589  15.596  0.00  0.00    +0.000 NA
ATOM     23  C   UNL     1       7.046   5.481  16.836  0.00  0.00    +0.000 A 
ENDBRANCH  18  19
ENDBRANCH  17  18
ENDBRANCH  16  17
ENDBRANCH  13  16
ENDBRANCH   4  10
BRANCH   1  24
ATOM     24  N   UNL     1      -1.605  12.391  20.299  0.00  0.00    +0.000 N 
ATOM     25  H   UNL     1      -1.804  13.048  21.051  0.00  0.00    +0.000 HD
BRANCH  24  30
ATOM     26  C   UNL     1      -3.808  11.684  17.348  0.00  0.00    +0.000 A 
ATOM     27  C   UNL     1      -5.052  11.915  17.931  0.00  0.00    +0.000 A 
ATOM     28  C   UNL     1      -5.156  12.254  19.281  0.00  0.00    +0.000 A 
ATOM     29  C   UNL     1      -4.009  12.392  20.057  0.00  0.00    +0.000 A 
ATOM     30  C   UNL     1      -2.747  12.235  19.480  0.00  0.00    +0.000 A 
ATOM     31  C   UNL     1      -2.659  11.838  18.135  0.00  0.00    +0.000 A 
BRANCH  26  34
ATOM     32  C   UNL     1      -2.974  10.209  15.524  0.00  0.00    +0.000 C 
ATOM     33  O   UNL     1      -2.340   9.402  16.189  0.00  0.00    +0.000 OA
ATOM     34  N   UNL     1      -3.638  11.324  15.992  0.00  0.00    +0.000 N 
ATOM     35  H   UNL     1      -4.024  11.969  15.310  0.00  0.00    +0.000 HD
BRANCH  32  37
ATOM     36  C   UNL     1      -4.271   9.926  13.472  0.00  0.00    +0.000 C 
ATOM     37  C   UNL     1      -3.067  10.065  14.044  0.00  0.00    +0.000 C 
ENDBRANCH  32  37
ENDBRANCH  26  34
ENDBRANCH  24  30
ENDBRANCH   1  24
TORSDOF 9
ENDMDL
MODEL 9
REMARK VINA RESULT:      -8.5      5.073      8.584
REMARK  Name = 
REMARK  9 active torsions:
REMARK  status: ('A' for Active; 'I' for Inactive)
REMARK    1  A    between atoms: C_2  and  C_3
REMARK    2  A    between atoms: N_5  and  C_6
REMARK    3  A    between atoms: C_10  and  N_11
REMARK    4  A    between atoms: N_11  and  C_12
REMARK    5  A    between atoms: N_15  and  C_16
REMARK    6  A    between atoms: C_19  and  O_20
REMARK    7  A    between atoms: O_20  and  C_21
REMARK    8  A    between atoms: C_21  and  C_22
REMARK    9  A    between atoms: C_22  and  N_23
REMARK                            x       y       z     vdW  Elec       q    Type
REMARK                         _______ _______ _______ _____ _____    ______ ____
ROOT
ATOM      1  C   UNL     1       6.321   4.944  18.172  0.00  0.00    +0.000 A 
ATOM      2  N   UNL     1       7.065   5.842  18.868  0.00  0.00    +0.000 NA
ATOM      3  C   UNL     1       7.746   6.772  18.190  0.00  0.00    +0.000 A 
ATOM      4  N   UNL     1       8.497   7.684  18.935  0.00  0.00    +0.000 N 
ATOM      5  N   UNL     1       7.741   6.850  16.850  0.00  0.00    +0.000 NA
ATOM      6  C   UNL     1       7.047   5.914  16.175  0.00  0.00    +0.000 A 
ATOM      7  C   UNL     1       6.323   4.923  16.785  0.00  0.00    +0.000 A 
ATOM      8 CL   UNL     1       5.436   3.784  15.855  0.00  0.00    +0.000 Cl
ATOM      9  H   UNL     1       8.485   7.430  19.915  0.00  0.00    +0.000 HD
ENDROOT
BRANCH   4  10
ATOM     10  C   UNL     1       8.665   9.052  18.671  0.00  0.00    +0.000 A 
ATOM     11  C   UNL     1       9.533   9.841  19.429  0.00  0.00    +0.000 A 
ATOM     12  C   UNL     1       9.659  11.209  19.201  0.00  0.00    +0.000 A 
ATOM     13  C   UNL     1       8.909  11.837  18.208  0.00  0.00    +0.000 A 
ATOM     14  C   UNL     1       8.036  11.064  17.438  0.00  0.00    +0.000 A 
ATOM     15  C   UNL     1       7.923   9.679  17.663  0.00  0.00    +0.000 A 
BRANCH  13  16
ATOM     16  O   UNL     1       8.963  13.183  17.923  0.00  0.00    +0.000 OA
BRANCH  16  17
ATOM     17  C   UNL     1       9.303  14.003  19.048  0.00  0.00    +0.000 C 
BRANCH  17  18
ATOM     18  C   UNL     1       8.658  15.377  18.965  0.00  0.00    +0.000 C 
BRANCH  18  19
ATOM     19  N   UNL     1       7.230  15.275  19.205  0.00  0.00    +0.000 N 
ATOM     20  C   UNL     1       6.245  15.296  18.258  0.00  0.00    +0.000 A 
ATOM     21  C   UNL     1       5.078  15.090  18.957  0.00  0.00    +0.000 A 
ATOM     22  N   UNL     1       5.333  14.933  20.294  0.00  0.00    +0.000 NA
ATOM     23  C   UNL     1       6.637  15.052  20.415  0.00  0.00    +0.000 A 
ENDBRANCH  18  19
ENDBRANCH  17  18
ENDBRANCH  16  17
ENDBRANCH  13  16
ENDBRANCH   4  10
BRANCH   1  24
ATOM     24  N   UNL     1       5.605   3.955  18.895  0.00  0.00    +0.000 N 
ATOM     25  H   UNL     1       5.808   3.024  18.534  0.00  0.00    +0.000 HD
BRANCH  24  30
ATOM     26  C   UNL     1       2.345   5.236  20.236  0.00  0.00    +0.000 A 
ATOM     27  C   UNL     1       1.514   4.183  19.859  0.00  0.00    +0.000 A 
ATOM     28  C   UNL     1       2.017   3.098  19.140  0.00  0.00    +0.000 A 
ATOM     29  C   UNL     1       3.369   3.042  18.813  0.00  0.00    +0.000 A 
ATOM     30  C   UNL     1       4.237   4.049  19.240  0.00  0.00    +0.000 A 
ATOM     31  C   UNL     1       3.707   5.163  19.913  0.00  0.00    +0.000 A 
BRANCH  26  34
ATOM     32  C   UNL     1       1.705   7.632  20.436  0.00  0.00    +0.000 C 
ATOM     33  O   UNL     1       1.986   8.013  19.308  0.00  0.00    +0.000 OA
ATOM     34  N   UNL     1       1.894   6.367  20.952  0.00  0.00    +0.000 N 
ATOM     35  H   UNL     1       1.721   6.226  21.942  0.00  0.00    +0.000 HD
BRANCH  32  37
ATOM     36  C   UNL     1      -0.079   9.125  21.186  0.00  0.00    +0.000 C 
ATOM     37  C   UNL     1       1.119   8.576  21.430  0.00  0.00    +0.000 C 
ENDBRANCH  32  37
ENDBRANCH  26  34
ENDBRANCH  24  30
ENDBRANCH   1  24
TORSDOF 9
ENDMDL
