MODEL 1
REMARK VINA RESULT:      -8.8      0.000      0.000
REMARK  Name = 
REMARK  5 active torsions:
REMARK  status: ('A' for Active; 'I' for Inactive)
REMARK    1  A    between atoms: C_10  and  N_11
REMARK    2  A    between atoms: N_14  and  C_15
REMARK    3  A    between atoms: C_15  and  C_16
REMARK    4  A    between atoms: C_16  and  C_17
REMARK    5  A    between atoms: C_17  and  C_18
REMARK                            x       y       z     vdW  Elec       q    Type
REMARK                         _______ _______ _______ _____ _____    ______ ____
ROOT
ATOM      1  N   UNL     1       2.504   6.722  19.507  0.00  0.00    +0.000 N 
ATOM      2  C   UNL     1       3.777   6.354  18.875  0.00  0.00    +0.000 C 
ATOM      3  C   UNL     1       4.448   5.222  19.688  0.00  0.00    +0.000 C 
ATOM      4  N   UNL     1       3.586   4.028  19.905  0.00  0.00    +0.000 NA
ATOM      5  C   UNL     1       2.337   4.500  20.558  0.00  0.00    +0.000 C 
ATOM      6  C   UNL     1       1.586   5.600  19.769  0.00  0.00    +0.000 C 
ENDROOT
BRANCH   1  16
ATOM      7  O   UNL     1      -0.393  10.851  23.271  0.00  0.00    +0.000 OA
ATOM      8  C   UNL     1       0.076  10.189  22.343  0.00  0.00    +0.000 C 
ATOM      9  C   UNL     1       0.378   8.701  22.442  0.00  0.00    +0.000 C 
ATOM     10  O   UNL     1       1.342   8.162  21.560  0.00  0.00    +0.000 OA
ATOM     11  C   UNL     1       1.319   8.704  20.294  0.00  0.00    +0.000 A 
ATOM     12  C   UNL     1       0.821   9.995  20.061  0.00  0.00    +0.000 A 
ATOM     13  C   UNL     1       0.915  10.572  18.797  0.00  0.00    +0.000 A 
ATOM     14  C   UNL     1       1.502   9.855  17.760  0.00  0.00    +0.000 A 
ATOM     15  C   UNL     1       2.007   8.572  17.989  0.00  0.00    +0.000 A 
ATOM     16  C   UNL     1       1.938   7.969  19.257  0.00  0.00    +0.000 A 
ATOM     17  N   UNL     1       0.267  10.737  21.107  0.00  0.00    +0.000 N 
ATOM     18  H   UNL     1       0.005  11.704  20.984  0.00  0.00    +0.000 HD
ENDBRANCH   1  16
BRANCH   4  19
ATOM     19  C   UNL     1       3.311   3.330  18.636  0.00  0.00    +0.000 C 
BRANCH  19  20
ATOM     20  C   UNL     1       4.535   3.265  17.717  0.00  0.00    +0.000 C 
BRANCH  20  21
ATOM     21  C   UNL     1       4.246   3.879  16.352  0.00  0.00    +0.000 C 
BRANCH  21  22
ATOM     22  C   UNL     1       5.482   4.439  15.731  0.00  0.00    +0.000 A 
ATOM     23  C   UNL     1       6.396   5.260  16.354  0.00  0.00    +0.000 A 
ATOM     24  N   UNL     1       7.367   5.575  15.447  0.00  0.00    +0.000 N 
ATOM     25  C   UNL     1       7.104   4.982  14.236  0.00  0.00    +0.000 A 
ATOM     26  C   UNL     1       7.802   5.056  13.025  0.00  0.00    +0.000 A 
ATOM     27  C   UNL     1       7.300   4.329  11.942  0.00  0.00    +0.000 A 
ATOM     28  C   UNL     1       6.157   3.546  12.071  0.00  0.00    +0.000 A 
ATOM     29  C   UNL     1       5.469   3.484  13.291  0.00  0.00    +0.000 A 
ATOM     30  C   UNL     1       5.940   4.230  14.391  0.00  0.00    +0.000 A 
ATOM     31  H   UNL     1       8.162   6.169  15.630  0.00  0.00    +0.000 HD
ENDBRANCH  21  22
ENDBRANCH  20  21
ENDBRANCH  19  20
ENDBRANCH   4  19
TORSDOF 5
ENDMDL
MODEL 2
REMARK VINA RESULT:      -8.6      3.009      7.661
REMARK  Name = 
REMARK  5 active torsions:
REMARK  status: ('A' for Active; 'I' for Inactive)
REMARK    1  A    between atoms: C_10  and  N_11
REMARK    2  A    between atoms: N_14  and  C_15
REMARK    3  A    between atoms: C_15  and  C_16
REMARK    4  A    between atoms: C_16  and  C_17
REMARK    5  A    between atoms: C_17  and  C_18
REMARK                            x       y       z     vdW  Elec       q    Type
REMARK                         _______ _______ _______ _____ _____    ______ ____
ROOT
ATOM      1  N   UNL     1       4.238   3.821  18.467  0.00  0.00    +0.000 N 
ATOM      2  C   UNL     1       2.929   4.406  18.152  0.00  0.00    +0.000 C 
ATOM      3  C   UNL     1       1.881   3.277  18.005  0.00  0.00    +0.000 C 
ATOM      4  N   UNL     1       1.797   2.362  19.175  0.00  0.00    +0.000 NA
ATOM      5  C   UNL     1       3.160   1.813  19.405  0.00  0.00    +0.000 C 
ATOM      6  C   UNL     1       4.250   2.893  19.611  0.00  0.00    +0.000 C 
ENDROOT
BRANCH   1  16
ATOM      7  O   UNL     1       7.373   4.991  13.138  0.00  0.00    +0.000 OA
ATOM      8  C   UNL     1       6.976   4.851  14.296  0.00  0.00    +0.000 C 
ATOM      9  C   UNL     1       5.952   3.805  14.711  0.00  0.00    +0.000 C 
ATOM     10  O   UNL     1       5.206   4.040  15.888  0.00  0.00    +0.000 OA
ATOM     11  C   UNL     1       5.918   4.641  16.901  0.00  0.00    +0.000 A 
ATOM     12  C   UNL     1       7.044   5.435  16.632  0.00  0.00    +0.000 A 
ATOM     13  C   UNL     1       7.681   6.131  17.656  0.00  0.00    +0.000 A 
ATOM     14  C   UNL     1       7.197   6.028  18.956  0.00  0.00    +0.000 A 
ATOM     15  C   UNL     1       6.071   5.245  19.228  0.00  0.00    +0.000 A 
ATOM     16  C   UNL     1       5.401   4.542  18.213  0.00  0.00    +0.000 A 
ATOM     17  N   UNL     1       7.511   5.575  15.322  0.00  0.00    +0.000 N 
ATOM     18  H   UNL     1       8.249   6.226  15.094  0.00  0.00    +0.000 HD
ENDBRANCH   1  16
BRANCH   4  19
ATOM     19  C   UNL     1       1.282   3.062  20.366  0.00  0.00    +0.000 C 
BRANCH  19  20
ATOM     20  C   UNL     1       0.972   4.539  20.097  0.00  0.00    +0.000 C 
BRANCH  20  21
ATOM     21  C   UNL     1       1.836   5.458  20.952  0.00  0.00    +0.000 C 
BRANCH  21  22
ATOM     22  C   UNL     1       1.447   6.889  20.783  0.00  0.00    +0.000 A 
ATOM     23  C   UNL     1       0.702   7.632  21.672  0.00  0.00    +0.000 A 
ATOM     24  N   UNL     1       0.540   8.881  21.146  0.00  0.00    +0.000 N 
ATOM     25  C   UNL     1       1.158   8.972  19.922  0.00  0.00    +0.000 A 
ATOM     26  C   UNL     1       1.221  10.039  19.019  0.00  0.00    +0.000 A 
ATOM     27  C   UNL     1       1.940   9.847  17.837  0.00  0.00    +0.000 A 
ATOM     28  C   UNL     1       2.585   8.642  17.577  0.00  0.00    +0.000 A 
ATOM     29  C   UNL     1       2.512   7.582  18.491  0.00  0.00    +0.000 A 
ATOM     30  C   UNL     1       1.770   7.741  19.680  0.00  0.00    +0.000 A 
ATOM     31  H   UNL     1       0.029   9.634  21.583  0.00  0.00    +0.000 HD
ENDBRANCH  21  22
ENDBRANCH  20  21
ENDBRANCH  19  20
ENDBRANCH   4  19
TORSDOF 5
ENDMDL
MODEL 3
REMARK VINA RESULT:      -8.3      2.989      8.564
REMARK  Name = 
REMARK  5 active torsions:
REMARK  status: ('A' for Active; 'I' for Inactive)
REMARK    1  A    between atoms: C_10  and  N_11
REMARK    2  A    between atoms: N_14  and  C_15
REMARK    3  A    between atoms: C_15  and  C_16
REMARK    4  A    between atoms: C_16  and  C_17
REMARK    5  A    between atoms: C_17  and  C_18
REMARK                            x       y       z     vdW  Elec       q    Type
REMARK                         _______ _______ _______ _____ _____    ______ ____
ROOT
ATOM      1  N   UNL     1       4.101   4.223  18.385  0.00  0.00    +0.000 N 
ATOM      2  C   UNL     1       2.870   4.999  18.188  0.00  0.00    +0.000 C 
ATOM      3  C   UNL     1       1.666   4.035  18.071  0.00  0.00    +0.000 C 
ATOM      4  N   UNL     1       1.529   3.084  19.207  0.00  0.00    +0.000 NA
ATOM      5  C   UNL     1       2.812   2.341  19.317  0.00  0.00    +0.000 C 
ATOM      6  C   UNL     1       4.056   3.247  19.488  0.00  0.00    +0.000 C 
ENDROOT
BRANCH   1  16
ATOM      7  O   UNL     1       7.241   4.752  12.957  0.00  0.00    +0.000 OA
ATOM      8  C   UNL     1       6.853   4.716  14.127  0.00  0.00    +0.000 C 
ATOM      9  C   UNL     1       5.722   3.821  14.609  0.00  0.00    +0.000 C 
ATOM     10  O   UNL     1       5.034   4.200  15.784  0.00  0.00    +0.000 OA
ATOM     11  C   UNL     1       5.834   4.760  16.755  0.00  0.00    +0.000 A 
ATOM     12  C   UNL     1       7.040   5.400  16.429  0.00  0.00    +0.000 A 
ATOM     13  C   UNL     1       7.776   6.064  17.407  0.00  0.00    +0.000 A 
ATOM     14  C   UNL     1       7.310   6.083  18.717  0.00  0.00    +0.000 A 
ATOM     15  C   UNL     1       6.106   5.454  19.046  0.00  0.00    +0.000 A 
ATOM     16  C   UNL     1       5.335   4.787  18.078  0.00  0.00    +0.000 A 
ATOM     17  N   UNL     1       7.492   5.420  15.107  0.00  0.00    +0.000 N 
ATOM     18  H   UNL     1       8.297   5.967  14.835  0.00  0.00    +0.000 HD
ENDBRANCH   1  16
BRANCH   4  19
ATOM     19  C   UNL     1       1.197   3.790  20.459  0.00  0.00    +0.000 C 
BRANCH  19  20
ATOM     20  C   UNL     1       0.746   5.235  20.222  0.00  0.00    +0.000 C 
BRANCH  20  21
ATOM     21  C   UNL     1       1.546   6.218  21.069  0.00  0.00    +0.000 C 
BRANCH  21  22
ATOM     22  C   UNL     1       1.315   7.627  20.637  0.00  0.00    +0.000 A 
ATOM     23  C   UNL     1       1.756   8.192  19.460  0.00  0.00    +0.000 A 
ATOM     24  N   UNL     1       1.366   9.500  19.448  0.00  0.00    +0.000 N 
ATOM     25  C   UNL     1       0.682   9.809  20.599  0.00  0.00    +0.000 A 
ATOM     26  C   UNL     1       0.134  11.024  21.024  0.00  0.00    +0.000 A 
ATOM     27  C   UNL     1      -0.526  11.042  22.256  0.00  0.00    +0.000 A 
ATOM     28  C   UNL     1      -0.648   9.887  23.022  0.00  0.00    +0.000 A 
ATOM     29  C   UNL     1      -0.093   8.678  22.582  0.00  0.00    +0.000 A 
ATOM     30  C   UNL     1       0.602   8.639  21.355  0.00  0.00    +0.000 A 
ATOM     31  H   UNL     1       1.559  10.157  18.706  0.00  0.00    +0.000 HD
ENDBRANCH  21  22
ENDBRANCH  20  21
ENDBRANCH  19  20
ENDBRANCH   4  19
TORSDOF 5
ENDMDL
MODEL 4
REMARK VINA RESULT:      -8.3      3.503      9.161
REMARK  Name = 
REMARK  5 active torsions:
REMARK  status: ('A' for Active; 'I' for Inactive)
REMARK    1  A    between atoms: C_10  and  N_11
REMARK    2  A    between atoms: N_14  and  C_15
REMARK    3  A    between atoms: C_15  and  C_16
REMARK    4  A    between atoms: C_16  and  C_17
REMARK    5  A    between atoms: C_17  and  C_18
REMARK                            x       y       z     vdW  Elec       q    Type
REMARK                         _______ _______ _______ _____ _____    ______ ____
ROOT
ATOM      1  N   UNL     1       2.384   6.745  18.786  0.00  0.00    +0.000 N 
ATOM      2  C   UNL     1       1.741   6.807  20.105  0.00  0.00    +0.000 C 
ATOM      3  C   UNL     1       1.937   8.218  20.708  0.00  0.00    +0.000 C 
ATOM      4  N   UNL     1       1.481   9.330  19.830  0.00  0.00    +0.000 NA
ATOM      5  C   UNL     1       2.194   9.189  18.533  0.00  0.00    +0.000 C 
ATOM      6  C   UNL     1       1.996   7.814  17.849  0.00  0.00    +0.000 C 
ENDROOT
BRANCH   1  16
ATOM      7  O   UNL     1       7.906   4.466  16.807  0.00  0.00    +0.000 OA
ATOM      8  C   UNL     1       6.726   4.706  17.070  0.00  0.00    +0.000 C 
ATOM      9  C   UNL     1       6.189   6.108  17.315  0.00  0.00    +0.000 C 
ATOM     10  O   UNL     1       5.007   6.240  18.079  0.00  0.00    +0.000 OA
ATOM     11  C   UNL     1       4.074   5.252  17.856  0.00  0.00    +0.000 A 
ATOM     12  C   UNL     1       4.449   3.985  17.385  0.00  0.00    +0.000 A 
ATOM     13  C   UNL     1       3.510   2.962  17.278  0.00  0.00    +0.000 A 
ATOM     14  C   UNL     1       2.188   3.209  17.636  0.00  0.00    +0.000 A 
ATOM     15  C   UNL     1       1.811   4.467  18.113  0.00  0.00    +0.000 A 
ATOM     16  C   UNL     1       2.739   5.514  18.243  0.00  0.00    +0.000 A 
ATOM     17  N   UNL     1       5.782   3.719  17.063  0.00  0.00    +0.000 N 
ATOM     18  H   UNL     1       6.091   2.786  16.828  0.00  0.00    +0.000 HD
ENDBRANCH   1  16
BRANCH   4  19
ATOM     19  C   UNL     1       0.016   9.307  19.655  0.00  0.00    +0.000 C 
BRANCH  19  20
ATOM     20  C   UNL     1      -0.706  10.295  20.576  0.00  0.00    +0.000 C 
BRANCH  20  21
ATOM     21  C   UNL     1      -0.841  11.669  19.930  0.00  0.00    +0.000 C 
BRANCH  21  22
ATOM     22  C   UNL     1      -2.181  11.847  19.298  0.00  0.00    +0.000 A 
ATOM     23  C   UNL     1      -3.253  12.508  19.855  0.00  0.00    +0.000 A 
ATOM     24  N   UNL     1      -4.298  12.430  18.979  0.00  0.00    +0.000 N 
ATOM     25  C   UNL     1      -3.935  11.723  17.859  0.00  0.00    +0.000 A 
ATOM     26  C   UNL     1      -4.685  11.370  16.732  0.00  0.00    +0.000 A 
ATOM     27  C   UNL     1      -4.042  10.644  15.726  0.00  0.00    +0.000 A 
ATOM     28  C   UNL     1      -2.698  10.301  15.835  0.00  0.00    +0.000 A 
ATOM     29  C   UNL     1      -1.960  10.661  16.971  0.00  0.00    +0.000 A 
ATOM     30  C   UNL     1      -2.594  11.370  18.013  0.00  0.00    +0.000 A 
ATOM     31  H   UNL     1      -5.215  12.824  19.132  0.00  0.00    +0.000 HD
ENDBRANCH  21  22
ENDBRANCH  20  21
ENDBRANCH  19  20
ENDBRANCH   4  19
TORSDOF 5
ENDMDL
MODEL 5
REMARK VINA RESULT:      -8.2      2.590      7.847
REMARK  Name = 
REMARK  5 active torsions:
REMARK  status: ('A' for Active; 'I' for Inactive)
REMARK    1  A    between atoms: C_10  and  N_11
REMARK    2  A    between atoms: N_14  and  C_15
REMARK    3  A    between atoms: C_15  and  C_16
REMARK    4  A    between atoms: C_16  and  C_17
REMARK    5  A    between atoms: C_17  and  C_18
REMARK                            x       y       z     vdW  Elec       q    Type
REMARK                         _______ _______ _______ _____ _____    ______ ____
ROOT
ATOM      1  N   UNL     1       3.781   3.699  17.179  0.00  0.00    +0.000 N 
ATOM      2  C   UNL     1       2.708   4.639  17.522  0.00  0.00    +0.000 C 
ATOM      3  C   UNL     1       1.452   3.850  17.961  0.00  0.00    +0.000 C 
ATOM      4  N   UNL     1       1.691   2.878  19.062  0.00  0.00    +0.000 NA
ATOM      5  C   UNL     1       2.779   1.967  18.616  0.00  0.00    +0.000 C 
ATOM      6  C   UNL     1       4.085   2.691  18.211  0.00  0.00    +0.000 C 
ENDROOT
BRANCH   1  16
ATOM      7  O   UNL     1       8.127   8.205  17.823  0.00  0.00    +0.000 OA
ATOM      8  C   UNL     1       7.357   7.318  17.449  0.00  0.00    +0.000 C 
ATOM      9  C   UNL     1       6.002   7.058  18.091  0.00  0.00    +0.000 C 
ATOM     10  O   UNL     1       5.442   5.768  17.953  0.00  0.00    +0.000 OA
ATOM     11  C   UNL     1       5.667   5.179  16.729  0.00  0.00    +0.000 A 
ATOM     12  C   UNL     1       6.769   5.538  15.937  0.00  0.00    +0.000 A 
ATOM     13  C   UNL     1       7.048   4.850  14.759  0.00  0.00    +0.000 A 
ATOM     14  C   UNL     1       6.218   3.805  14.365  0.00  0.00    +0.000 A 
ATOM     15  C   UNL     1       5.124   3.439  15.154  0.00  0.00    +0.000 A 
ATOM     16  C   UNL     1       4.825   4.106  16.354  0.00  0.00    +0.000 A 
ATOM     17  N   UNL     1       7.629   6.559  16.348  0.00  0.00    +0.000 N 
ATOM     18  H   UNL     1       8.486   6.756  15.850  0.00  0.00    +0.000 HD
ENDBRANCH   1  16
BRANCH   4  19
ATOM     19  C   UNL     1       2.036   3.568  20.319  0.00  0.00    +0.000 C 
BRANCH  19  20
ATOM     20  C   UNL     1       1.254   4.871  20.513  0.00  0.00    +0.000 C 
BRANCH  20  21
ATOM     21  C   UNL     1       2.161   6.006  20.975  0.00  0.00    +0.000 C 
BRANCH  21  22
ATOM     22  C   UNL     1       1.818   7.291  20.297  0.00  0.00    +0.000 A 
ATOM     23  C   UNL     1       2.192   7.654  19.022  0.00  0.00    +0.000 A 
ATOM     24  N   UNL     1       1.708   8.907  18.781  0.00  0.00    +0.000 N 
ATOM     25  C   UNL     1       1.028   9.379  19.877  0.00  0.00    +0.000 A 
ATOM     26  C   UNL     1       0.402  10.613  20.089  0.00  0.00    +0.000 A 
ATOM     27  C   UNL     1      -0.231  10.817  21.318  0.00  0.00    +0.000 A 
ATOM     28  C   UNL     1      -0.252   9.820  22.289  0.00  0.00    +0.000 A 
ATOM     29  C   UNL     1       0.380   8.590  22.062  0.00  0.00    +0.000 A 
ATOM     30  C   UNL     1       1.049   8.369  20.839  0.00  0.00    +0.000 A 
ATOM     31  H   UNL     1       1.837   9.425  17.924  0.00  0.00    +0.000 HD
ENDBRANCH  21  22
ENDBRANCH  20  21
ENDBRANCH  19  20
ENDBRANCH   4  19
TORSDOF 5
ENDMDL
MODEL 6
REMARK VINA RESULT:      -8.1      2.660      3.952
REMARK  Name = 
REMARK  5 active torsions:
REMARK  status: ('A' for Active; 'I' for Inactive)
REMARK    1  A    between atoms: C_10  and  N_11
REMARK    2  A    between atoms: N_14  and  C_15
REMARK    3  A    between atoms: C_15  and  C_16
REMARK    4  A    between atoms: C_16  and  C_17
REMARK    5  A    between atoms: C_17  and  C_18
REMARK                            x       y       z     vdW  Elec       q    Type
REMARK                         _______ _______ _______ _____ _____    ______ ____
ROOT
ATOM      1  N   UNL     1       1.159   9.512  19.165  0.00  0.00    +0.000 N 
ATOM      2  C   UNL     1       1.639   9.237  17.805  0.00  0.00    +0.000 C 
ATOM      3  C   UNL     1       2.895   8.335  17.875  0.00  0.00    +0.000 C 
ATOM      4  N   UNL     1       2.706   7.078  18.647  0.00  0.00    +0.000 NA
ATOM      5  C   UNL     1       2.234   7.460  20.004  0.00  0.00    +0.000 C 
ATOM      6  C   UNL     1       0.949   8.322  20.008  0.00  0.00    +0.000 C 
ENDROOT
BRANCH   1  16
ATOM      7  O   UNL     1      -4.304  11.353  16.641  0.00  0.00    +0.000 OA
ATOM      8  C   UNL     1      -3.229  11.234  17.232  0.00  0.00    +0.000 C 
ATOM      9  C   UNL     1      -2.128  10.283  16.788  0.00  0.00    +0.000 C 
ATOM     10  O   UNL     1      -1.195   9.851  17.758  0.00  0.00    +0.000 OA
ATOM     11  C   UNL     1      -0.844  10.816  18.676  0.00  0.00    +0.000 A 
ATOM     12  C   UNL     1      -1.700  11.888  18.975  0.00  0.00    +0.000 A 
ATOM     13  C   UNL     1      -1.381  12.787  19.989  0.00  0.00    +0.000 A 
ATOM     14  C   UNL     1      -0.199  12.620  20.704  0.00  0.00    +0.000 A 
ATOM     15  C   UNL     1       0.653  11.549  20.415  0.00  0.00    +0.000 A 
ATOM     16  C   UNL     1       0.352  10.620  19.406  0.00  0.00    +0.000 A 
ATOM     17  N   UNL     1      -2.907  12.037  18.288  0.00  0.00    +0.000 N 
ATOM     18  H   UNL     1      -3.585  12.734  18.563  0.00  0.00    +0.000 HD
ENDBRANCH   1  16
BRANCH   4  19
ATOM     19  C   UNL     1       1.755   6.174  17.972  0.00  0.00    +0.000 C 
BRANCH  19  20
ATOM     20  C   UNL     1       1.741   4.767  18.580  0.00  0.00    +0.000 C 
BRANCH  20  21
ATOM     21  C   UNL     1       2.519   3.777  17.721  0.00  0.00    +0.000 C 
BRANCH  21  22
ATOM     22  C   UNL     1       3.992   3.934  17.903  0.00  0.00    +0.000 A 
ATOM     23  C   UNL     1       4.672   3.834  19.097  0.00  0.00    +0.000 A 
ATOM     24  N   UNL     1       5.994   4.066  18.851  0.00  0.00    +0.000 N 
ATOM     25  C   UNL     1       6.197   4.325  17.517  0.00  0.00    +0.000 A 
ATOM     26  C   UNL     1       7.372   4.647  16.828  0.00  0.00    +0.000 A 
ATOM     27  C   UNL     1       7.280   4.852  15.449  0.00  0.00    +0.000 A 
ATOM     28  C   UNL     1       6.064   4.722  14.783  0.00  0.00    +0.000 A 
ATOM     29  C   UNL     1       4.897   4.401  15.488  0.00  0.00    +0.000 A 
ATOM     30  C   UNL     1       4.958   4.215  16.885  0.00  0.00    +0.000 A 
ATOM     31  H   UNL     1       6.725   4.061  19.547  0.00  0.00    +0.000 HD
ENDBRANCH  21  22
ENDBRANCH  20  21
ENDBRANCH  19  20
ENDBRANCH   4  19
TORSDOF 5
ENDMDL
MODEL 7
REMARK VINA RESULT:      -8.1      5.344      7.408
REMARK  Name = 
REMARK  5 active torsions:
REMARK  status: ('A' for Active; 'I' for Inactive)
REMARK    1  A    between atoms: C_10  and  N_11
REMARK    2  A    between atoms: N_14  and  C_15
REMARK    3  A    between atoms: C_15  and  C_16
REMARK    4  A    between atoms: C_16  and  C_17
REMARK    5  A    between atoms: C_17  and  C_18
REMARK                            x       y       z     vdW  Elec       q    Type
REMARK                         _______ _______ _______ _____ _____    ______ ____
ROOT
ATOM      1  N   UNL     1       4.833   4.764  18.197  0.00  0.00    +0.000 N 
ATOM      2  C   UNL     1       5.351   5.491  19.363  0.00  0.00    +0.000 C 
ATOM      3  C   UNL     1       6.893   5.371  19.402  0.00  0.00    +0.000 C 
ATOM      4  N   UNL     1       7.575   5.799  18.151  0.00  0.00    +0.000 NA
ATOM      5  C   UNL     1       6.995   5.001  17.038  0.00  0.00    +0.000 C 
ATOM      6  C   UNL     1       5.457   5.118  16.910  0.00  0.00    +0.000 C 
ENDROOT
BRANCH   1  16
ATOM      7  O   UNL     1       1.195   2.099  22.586  0.00  0.00    +0.000 OA
ATOM      8  C   UNL     1       1.717   2.549  21.564  0.00  0.00    +0.000 C 
ATOM      9  C   UNL     1       3.221   2.691  21.383  0.00  0.00    +0.000 C 
ATOM     10  O   UNL     1       3.688   3.642  20.448  0.00  0.00    +0.000 OA
ATOM     11  C   UNL     1       2.917   3.746  19.312  0.00  0.00    +0.000 A 
ATOM     12  C   UNL     1       1.558   3.396  19.315  0.00  0.00    +0.000 A 
ATOM     13  C   UNL     1       0.766   3.619  18.192  0.00  0.00    +0.000 A 
ATOM     14  C   UNL     1       1.336   4.187  17.056  0.00  0.00    +0.000 A 
ATOM     15  C   UNL     1       2.687   4.544  17.050  0.00  0.00    +0.000 A 
ATOM     16  C   UNL     1       3.507   4.343  18.173  0.00  0.00    +0.000 A 
ATOM     17  N   UNL     1       0.971   2.864  20.466  0.00  0.00    +0.000 N 
ATOM     18  H   UNL     1      -0.026   2.709  20.523  0.00  0.00    +0.000 HD
ENDBRANCH   1  16
BRANCH   4  19
ATOM     19  C   UNL     1       7.417   7.248  17.925  0.00  0.00    +0.000 C 
BRANCH  19  20
ATOM     20  C   UNL     1       8.479   8.079  18.653  0.00  0.00    +0.000 C 
BRANCH  20  21
ATOM     21  C   UNL     1       8.501   9.520  18.156  0.00  0.00    +0.000 C 
BRANCH  21  22
ATOM     22  C   UNL     1       9.288  10.402  19.068  0.00  0.00    +0.000 A 
ATOM     23  C   UNL     1       9.147  10.475  20.436  0.00  0.00    +0.000 A 
ATOM     24  N   UNL     1      10.024  11.413  20.901  0.00  0.00    +0.000 N 
ATOM     25  C   UNL     1      10.735  11.963  19.861  0.00  0.00    +0.000 A 
ATOM     26  C   UNL     1      11.705  12.972  19.866  0.00  0.00    +0.000 A 
ATOM     27  C   UNL     1      12.275  13.328  18.641  0.00  0.00    +0.000 A 
ATOM     28  C   UNL     1      11.902  12.689  17.462  0.00  0.00    +0.000 A 
ATOM     29  C   UNL     1      10.929  11.681  17.475  0.00  0.00    +0.000 A 
ATOM     30  C   UNL     1      10.318  11.322  18.695  0.00  0.00    +0.000 A 
ATOM     31  H   UNL     1      10.133  11.678  21.869  0.00  0.00    +0.000 HD
ENDBRANCH  21  22
ENDBRANCH  20  21
ENDBRANCH  19  20
ENDBRANCH   4  19
TORSDOF 5
ENDMDL
MODEL 8
REMARK VINA RESULT:      -8.1      5.134      7.244
REMARK  Name = 
REMARK  5 active torsions:
REMARK  status: ('A' for Active; 'I' for Inactive)
REMARK    1  A    between atoms: C_10  and  N_11
REMARK    2  A    between atoms: N_14  and  C_15
REMARK    3  A    between atoms: C_15  and  C_16
REMARK    4  A    between atoms: C_16  and  C_17
REMARK    5  A    between atoms: C_17  and  C_18
REMARK                            x       y       z     vdW  Elec       q    Type
REMARK                         _______ _______ _______ _____ _____    ______ ____
ROOT
ATOM      1  N   UNL     1       5.345   4.641  17.949  0.00  0.00    +0.000 N 
ATOM      2  C   UNL     1       6.268   5.201  18.944  0.00  0.00    +0.000 C 
ATOM      3  C   UNL     1       7.670   5.367  18.310  0.00  0.00    +0.000 C 
ATOM      4  N   UNL     1       7.685   6.160  17.052  0.00  0.00    +0.000 NA
ATOM      5  C   UNL     1       6.735   5.511  16.110  0.00  0.00    +0.000 C 
ATOM      6  C   UNL     1       5.298   5.361  16.663  0.00  0.00    +0.000 C 
ENDROOT
BRANCH   1  16
ATOM      7  O   UNL     1       0.296   6.677  21.105  0.00  0.00    +0.000 OA
ATOM      8  C   UNL     1       1.188   6.042  20.540  0.00  0.00    +0.000 C 
ATOM      9  C   UNL     1       2.611   6.557  20.378  0.00  0.00    +0.000 C 
ATOM     10  O   UNL     1       3.390   6.028  19.325  0.00  0.00    +0.000 OA
ATOM     11  C   UNL     1       3.189   4.686  19.088  0.00  0.00    +0.000 A 
ATOM     12  C   UNL     1       1.984   4.055  19.436  0.00  0.00    +0.000 A 
ATOM     13  C   UNL     1       1.752   2.728  19.082  0.00  0.00    +0.000 A 
ATOM     14  C   UNL     1       2.730   2.026  18.386  0.00  0.00    +0.000 A 
ATOM     15  C   UNL     1       3.929   2.652  18.031  0.00  0.00    +0.000 A 
ATOM     16  C   UNL     1       4.185   3.993  18.363  0.00  0.00    +0.000 A 
ATOM     17  N   UNL     1       0.981   4.767  20.098  0.00  0.00    +0.000 N 
ATOM     18  H   UNL     1       0.069   4.365  20.258  0.00  0.00    +0.000 HD
ENDBRANCH   1  16
BRANCH   4  19
ATOM     19  C   UNL     1       7.328   7.569  17.304  0.00  0.00    +0.000 C 
BRANCH  19  20
ATOM     20  C   UNL     1       8.330   8.279  18.220  0.00  0.00    +0.000 C 
BRANCH  20  21
ATOM     21  C   UNL     1       8.459   9.758  17.872  0.00  0.00    +0.000 C 
BRANCH  21  22
ATOM     22  C   UNL     1       9.263  10.492  18.893  0.00  0.00    +0.000 A 
ATOM     23  C   UNL     1       9.116  10.392  20.259  0.00  0.00    +0.000 A 
ATOM     24  N   UNL     1      10.016  11.237  20.843  0.00  0.00    +0.000 N 
ATOM     25  C   UNL     1      10.747  11.897  19.885  0.00  0.00    +0.000 A 
ATOM     26  C   UNL     1      11.744  12.870  20.023  0.00  0.00    +0.000 A 
ATOM     27  C   UNL     1      12.331  13.366  18.856  0.00  0.00    +0.000 A 
ATOM     28  C   UNL     1      11.948  12.895  17.603  0.00  0.00    +0.000 A 
ATOM     29  C   UNL     1      10.948  11.921  17.483  0.00  0.00    +0.000 A 
ATOM     30  C   UNL     1      10.320  11.424  18.645  0.00  0.00    +0.000 A 
ATOM     31  H   UNL     1      10.125  11.372  21.837  0.00  0.00    +0.000 HD
ENDBRANCH  21  22
ENDBRANCH  20  21
ENDBRANCH  19  20
ENDBRANCH   4  19
TORSDOF 5
ENDMDL
MODEL 9
REMARK VINA RESULT:      -8.0      4.149      9.966
REMARK  Name = 
REMARK  5 active torsions:
REMARK  status: ('A' for Active; 'I' for Inactive)
REMARK    1  A    between atoms: C_10  and  N_11
REMARK    2  A    between atoms: N_14  and  C_15
REMARK    3  A    between atoms: C_15  and  C_16
REMARK    4  A    between atoms: C_16  and  C_17
REMARK    5  A    between atoms: C_17  and  C_18
REMARK                            x       y       z     vdW  Elec       q    Type
REMARK                         _______ _______ _______ _____ _____    ______ ____
ROOT
ATOM      1  N   UNL     1       2.406   7.316  19.162  0.00  0.00    +0.000 N 
ATOM      2  C   UNL     1       1.462   7.884  20.132  0.00  0.00    +0.000 C 
ATOM      3  C   UNL     1       1.510   9.428  20.055  0.00  0.00    +0.000 C 
ATOM      4  N   UNL     1       1.286   9.983  18.692  0.00  0.00    +0.000 NA
ATOM      5  C   UNL     1       2.293   9.361  17.792  0.00  0.00    +0.000 C 
ATOM      6  C   UNL     1       2.264   7.813  17.783  0.00  0.00    +0.000 C 
ENDROOT
BRANCH   1  16
ATOM      7  O   UNL     1       7.744   4.522  17.344  0.00  0.00    +0.000 OA
ATOM      8  C   UNL     1       6.620   4.826  17.747  0.00  0.00    +0.000 C 
ATOM      9  C   UNL     1       5.878   6.078  17.302  0.00  0.00    +0.000 C 
ATOM     10  O   UNL     1       4.876   6.591  18.156  0.00  0.00    +0.000 OA
ATOM     11  C   UNL     1       4.130   5.629  18.799  0.00  0.00    +0.000 A 
ATOM     12  C   UNL     1       4.644   4.345  19.038  0.00  0.00    +0.000 A 
ATOM     13  C   UNL     1       3.923   3.423  19.793  0.00  0.00    +0.000 A 
ATOM     14  C   UNL     1       2.681   3.783  20.306  0.00  0.00    +0.000 A 
ATOM     15  C   UNL     1       2.168   5.063  20.078  0.00  0.00    +0.000 A 
ATOM     16  C   UNL     1       2.878   6.018  19.330  0.00  0.00    +0.000 A 
ATOM     17  N   UNL     1       5.908   3.991  18.561  0.00  0.00    +0.000 N 
ATOM     18  H   UNL     1       6.340   3.114  18.815  0.00  0.00    +0.000 HD
ENDBRANCH   1  16
BRANCH   4  19
ATOM     19  C   UNL     1      -0.091   9.727  18.231  0.00  0.00    +0.000 C 
BRANCH  19  20
ATOM     20  C   UNL     1      -1.145  10.430  19.093  0.00  0.00    +0.000 C 
BRANCH  20  21
ATOM     21  C   UNL     1      -1.654  11.705  18.431  0.00  0.00    +0.000 C 
BRANCH  21  22
ATOM     22  C   UNL     1      -3.018  11.516  17.857  0.00  0.00    +0.000 A 
ATOM     23  C   UNL     1      -3.304  11.049  16.593  0.00  0.00    +0.000 A 
ATOM     24  N   UNL     1      -4.660  11.047  16.441  0.00  0.00    +0.000 N 
ATOM     25  C   UNL     1      -5.273  11.511  17.579  0.00  0.00    +0.000 A 
ATOM     26  C   UNL     1      -6.630  11.711  17.856  0.00  0.00    +0.000 A 
ATOM     27  C   UNL     1      -6.969  12.193  19.123  0.00  0.00    +0.000 A 
ATOM     28  C   UNL     1      -5.992  12.448  20.080  0.00  0.00    +0.000 A 
ATOM     29  C   UNL     1      -4.637  12.244  19.786  0.00  0.00    +0.000 A 
ATOM     30  C   UNL     1      -4.266  11.784  18.505  0.00  0.00    +0.000 A 
ATOM     31  H   UNL     1      -5.151  10.757  15.607  0.00  0.00    +0.000 HD
ENDBRANCH  21  22
ENDBRANCH  20  21
ENDBRANCH  19  20
ENDBRANCH   4  19
TORSDOF 5
ENDMDL
