MODEL 1
REMARK VINA RESULT:      -8.1      0.000      0.000
REMARK  Name = 
REMARK  3 active torsions:
REMARK  status: ('A' for Active; 'I' for Inactive)
REMARK    1  A    between atoms: C_2  and  C_3
REMARK    2  A    between atoms: C_3  and  C_4
REMARK    3  A    between atoms: C_7  and  N_8
REMARK                            x       y       z     vdW  Elec       q    Type
REMARK                         _______ _______ _______ _____ _____    ______ ____
ROOT
ATOM      1  C   UNL     1       2.527   7.324  17.557  0.00  0.00    +0.000 C 
ENDROOT
BRANCH   1   3
ATOM      2  O   UNL     1       2.013   5.112  18.375  0.00  0.00    +0.000 OA
ATOM      3  C   UNL     1       2.859   5.875  17.895  0.00  0.00    +0.000 C 
ATOM      4  N   UNL     1       4.158   5.407  17.593  0.00  0.00    +0.000 N 
ATOM      5  C   UNL     1       4.450   4.004  17.967  0.00  0.00    +0.000 C 
ATOM      6  C   UNL     1       5.230   4.102  19.281  0.00  0.00    +0.000 C 
ATOM      7  C   UNL     1       6.043   5.314  18.932  0.00  0.00    +0.000 A 
ATOM      8  C   UNL     1       7.352   5.565  19.309  0.00  0.00    +0.000 A 
ATOM      9  C   UNL     1       8.043   6.539  18.592  0.00  0.00    +0.000 A 
ATOM     10  C   UNL     1       7.406   7.258  17.573  0.00  0.00    +0.000 A 
ATOM     11  C   UNL     1       6.045   7.058  17.265  0.00  0.00    +0.000 A 
ATOM     12  C   UNL     1       5.360   6.084  17.971  0.00  0.00    +0.000 A 
ENDBRANCH   1   3
BRANCH   1  13
ATOM     13  C   UNL     1       1.988   8.254  18.658  0.00  0.00    +0.000 A 
ATOM     14  C   UNL     1       1.374   9.456  18.266  0.00  0.00    +0.000 A 
ATOM     15  C   UNL     1       0.638  10.250  19.168  0.00  0.00    +0.000 A 
ATOM     16  C   UNL     1       0.493   9.868  20.506  0.00  0.00    +0.000 A 
ATOM     17  C   UNL     1       1.170   8.716  20.931  0.00  0.00    +0.000 A 
ATOM     18  C   UNL     1       1.899   7.919  20.017  0.00  0.00    +0.000 A 
BRANCH  16  19
ATOM     19  N   UNL     1      -0.364  10.605  21.396  0.00  0.00    +0.000 N 
ATOM     20  C   UNL     1      -1.133  11.713  21.072  0.00  0.00    +0.000 A 
ATOM     21  C   UNL     1      -1.873  12.106  22.173  0.00  0.00    +0.000 A 
ATOM     22  C   UNL     1      -1.545  11.223  23.222  0.00  0.00    +0.000 A 
ATOM     23  C   UNL     1      -0.625  10.325  22.726  0.00  0.00    +0.000 A 
ENDBRANCH  16  19
ENDBRANCH   1  13
TORSDOF 3
ENDMDL
MODEL 2
REMARK VINA RESULT:      -8.1      1.610      3.230
REMARK  Name = 
REMARK  3 active torsions:
REMARK  status: ('A' for Active; 'I' for Inactive)
REMARK    1  A    between atoms: C_2  and  C_3
REMARK    2  A    between atoms: C_3  and  C_4
REMARK    3  A    between atoms: C_7  and  N_8
REMARK                            x       y       z     vdW  Elec       q    Type
REMARK                         _______ _______ _______ _____ _____    ______ ____
ROOT
ATOM      1  C   UNL     1       2.595   7.414  17.632  0.00  0.00    +0.000 C 
ENDROOT
BRANCH   1   3
ATOM      2  O   UNL     1       4.963   7.001  17.424  0.00  0.00    +0.000 OA
ATOM      3  C   UNL     1       3.884   6.652  17.916  0.00  0.00    +0.000 C 
ATOM      4  N   UNL     1       3.822   5.556  18.807  0.00  0.00    +0.000 N 
ATOM      5  C   UNL     1       5.089   4.824  19.030  0.00  0.00    +0.000 C 
ATOM      6  C   UNL     1       4.987   3.583  18.138  0.00  0.00    +0.000 C 
ATOM      7  C   UNL     1       3.530   3.305  18.361  0.00  0.00    +0.000 A 
ATOM      8  C   UNL     1       2.931   2.058  18.435  0.00  0.00    +0.000 A 
ATOM      9  C   UNL     1       1.664   1.997  19.011  0.00  0.00    +0.000 A 
ATOM     10  C   UNL     1       1.020   3.165  19.440  0.00  0.00    +0.000 A 
ATOM     11  C   UNL     1       1.603   4.437  19.270  0.00  0.00    +0.000 A 
ATOM     12  C   UNL     1       2.866   4.497  18.708  0.00  0.00    +0.000 A 
ENDBRANCH   1   3
BRANCH   1  13
ATOM     13  C   UNL     1       2.003   8.331  18.716  0.00  0.00    +0.000 A 
ATOM     14  C   UNL     1       1.441   9.555  18.314  0.00  0.00    +0.000 A 
ATOM     15  C   UNL     1       0.663  10.345  19.184  0.00  0.00    +0.000 A 
ATOM     16  C   UNL     1       0.422   9.937  20.499  0.00  0.00    +0.000 A 
ATOM     17  C   UNL     1       1.045   8.761  20.941  0.00  0.00    +0.000 A 
ATOM     18  C   UNL     1       1.818   7.968  20.059  0.00  0.00    +0.000 A 
BRANCH  16  19
ATOM     19  N   UNL     1      -0.477  10.672  21.349  0.00  0.00    +0.000 N 
ATOM     20  C   UNL     1      -0.683  10.468  22.705  0.00  0.00    +0.000 A 
ATOM     21  C   UNL     1      -1.571  11.411  23.189  0.00  0.00    +0.000 A 
ATOM     22  C   UNL     1      -1.942  12.222  22.097  0.00  0.00    +0.000 A 
ATOM     23  C   UNL     1      -1.268  11.751  20.992  0.00  0.00    +0.000 A 
ENDBRANCH  16  19
ENDBRANCH   1  13
TORSDOF 3
ENDMDL
MODEL 3
REMARK VINA RESULT:      -7.8      2.238      3.837
REMARK  Name = 
REMARK  3 active torsions:
REMARK  status: ('A' for Active; 'I' for Inactive)
REMARK    1  A    between atoms: C_2  and  C_3
REMARK    2  A    between atoms: C_3  and  C_4
REMARK    3  A    between atoms: C_7  and  N_8
REMARK                            x       y       z     vdW  Elec       q    Type
REMARK                         _______ _______ _______ _____ _____    ______ ____
ROOT
ATOM      1  C   UNL     1       4.255   6.530  18.367  0.00  0.00    +0.000 C 
ENDROOT
BRANCH   1   3
ATOM      2  O   UNL     1       4.297   5.122  16.407  0.00  0.00    +0.000 OA
ATOM      3  C   UNL     1       4.162   5.197  17.633  0.00  0.00    +0.000 C 
ATOM      4  N   UNL     1       3.969   4.029  18.406  0.00  0.00    +0.000 N 
ATOM      5  C   UNL     1       3.852   2.760  17.653  0.00  0.00    +0.000 C 
ATOM      6  C   UNL     1       2.348   2.478  17.590  0.00  0.00    +0.000 C 
ATOM      7  C   UNL     1       2.007   2.943  18.975  0.00  0.00    +0.000 A 
ATOM      8  C   UNL     1       1.048   2.399  19.814  0.00  0.00    +0.000 A 
ATOM      9  C   UNL     1       1.136   2.716  21.168  0.00  0.00    +0.000 A 
ATOM     10  C   UNL     1       2.127   3.592  21.630  0.00  0.00    +0.000 A 
ATOM     11  C   UNL     1       3.036   4.213  20.750  0.00  0.00    +0.000 A 
ATOM     12  C   UNL     1       2.955   3.890  19.406  0.00  0.00    +0.000 A 
ENDBRANCH   1   3
BRANCH   1  13
ATOM     13  C   UNL     1       3.000   7.408  18.503  0.00  0.00    +0.000 A 
ATOM     14  C   UNL     1       2.333   7.423  19.741  0.00  0.00    +0.000 A 
ATOM     15  C   UNL     1       1.333   8.369  20.041  0.00  0.00    +0.000 A 
ATOM     16  C   UNL     1       0.957   9.337  19.105  0.00  0.00    +0.000 A 
ATOM     17  C   UNL     1       1.552   9.282  17.837  0.00  0.00    +0.000 A 
ATOM     18  C   UNL     1       2.563   8.335  17.545  0.00  0.00    +0.000 A 
BRANCH  16  19
ATOM     19  N   UNL     1       0.032  10.383  19.454  0.00  0.00    +0.000 N 
ATOM     20  C   UNL     1      -0.959  10.912  18.641  0.00  0.00    +0.000 A 
ATOM     21  C   UNL     1      -1.688  11.853  19.345  0.00  0.00    +0.000 A 
ATOM     22  C   UNL     1      -1.125  11.923  20.636  0.00  0.00    +0.000 A 
ATOM     23  C   UNL     1      -0.081  11.025  20.675  0.00  0.00    +0.000 A 
ENDBRANCH  16  19
ENDBRANCH   1  13
TORSDOF 3
ENDMDL
MODEL 4
REMARK VINA RESULT:      -7.8      1.995      2.554
REMARK  Name = 
REMARK  3 active torsions:
REMARK  status: ('A' for Active; 'I' for Inactive)
REMARK    1  A    between atoms: C_2  and  C_3
REMARK    2  A    between atoms: C_3  and  C_4
REMARK    3  A    between atoms: C_7  and  N_8
REMARK                            x       y       z     vdW  Elec       q    Type
REMARK                         _______ _______ _______ _____ _____    ______ ____
ROOT
ATOM      1  C   UNL     1       2.629   6.475  20.310  0.00  0.00    +0.000 C 
ENDROOT
BRANCH   1   3
ATOM      2  O   UNL     1       1.477   4.358  20.186  0.00  0.00    +0.000 OA
ATOM      3  C   UNL     1       2.112   5.235  19.590  0.00  0.00    +0.000 C 
ATOM      4  N   UNL     1       2.335   5.137  18.197  0.00  0.00    +0.000 N 
ATOM      5  C   UNL     1       1.845   3.903  17.543  0.00  0.00    +0.000 C 
ATOM      6  C   UNL     1       3.087   3.019  17.393  0.00  0.00    +0.000 C 
ATOM      7  C   UNL     1       4.058   4.108  17.046  0.00  0.00    +0.000 A 
ATOM      8  C   UNL     1       5.126   4.012  16.169  0.00  0.00    +0.000 A 
ATOM      9  C   UNL     1       5.671   5.205  15.700  0.00  0.00    +0.000 A 
ATOM     10  C   UNL     1       5.180   6.437  16.151  0.00  0.00    +0.000 A 
ATOM     11  C   UNL     1       4.157   6.518  17.117  0.00  0.00    +0.000 A 
ATOM     12  C   UNL     1       3.608   5.333  17.575  0.00  0.00    +0.000 A 
ENDBRANCH   1   3
BRANCH   1  13
ATOM     13  C   UNL     1       1.791   7.764  20.296  0.00  0.00    +0.000 A 
ATOM     14  C   UNL     1       1.761   8.521  19.111  0.00  0.00    +0.000 A 
ATOM     15  C   UNL     1       0.841   9.571  18.917  0.00  0.00    +0.000 A 
ATOM     16  C   UNL     1      -0.084   9.906  19.910  0.00  0.00    +0.000 A 
ATOM     17  C   UNL     1      -0.010   9.217  21.128  0.00  0.00    +0.000 A 
ATOM     18  C   UNL     1       0.909   8.157  21.313  0.00  0.00    +0.000 A 
BRANCH  16  19
ATOM     19  N   UNL     1      -1.108  10.888  19.665  0.00  0.00    +0.000 N 
ATOM     20  C   UNL     1      -1.938  10.954  18.556  0.00  0.00    +0.000 A 
ATOM     21  C   UNL     1      -2.837  11.994  18.707  0.00  0.00    +0.000 A 
ATOM     22  C   UNL     1      -2.550  12.605  19.945  0.00  0.00    +0.000 A 
ATOM     23  C   UNL     1      -1.496  11.917  20.504  0.00  0.00    +0.000 A 
ENDBRANCH  16  19
ENDBRANCH   1  13
TORSDOF 3
ENDMDL
MODEL 5
REMARK VINA RESULT:      -7.7      2.349      8.304
REMARK  Name = 
REMARK  3 active torsions:
REMARK  status: ('A' for Active; 'I' for Inactive)
REMARK    1  A    between atoms: C_2  and  C_3
REMARK    2  A    between atoms: C_3  and  C_4
REMARK    3  A    between atoms: C_7  and  N_8
REMARK                            x       y       z     vdW  Elec       q    Type
REMARK                         _______ _______ _______ _____ _____    ______ ____
ROOT
ATOM      1  C   UNL     1       0.932   8.138  20.590  0.00  0.00    +0.000 C 
ENDROOT
BRANCH   1   3
ATOM      2  O   UNL     1       1.253   9.962  22.137  0.00  0.00    +0.000 OA
ATOM      3  C   UNL     1       0.911   9.605  21.005  0.00  0.00    +0.000 C 
ATOM      4  N   UNL     1       0.535  10.561  20.034  0.00  0.00    +0.000 N 
ATOM      5  C   UNL     1       0.497  11.970  20.487  0.00  0.00    +0.000 C 
ATOM      6  C   UNL     1      -0.984  12.257  20.753  0.00  0.00    +0.000 C 
ATOM      7  C   UNL     1      -1.541  11.483  19.595  0.00  0.00    +0.000 A 
ATOM      8  C   UNL     1      -2.654  11.816  18.840  0.00  0.00    +0.000 A 
ATOM      9  C   UNL     1      -2.789  11.194  17.601  0.00  0.00    +0.000 A 
ATOM     10  C   UNL     1      -1.857  10.236  17.180  0.00  0.00    +0.000 A 
ATOM     11  C   UNL     1      -0.783   9.838  18.001  0.00  0.00    +0.000 A 
ATOM     12  C   UNL     1      -0.642  10.463  19.228  0.00  0.00    +0.000 A 
ENDBRANCH   1   3
BRANCH   1  13
ATOM     13  C   UNL     1       2.056   7.626  19.674  0.00  0.00    +0.000 A 
ATOM     14  C   UNL     1       2.595   6.354  19.935  0.00  0.00    +0.000 A 
ATOM     15  C   UNL     1       3.444   5.698  19.021  0.00  0.00    +0.000 A 
ATOM     16  C   UNL     1       3.790   6.299  17.807  0.00  0.00    +0.000 A 
ATOM     17  C   UNL     1       3.330   7.602  17.570  0.00  0.00    +0.000 A 
ATOM     18  C   UNL     1       2.470   8.251  18.488  0.00  0.00    +0.000 A 
BRANCH  16  19
ATOM     19  N   UNL     1       4.548   5.581  16.817  0.00  0.00    +0.000 N 
ATOM     20  C   UNL     1       5.241   6.131  15.749  0.00  0.00    +0.000 A 
ATOM     21  C   UNL     1       5.900   5.133  15.055  0.00  0.00    +0.000 A 
ATOM     22  C   UNL     1       5.598   3.918  15.703  0.00  0.00    +0.000 A 
ATOM     23  C   UNL     1       4.774   4.216  16.766  0.00  0.00    +0.000 A 
ENDBRANCH  16  19
ENDBRANCH   1  13
TORSDOF 3
ENDMDL
MODEL 6
REMARK VINA RESULT:      -7.7      2.109      2.829
REMARK  Name = 
REMARK  3 active torsions:
REMARK  status: ('A' for Active; 'I' for Inactive)
REMARK    1  A    between atoms: C_2  and  C_3
REMARK    2  A    between atoms: C_3  and  C_4
REMARK    3  A    between atoms: C_7  and  N_8
REMARK                            x       y       z     vdW  Elec       q    Type
REMARK                         _______ _______ _______ _____ _____    ______ ____
ROOT
ATOM      1  C   UNL     1       2.657   6.592  20.037  0.00  0.00    +0.000 C 
ENDROOT
BRANCH   1   3
ATOM      2  O   UNL     1       1.613   4.417  20.076  0.00  0.00    +0.000 OA
ATOM      3  C   UNL     1       2.229   5.265  19.422  0.00  0.00    +0.000 C 
ATOM      4  N   UNL     1       2.513   5.048  18.054  0.00  0.00    +0.000 N 
ATOM      5  C   UNL     1       2.109   3.735  17.504  0.00  0.00    +0.000 C 
ATOM      6  C   UNL     1       3.397   2.905  17.484  0.00  0.00    +0.000 C 
ATOM      7  C   UNL     1       4.328   4.006  17.069  0.00  0.00    +0.000 A 
ATOM      8  C   UNL     1       5.434   3.882  16.244  0.00  0.00    +0.000 A 
ATOM      9  C   UNL     1       5.940   5.052  15.682  0.00  0.00    +0.000 A 
ATOM     10  C   UNL     1       5.373   6.294  15.995  0.00  0.00    +0.000 A 
ATOM     11  C   UNL     1       4.309   6.413  16.911  0.00  0.00    +0.000 A 
ATOM     12  C   UNL     1       3.799   5.250  17.462  0.00  0.00    +0.000 A 
ENDBRANCH   1   3
BRANCH   1  13
ATOM     13  C   UNL     1       1.880   7.873  19.691  0.00  0.00    +0.000 A 
ATOM     14  C   UNL     1       1.148   8.501  20.714  0.00  0.00    +0.000 A 
ATOM     15  C   UNL     1       0.611   9.795  20.565  0.00  0.00    +0.000 A 
ATOM     16  C   UNL     1       0.784  10.511  19.376  0.00  0.00    +0.000 A 
ATOM     17  C   UNL     1       1.438   9.865  18.317  0.00  0.00    +0.000 A 
ATOM     18  C   UNL     1       1.983   8.569  18.477  0.00  0.00    +0.000 A 
BRANCH  16  19
ATOM     19  N   UNL     1       0.351  11.879  19.267  0.00  0.00    +0.000 N 
ATOM     20  C   UNL     1      -0.769  12.439  19.862  0.00  0.00    +0.000 A 
ATOM     21  C   UNL     1      -0.820  13.792  19.581  0.00  0.00    +0.000 A 
ATOM     22  C   UNL     1       0.298  14.083  18.773  0.00  0.00    +0.000 A 
ATOM     23  C   UNL     1       0.990  12.905  18.595  0.00  0.00    +0.000 A 
ENDBRANCH  16  19
ENDBRANCH   1  13
TORSDOF 3
ENDMDL
MODEL 7
REMARK VINA RESULT:      -7.7      4.823      7.100
REMARK  Name = 
REMARK  3 active torsions:
REMARK  status: ('A' for Active; 'I' for Inactive)
REMARK    1  A    between atoms: C_2  and  C_3
REMARK    2  A    between atoms: C_3  and  C_4
REMARK    3  A    between atoms: C_7  and  N_8
REMARK                            x       y       z     vdW  Elec       q    Type
REMARK                         _______ _______ _______ _____ _____    ______ ____
ROOT
ATOM      1  C   UNL     1       6.041   4.257  18.187  0.00  0.00    +0.000 C 
ENDROOT
BRANCH   1   3
ATOM      2  O   UNL     1       4.662   4.789  16.280  0.00  0.00    +0.000 OA
ATOM      3  C   UNL     1       4.761   4.200  17.361  0.00  0.00    +0.000 C 
ATOM      4  N   UNL     1       3.698   3.403  17.844  0.00  0.00    +0.000 N 
ATOM      5  C   UNL     1       2.462   3.400  17.029  0.00  0.00    +0.000 C 
ATOM      6  C   UNL     1       1.519   4.374  17.741  0.00  0.00    +0.000 C 
ATOM      7  C   UNL     1       1.881   3.997  19.147  0.00  0.00    +0.000 A 
ATOM      8  C   UNL     1       1.025   3.956  20.236  0.00  0.00    +0.000 A 
ATOM      9  C   UNL     1       1.451   3.236  21.350  0.00  0.00    +0.000 A 
ATOM     10  C   UNL     1       2.716   2.634  21.368  0.00  0.00    +0.000 A 
ATOM     11  C   UNL     1       3.614   2.767  20.290  0.00  0.00    +0.000 A 
ATOM     12  C   UNL     1       3.188   3.473  19.178  0.00  0.00    +0.000 A 
ENDBRANCH   1   3
BRANCH   1  13
ATOM     13  C   UNL     1       6.912   5.524  18.147  0.00  0.00    +0.000 A 
ATOM     14  C   UNL     1       6.599   6.513  17.198  0.00  0.00    +0.000 A 
ATOM     15  C   UNL     1       7.171   7.800  17.241  0.00  0.00    +0.000 A 
ATOM     16  C   UNL     1       8.087   8.145  18.239  0.00  0.00    +0.000 A 
ATOM     17  C   UNL     1       8.473   7.144  19.142  0.00  0.00    +0.000 A 
ATOM     18  C   UNL     1       7.887   5.856  19.100  0.00  0.00    +0.000 A 
BRANCH  16  19
ATOM     19  N   UNL     1       8.572   9.494  18.364  0.00  0.00    +0.000 N 
ATOM     20  C   UNL     1       8.252  10.565  17.543  0.00  0.00    +0.000 A 
ATOM     21  C   UNL     1       8.860  11.714  18.015  0.00  0.00    +0.000 A 
ATOM     22  C   UNL     1       9.595  11.345  19.161  0.00  0.00    +0.000 A 
ATOM     23  C   UNL     1       9.406   9.994  19.348  0.00  0.00    +0.000 A 
ENDBRANCH  16  19
ENDBRANCH   1  13
TORSDOF 3
ENDMDL
MODEL 8
REMARK VINA RESULT:      -7.7      1.569      3.169
REMARK  Name = 
REMARK  3 active torsions:
REMARK  status: ('A' for Active; 'I' for Inactive)
REMARK    1  A    between atoms: C_2  and  C_3
REMARK    2  A    between atoms: C_3  and  C_4
REMARK    3  A    between atoms: C_7  and  N_8
REMARK                            x       y       z     vdW  Elec       q    Type
REMARK                         _______ _______ _______ _____ _____    ______ ____
ROOT
ATOM      1  C   UNL     1       3.068   7.579  17.231  0.00  0.00    +0.000 C 
ENDROOT
BRANCH   1   3
ATOM      2  O   UNL     1       5.434   7.287  17.605  0.00  0.00    +0.000 OA
ATOM      3  C   UNL     1       4.289   6.861  17.794  0.00  0.00    +0.000 C 
ATOM      4  N   UNL     1       4.073   5.714  18.591  0.00  0.00    +0.000 N 
ATOM      5  C   UNL     1       5.286   5.028  19.091  0.00  0.00    +0.000 C 
ATOM      6  C   UNL     1       5.482   3.838  18.147  0.00  0.00    +0.000 C 
ATOM      7  C   UNL     1       4.034   3.482  17.985  0.00  0.00    +0.000 A 
ATOM      8  C   UNL     1       3.510   2.206  17.849  0.00  0.00    +0.000 A 
ATOM      9  C   UNL     1       2.146   2.053  18.085  0.00  0.00    +0.000 A 
ATOM     10  C   UNL     1       1.347   3.163  18.392  0.00  0.00    +0.000 A 
ATOM     11  C   UNL     1       1.878   4.468  18.431  0.00  0.00    +0.000 A 
ATOM     12  C   UNL     1       3.236   4.620  18.207  0.00  0.00    +0.000 A 
ENDBRANCH   1   3
BRANCH   1  13
ATOM     13  C   UNL     1       2.068   8.241  18.194  0.00  0.00    +0.000 A 
ATOM     14  C   UNL     1       2.081   7.840  19.541  0.00  0.00    +0.000 A 
ATOM     15  C   UNL     1       1.386   8.549  20.541  0.00  0.00    +0.000 A 
ATOM     16  C   UNL     1       0.642   9.690  20.224  0.00  0.00    +0.000 A 
ATOM     17  C   UNL     1       0.549  10.053  18.873  0.00  0.00    +0.000 A 
ATOM     18  C   UNL     1       1.258   9.342  17.876  0.00  0.00    +0.000 A 
BRANCH  16  19
ATOM     19  N   UNL     1       0.039  10.490  21.257  0.00  0.00    +0.000 N 
ATOM     20  C   UNL     1      -0.048  11.874  21.284  0.00  0.00    +0.000 A 
ATOM     21  C   UNL     1      -0.753  12.276  22.404  0.00  0.00    +0.000 A 
ATOM     22  C   UNL     1      -1.106  11.106  23.106  0.00  0.00    +0.000 A 
ATOM     23  C   UNL     1      -0.611  10.037  22.392  0.00  0.00    +0.000 A 
ENDBRANCH  16  19
ENDBRANCH   1  13
TORSDOF 3
ENDMDL
MODEL 9
REMARK VINA RESULT:      -7.7      2.569      8.514
REMARK  Name = 
REMARK  3 active torsions:
REMARK  status: ('A' for Active; 'I' for Inactive)
REMARK    1  A    between atoms: C_2  and  C_3
REMARK    2  A    between atoms: C_3  and  C_4
REMARK    3  A    between atoms: C_7  and  N_8
REMARK                            x       y       z     vdW  Elec       q    Type
REMARK                         _______ _______ _______ _____ _____    ______ ____
ROOT
ATOM      1  C   UNL     1       0.375   9.031  20.635  0.00  0.00    +0.000 C 
ENDROOT
BRANCH   1   3
ATOM      2  O   UNL     1       0.574  11.206  21.661  0.00  0.00    +0.000 OA
ATOM      3  C   UNL     1       0.217  10.547  20.679  0.00  0.00    +0.000 C 
ATOM      4  N   UNL     1      -0.306  11.190  19.534  0.00  0.00    +0.000 N 
ATOM      5  C   UNL     1      -0.474  12.658  19.629  0.00  0.00    +0.000 C 
ATOM      6  C   UNL     1      -1.962  12.865  19.926  0.00  0.00    +0.000 C 
ATOM      7  C   UNL     1      -2.488  11.777  19.037  0.00  0.00    +0.000 A 
ATOM      8  C   UNL     1      -3.666  11.806  18.308  0.00  0.00    +0.000 A 
ATOM      9  C   UNL     1      -3.794  10.883  17.273  0.00  0.00    +0.000 A 
ATOM     10  C   UNL     1      -2.786   9.940  17.031  0.00  0.00    +0.000 A 
ATOM     11  C   UNL     1      -1.636   9.861  17.843  0.00  0.00    +0.000 A 
ATOM     12  C   UNL     1      -1.504  10.785  18.865  0.00  0.00    +0.000 A 
ENDBRANCH   1   3
BRANCH   1  13
ATOM     13  C   UNL     1       1.516   8.412  19.810  0.00  0.00    +0.000 A 
ATOM     14  C   UNL     1       2.072   7.200  20.255  0.00  0.00    +0.000 A 
ATOM     15  C   UNL     1       2.940   6.434  19.450  0.00  0.00    +0.000 A 
ATOM     16  C   UNL     1       3.289   6.861  18.165  0.00  0.00    +0.000 A 
ATOM     17  C   UNL     1       2.810   8.108  17.741  0.00  0.00    +0.000 A 
ATOM     18  C   UNL     1       1.932   8.867  18.550  0.00  0.00    +0.000 A 
BRANCH  16  19
ATOM     19  N   UNL     1       4.067   6.021  17.293  0.00  0.00    +0.000 N 
ATOM     20  C   UNL     1       4.031   4.636  17.234  0.00  0.00    +0.000 A 
ATOM     21  C   UNL     1       4.871   4.189  16.230  0.00  0.00    +0.000 A 
ATOM     22  C   UNL     1       5.460   5.332  15.652  0.00  0.00    +0.000 A 
ATOM     23  C   UNL     1       4.959   6.430  16.317  0.00  0.00    +0.000 A 
ENDBRANCH  16  19
ENDBRANCH   1  13
TORSDOF 3
ENDMDL
