MODEL 1
REMARK VINA RESULT:      -8.5      0.000      0.000
REMARK  Name = 
REMARK  7 active torsions:
REMARK  status: ('A' for Active; 'I' for Inactive)
REMARK    1  A    between atoms: C_2  and  C_3
REMARK    2  A    between atoms: N_5  and  C_6
REMARK    3  A    between atoms: C_14  and  C_15
REMARK    4  A    between atoms: C_18  and  O_19
REMARK    5  A    between atoms: O_19  and  C_20
REMARK    6  A    between atoms: C_23  and  O_24
REMARK    7  A    between atoms: O_24  and  C_25
REMARK                            x       y       z     vdW  Elec       q    Type
REMARK                         _______ _______ _______ _____ _____    ______ ____
ROOT
ATOM      1  C   UNL     1      -3.395  12.786  23.317  0.00  0.00    +0.000 C 
ATOM      2  C   UNL     1      -3.733  14.110  24.027  0.00  0.00    +0.000 C 
ATOM      3  C   UNL     1      -2.866  15.273  23.548  0.00  0.00    +0.000 C 
ATOM      4  C   UNL     1      -1.380  14.946  23.634  0.00  0.00    +0.000 C 
ATOM      5  N   UNL     1      -1.115  13.699  22.929  0.00  0.00    +0.000 N 
ATOM      6  C   UNL     1      -0.189  13.611  21.918  0.00  0.00    +0.000 A 
ATOM      7  C   UNL     1       0.922  14.445  21.877  0.00  0.00    +0.000 A 
ATOM      8  C   UNL     1       1.826  14.367  20.822  0.00  0.00    +0.000 A 
ATOM      9  C   UNL     1       1.637  13.435  19.800  0.00  0.00    +0.000 A 
ATOM     10  C   UNL     1       0.525  12.603  19.925  0.00  0.00    +0.000 A 
ATOM     11  N   UNL     1      -0.379  12.698  20.945  0.00  0.00    +0.000 NA
ATOM     12  C   UNL     1      -1.875  12.520  23.358  0.00  0.00    +0.000 C 
ENDROOT
BRANCH   9  13
ATOM     13  C   UNL     1       2.659  13.441  18.718  0.00  0.00    +0.000 C 
ATOM     14  N   UNL     1       2.364  12.917  17.501  0.00  0.00    +0.000 N 
ATOM     15  O   UNL     1       3.782  13.902  18.918  0.00  0.00    +0.000 OA
ATOM     16  H   UNL     1       1.475  12.507  17.261  0.00  0.00    +0.000 HD
ATOM     17  H   UNL     1       3.099  12.924  16.808  0.00  0.00    +0.000 HD
ENDBRANCH   9  13
BRANCH   1  20
ATOM     18  C   UNL     1      -5.235  12.469  21.700  0.00  0.00    +0.000 C 
ATOM     19  O   UNL     1      -6.090  12.352  22.570  0.00  0.00    +0.000 OA
ATOM     20  N   UNL     1      -3.913  12.741  21.951  0.00  0.00    +0.000 N 
ATOM     21  H   UNL     1      -3.238  12.816  21.198  0.00  0.00    +0.000 HD
BRANCH  18  23
ATOM     22  C   UNL     1      -4.555  12.322  19.354  0.00  0.00    +0.000 C 
ATOM     23  C   UNL     1      -5.544  12.299  20.258  0.00  0.00    +0.000 C 
ENDBRANCH  18  23
ENDBRANCH   1  20
BRANCH  10  24
ATOM     24  O   UNL     1       0.248  11.655  18.949  0.00  0.00    +0.000 OA
BRANCH  24  25
ATOM     25  C   UNL     1       0.699  10.362  19.156  0.00  0.00    +0.000 A 
ATOM     26  C   UNL     1       1.311   9.715  18.078  0.00  0.00    +0.000 A 
ATOM     27  C   UNL     1       1.952   8.482  18.266  0.00  0.00    +0.000 A 
ATOM     28  C   UNL     1       1.992   7.898  19.534  0.00  0.00    +0.000 A 
ATOM     29  C   UNL     1       1.267   8.480  20.575  0.00  0.00    +0.000 A 
ATOM     30  C   UNL     1       0.670   9.728  20.400  0.00  0.00    +0.000 A 
BRANCH  28  31
ATOM     31  O   UNL     1       2.745   6.751  19.678  0.00  0.00    +0.000 OA
BRANCH  31  32
ATOM     32  C   UNL     1       2.160   5.518  19.448  0.00  0.00    +0.000 A 
ATOM     33  C   UNL     1       1.633   4.871  20.568  0.00  0.00    +0.000 A 
ATOM     34  C   UNL     1       1.064   3.598  20.446  0.00  0.00    +0.000 A 
ATOM     35  C   UNL     1       1.021   2.967  19.203  0.00  0.00    +0.000 A 
ATOM     36  C   UNL     1       1.501   3.627  18.075  0.00  0.00    +0.000 A 
ATOM     37  C   UNL     1       2.034   4.912  18.193  0.00  0.00    +0.000 A 
ENDBRANCH  31  32
ENDBRANCH  28  31
ENDBRANCH  24  25
ENDBRANCH  10  24
TORSDOF 7
ENDMDL
MODEL 2
REMARK VINA RESULT:      -8.2      1.943      2.889
REMARK  Name = 
REMARK  7 active torsions:
REMARK  status: ('A' for Active; 'I' for Inactive)
REMARK    1  A    between atoms: C_2  and  C_3
REMARK    2  A    between atoms: N_5  and  C_6
REMARK    3  A    between atoms: C_14  and  C_15
REMARK    4  A    between atoms: C_18  and  O_19
REMARK    5  A    between atoms: O_19  and  C_20
REMARK    6  A    between atoms: C_23  and  O_24
REMARK    7  A    between atoms: O_24  and  C_25
REMARK                            x       y       z     vdW  Elec       q    Type
REMARK                         _______ _______ _______ _____ _____    ______ ____
ROOT
ATOM      1  C   UNL     1      -5.227  11.905  19.012  0.00  0.00    +0.000 C 
ATOM      2  C   UNL     1      -6.123  13.102  19.379  0.00  0.00    +0.000 C 
ATOM      3  C   UNL     1      -5.320  14.341  19.769  0.00  0.00    +0.000 C 
ATOM      4  C   UNL     1      -4.303  14.037  20.863  0.00  0.00    +0.000 C 
ATOM      5  N   UNL     1      -3.470  12.914  20.453  0.00  0.00    +0.000 N 
ATOM      6  C   UNL     1      -2.100  12.995  20.407  0.00  0.00    +0.000 A 
ATOM      7  C   UNL     1      -1.395  13.850  21.247  0.00  0.00    +0.000 A 
ATOM      8  C   UNL     1      -0.010  13.949  21.155  0.00  0.00    +0.000 A 
ATOM      9  C   UNL     1       0.690  13.174  20.229  0.00  0.00    +0.000 A 
ATOM     10  C   UNL     1      -0.074  12.309  19.447  0.00  0.00    +0.000 A 
ATOM     11  N   UNL     1      -1.436  12.233  19.516  0.00  0.00    +0.000 NA
ATOM     12  C   UNL     1      -4.162  11.668  20.104  0.00  0.00    +0.000 C 
ENDROOT
BRANCH   9  13
ATOM     13  C   UNL     1       2.167  13.361  20.210  0.00  0.00    +0.000 C 
ATOM     14  N   UNL     1       2.827  13.447  19.027  0.00  0.00    +0.000 N 
ATOM     15  O   UNL     1       2.806  13.422  21.260  0.00  0.00    +0.000 OA
ATOM     16  H   UNL     1       2.381  13.392  18.124  0.00  0.00    +0.000 HD
ATOM     17  H   UNL     1       3.831  13.551  19.067  0.00  0.00    +0.000 HD
ENDBRANCH   9  13
BRANCH   1  20
ATOM     18  C   UNL     1      -3.952  11.010  17.095  0.00  0.00    +0.000 C 
ATOM     19  O   UNL     1      -3.900   9.875  17.553  0.00  0.00    +0.000 OA
ATOM     20  N   UNL     1      -4.620  12.051  17.690  0.00  0.00    +0.000 N 
ATOM     21  H   UNL     1      -4.625  12.979  17.280  0.00  0.00    +0.000 HD
BRANCH  18  23
ATOM     22  C   UNL     1      -2.985  10.456  14.916  0.00  0.00    +0.000 C 
ATOM     23  C   UNL     1      -3.261  11.390  15.837  0.00  0.00    +0.000 C 
ENDBRANCH  18  23
ENDBRANCH   1  20
BRANCH  10  24
ATOM     24  O   UNL     1       0.535  11.509  18.489  0.00  0.00    +0.000 OA
BRANCH  24  25
ATOM     25  C   UNL     1       0.904  10.226  18.856  0.00  0.00    +0.000 A 
ATOM     26  C   UNL     1       1.533   9.437  17.888  0.00  0.00    +0.000 A 
ATOM     27  C   UNL     1       2.097   8.202  18.240  0.00  0.00    +0.000 A 
ATOM     28  C   UNL     1       2.042   7.757  19.563  0.00  0.00    +0.000 A 
ATOM     29  C   UNL     1       1.298   8.483  20.495  0.00  0.00    +0.000 A 
ATOM     30  C   UNL     1       0.779   9.733  20.156  0.00  0.00    +0.000 A 
BRANCH  28  31
ATOM     31  O   UNL     1       2.723   6.598  19.869  0.00  0.00    +0.000 OA
BRANCH  31  32
ATOM     32  C   UNL     1       2.141   5.373  19.597  0.00  0.00    +0.000 A 
ATOM     33  C   UNL     1       1.540   4.726  20.680  0.00  0.00    +0.000 A 
ATOM     34  C   UNL     1       0.967   3.460  20.516  0.00  0.00    +0.000 A 
ATOM     35  C   UNL     1       0.992   2.836  19.270  0.00  0.00    +0.000 A 
ATOM     36  C   UNL     1       1.547   3.496  18.177  0.00  0.00    +0.000 A 
ATOM     37  C   UNL     1       2.085   4.774  18.333  0.00  0.00    +0.000 A 
ENDBRANCH  31  32
ENDBRANCH  28  31
ENDBRANCH  24  25
ENDBRANCH  10  24
TORSDOF 7
ENDMDL
MODEL 3
REMARK VINA RESULT:      -7.7      1.729      2.430
REMARK  Name = 
REMARK  7 active torsions:
REMARK  status: ('A' for Active; 'I' for Inactive)
REMARK    1  A    between atoms: C_2  and  C_3
REMARK    2  A    between atoms: N_5  and  C_6
REMARK    3  A    between atoms: C_14  and  C_15
REMARK    4  A    between atoms: C_18  and  O_19
REMARK    5  A    between atoms: O_19  and  C_20
REMARK    6  A    between atoms: C_23  and  O_24
REMARK    7  A    between atoms: O_24  and  C_25
REMARK                            x       y       z     vdW  Elec       q    Type
REMARK                         _______ _______ _______ _____ _____    ______ ____
ROOT
ATOM      1  C   UNL     1      -5.047  12.805  20.431  0.00  0.00    +0.000 C 
ATOM      2  C   UNL     1      -5.680  14.168  20.765  0.00  0.00    +0.000 C 
ATOM      3  C   UNL     1      -4.710  15.331  20.572  0.00  0.00    +0.000 C 
ATOM      4  C   UNL     1      -3.403  15.111  21.325  0.00  0.00    +0.000 C 
ATOM      5  N   UNL     1      -2.839  13.820  20.954  0.00  0.00    +0.000 N 
ATOM      6  C   UNL     1      -1.565  13.692  20.458  0.00  0.00    +0.000 A 
ATOM      7  C   UNL     1      -0.559  14.588  20.800  0.00  0.00    +0.000 A 
ATOM      8  C   UNL     1       0.714  14.465  20.253  0.00  0.00    +0.000 A 
ATOM      9  C   UNL     1       1.002  13.425  19.367  0.00  0.00    +0.000 A 
ATOM     10  C   UNL     1      -0.041  12.539  19.099  0.00  0.00    +0.000 A 
ATOM     11  N   UNL     1      -1.300  12.676  19.613  0.00  0.00    +0.000 NA
ATOM     12  C   UNL     1      -3.691  12.643  21.152  0.00  0.00    +0.000 C 
ENDROOT
BRANCH   9  13
ATOM     13  C   UNL     1       2.392  13.389  18.836  0.00  0.00    +0.000 C 
ATOM     14  N   UNL     1       2.617  13.056  17.539  0.00  0.00    +0.000 N 
ATOM     15  O   UNL     1       3.349  13.643  19.566  0.00  0.00    +0.000 OA
ATOM     16  H   UNL     1       1.891  12.820  16.881  0.00  0.00    +0.000 HD
ATOM     17  H   UNL     1       3.580  13.023  17.234  0.00  0.00    +0.000 HD
ENDBRANCH   9  13
BRANCH   1  20
ATOM     18  C   UNL     1      -5.493  11.502  18.380  0.00  0.00    +0.000 C 
ATOM     19  O   UNL     1      -6.227  10.702  18.948  0.00  0.00    +0.000 OA
ATOM     20  N   UNL     1      -4.921  12.590  18.990  0.00  0.00    +0.000 N 
ATOM     21  H   UNL     1      -4.308  13.219  18.482  0.00  0.00    +0.000 HD
BRANCH  18  23
ATOM     22  C   UNL     1      -3.843  11.150  16.607  0.00  0.00    +0.000 C 
ATOM     23  C   UNL     1      -5.121  11.359  16.950  0.00  0.00    +0.000 C 
ENDBRANCH  18  23
ENDBRANCH   1  20
BRANCH  10  24
ATOM     24  O   UNL     1       0.147  11.482  18.219  0.00  0.00    +0.000 OA
BRANCH  24  25
ATOM     25  C   UNL     1       0.837  10.373  18.677  0.00  0.00    +0.000 A 
ATOM     26  C   UNL     1       0.579   9.952  19.985  0.00  0.00    +0.000 A 
ATOM     27  C   UNL     1       1.099   8.735  20.451  0.00  0.00    +0.000 A 
ATOM     28  C   UNL     1       1.869   7.932  19.607  0.00  0.00    +0.000 A 
ATOM     29  C   UNL     1       2.234   8.418  18.351  0.00  0.00    +0.000 A 
ATOM     30  C   UNL     1       1.679   9.604  17.871  0.00  0.00    +0.000 A 
BRANCH  28  31
ATOM     31  O   UNL     1       2.243   6.692  20.082  0.00  0.00    +0.000 OA
BRANCH  31  32
ATOM     32  C   UNL     1       2.679   5.725  19.194  0.00  0.00    +0.000 A 
ATOM     33  C   UNL     1       4.064   5.585  19.071  0.00  0.00    +0.000 A 
ATOM     34  C   UNL     1       4.602   4.667  18.162  0.00  0.00    +0.000 A 
ATOM     35  C   UNL     1       3.758   3.887  17.372  0.00  0.00    +0.000 A 
ATOM     36  C   UNL     1       2.379   3.988  17.524  0.00  0.00    +0.000 A 
ATOM     37  C   UNL     1       1.843   4.877  18.458  0.00  0.00    +0.000 A 
ENDBRANCH  31  32
ENDBRANCH  28  31
ENDBRANCH  24  25
ENDBRANCH  10  24
TORSDOF 7
ENDMDL
MODEL 4
REMARK VINA RESULT:      -7.6      2.390      3.791
REMARK  Name = 
REMARK  7 active torsions:
REMARK  status: ('A' for Active; 'I' for Inactive)
REMARK    1  A    between atoms: C_2  and  C_3
REMARK    2  A    between atoms: N_5  and  C_6
REMARK    3  A    between atoms: C_14  and  C_15
REMARK    4  A    between atoms: C_18  and  O_19
REMARK    5  A    between atoms: O_19  and  C_20
REMARK    6  A    between atoms: C_23  and  O_24
REMARK    7  A    between atoms: O_24  and  C_25
REMARK                            x       y       z     vdW  Elec       q    Type
REMARK                         _______ _______ _______ _____ _____    ______ ____
ROOT
ATOM      1  C   UNL     1      -5.626  11.030  18.030  0.00  0.00    +0.000 C 
ATOM      2  C   UNL     1      -6.739  12.078  18.216  0.00  0.00    +0.000 C 
ATOM      3  C   UNL     1      -6.204  13.427  18.690  0.00  0.00    +0.000 C 
ATOM      4  C   UNL     1      -5.338  13.289  19.937  0.00  0.00    +0.000 C 
ATOM      5  N   UNL     1      -4.292  12.304  19.696  0.00  0.00    +0.000 N 
ATOM      6  C   UNL     1      -2.960  12.595  19.862  0.00  0.00    +0.000 A 
ATOM      7  C   UNL     1      -2.534  13.552  20.775  0.00  0.00    +0.000 A 
ATOM      8  C   UNL     1      -1.183  13.862  20.897  0.00  0.00    +0.000 A 
ATOM      9  C   UNL     1      -0.236  13.198  20.115  0.00  0.00    +0.000 A 
ATOM     10  C   UNL     1      -0.727  12.222  19.249  0.00  0.00    +0.000 A 
ATOM     11  N   UNL     1      -2.056  11.938  19.108  0.00  0.00    +0.000 NA
ATOM     12  C   UNL     1      -4.724  10.965  19.281  0.00  0.00    +0.000 C 
ENDROOT
BRANCH   9  13
ATOM     13  C   UNL     1       1.180  13.610  20.321  0.00  0.00    +0.000 C 
ATOM     14  N   UNL     1       1.929  14.022  19.266  0.00  0.00    +0.000 N 
ATOM     15  O   UNL     1       1.691  13.565  21.439  0.00  0.00    +0.000 OA
ATOM     16  H   UNL     1       1.592  14.074  18.318  0.00  0.00    +0.000 HD
ATOM     17  H   UNL     1       2.891  14.269  19.454  0.00  0.00    +0.000 HD
ENDBRANCH   9  13
BRANCH   1  20
ATOM     18  C   UNL     1      -3.788  10.450  16.483  0.00  0.00    +0.000 C 
ATOM     19  O   UNL     1      -3.483   9.434  17.096  0.00  0.00    +0.000 OA
ATOM     20  N   UNL     1      -4.846  11.260  16.814  0.00  0.00    +0.000 N 
ATOM     21  H   UNL     1      -5.053  12.100  16.285  0.00  0.00    +0.000 HD
BRANCH  18  23
ATOM     22  C   UNL     1      -2.919  10.172  14.212  0.00  0.00    +0.000 C 
ATOM     23  C   UNL     1      -3.015  10.932  15.312  0.00  0.00    +0.000 C 
ENDBRANCH  18  23
ENDBRANCH   1  20
BRANCH  10  24
ATOM     24  O   UNL     1       0.139  11.519  18.423  0.00  0.00    +0.000 OA
BRANCH  24  25
ATOM     25  C   UNL     1       0.580  10.279  18.851  0.00  0.00    +0.000 A 
ATOM     26  C   UNL     1       1.293   9.500  17.934  0.00  0.00    +0.000 A 
ATOM     27  C   UNL     1       1.925   8.320  18.352  0.00  0.00    +0.000 A 
ATOM     28  C   UNL     1       1.856   7.921  19.689  0.00  0.00    +0.000 A 
ATOM     29  C   UNL     1       1.034   8.629  20.568  0.00  0.00    +0.000 A 
ATOM     30  C   UNL     1       0.445   9.827  20.164  0.00  0.00    +0.000 A 
BRANCH  28  31
ATOM     31  O   UNL     1       2.602   6.823  20.061  0.00  0.00    +0.000 OA
BRANCH  31  32
ATOM     32  C   UNL     1       2.783   5.786  19.163  0.00  0.00    +0.000 A 
ATOM     33  C   UNL     1       4.057   5.679  18.598  0.00  0.00    +0.000 A 
ATOM     34  C   UNL     1       4.325   4.693  17.642  0.00  0.00    +0.000 A 
ATOM     35  C   UNL     1       3.321   3.810  17.247  0.00  0.00    +0.000 A 
ATOM     36  C   UNL     1       2.064   3.881  17.841  0.00  0.00    +0.000 A 
ATOM     37  C   UNL     1       1.809   4.841  18.821  0.00  0.00    +0.000 A 
ENDBRANCH  31  32
ENDBRANCH  28  31
ENDBRANCH  24  25
ENDBRANCH  10  24
TORSDOF 7
ENDMDL
MODEL 5
REMARK VINA RESULT:      -7.6      1.510      2.037
REMARK  Name = 
REMARK  7 active torsions:
REMARK  status: ('A' for Active; 'I' for Inactive)
REMARK    1  A    between atoms: C_2  and  C_3
REMARK    2  A    between atoms: N_5  and  C_6
REMARK    3  A    between atoms: C_14  and  C_15
REMARK    4  A    between atoms: C_18  and  O_19
REMARK    5  A    between atoms: O_19  and  C_20
REMARK    6  A    between atoms: C_23  and  O_24
REMARK    7  A    between atoms: O_24  and  C_25
REMARK                            x       y       z     vdW  Elec       q    Type
REMARK                         _______ _______ _______ _____ _____    ______ ____
ROOT
ATOM      1  C   UNL     1      -4.969  12.734  20.766  0.00  0.00    +0.000 C 
ATOM      2  C   UNL     1      -5.600  14.047  21.264  0.00  0.00    +0.000 C 
ATOM      3  C   UNL     1      -4.622  15.219  21.234  0.00  0.00    +0.000 C 
ATOM      4  C   UNL     1      -3.326  14.897  21.969  0.00  0.00    +0.000 C 
ATOM      5  N   UNL     1      -2.763  13.660  21.442  0.00  0.00    +0.000 N 
ATOM      6  C   UNL     1      -1.483  13.589  20.949  0.00  0.00    +0.000 A 
ATOM      7  C   UNL     1      -0.478  14.428  21.416  0.00  0.00    +0.000 A 
ATOM      8  C   UNL     1       0.802  14.368  20.873  0.00  0.00    +0.000 A 
ATOM      9  C   UNL     1       1.096  13.449  19.864  0.00  0.00    +0.000 A 
ATOM     10  C   UNL     1       0.053  12.611  19.472  0.00  0.00    +0.000 A 
ATOM     11  N   UNL     1      -1.211  12.689  19.984  0.00  0.00    +0.000 NA
ATOM     12  C   UNL     1      -3.623  12.472  21.477  0.00  0.00    +0.000 C 
ENDROOT
BRANCH   9  13
ATOM     13  C   UNL     1       2.493  13.474  19.350  0.00  0.00    +0.000 C 
ATOM     14  N   UNL     1       3.498  13.943  20.133  0.00  0.00    +0.000 N 
ATOM     15  O   UNL     1       2.750  13.088  18.211  0.00  0.00    +0.000 OA
ATOM     16  H   UNL     1       3.370  14.291  21.071  0.00  0.00    +0.000 HD
ATOM     17  H   UNL     1       4.424  13.961  19.730  0.00  0.00    +0.000 HD
ENDBRANCH   9  13
BRANCH   1  20
ATOM     18  C   UNL     1      -5.822  12.213  18.507  0.00  0.00    +0.000 C 
ATOM     19  O   UNL     1      -6.926  11.869  18.913  0.00  0.00    +0.000 OA
ATOM     20  N   UNL     1      -4.824  12.705  19.312  0.00  0.00    +0.000 N 
ATOM     21  H   UNL     1      -3.921  12.966  18.932  0.00  0.00    +0.000 HD
BRANCH  18  23
ATOM     22  C   UNL     1      -4.269  11.541  16.739  0.00  0.00    +0.000 C 
ATOM     23  C   UNL     1      -5.435  12.108  17.078  0.00  0.00    +0.000 C 
ENDBRANCH  18  23
ENDBRANCH   1  20
BRANCH  10  24
ATOM     24  O   UNL     1       0.248  11.675  18.466  0.00  0.00    +0.000 OA
BRANCH  24  25
ATOM     25  C   UNL     1       0.688  10.414  18.830  0.00  0.00    +0.000 A 
ATOM     26  C   UNL     1       1.333   9.651  17.852  0.00  0.00    +0.000 A 
ATOM     27  C   UNL     1       1.965   8.448  18.198  0.00  0.00    +0.000 A 
ATOM     28  C   UNL     1       1.961   8.008  19.524  0.00  0.00    +0.000 A 
ATOM     29  C   UNL     1       1.204   8.702  20.469  0.00  0.00    +0.000 A 
ATOM     30  C   UNL     1       0.617   9.923  20.135  0.00  0.00    +0.000 A 
BRANCH  28  31
ATOM     31  O   UNL     1       2.706   6.886  19.820  0.00  0.00    +0.000 OA
BRANCH  31  32
ATOM     32  C   UNL     1       2.149   5.632  19.641  0.00  0.00    +0.000 A 
ATOM     33  C   UNL     1       2.204   5.116  18.344  0.00  0.00    +0.000 A 
ATOM     34  C   UNL     1       1.624   3.876  18.052  0.00  0.00    +0.000 A 
ATOM     35  C   UNL     1       0.986   3.148  19.056  0.00  0.00    +0.000 A 
ATOM     36  C   UNL     1       0.970   3.635  20.360  0.00  0.00    +0.000 A 
ATOM     37  C   UNL     1       1.581   4.854  20.657  0.00  0.00    +0.000 A 
ENDBRANCH  31  32
ENDBRANCH  28  31
ENDBRANCH  24  25
ENDBRANCH  10  24
TORSDOF 7
ENDMDL
MODEL 6
REMARK VINA RESULT:      -7.4      1.529      2.136
REMARK  Name = 
REMARK  7 active torsions:
REMARK  status: ('A' for Active; 'I' for Inactive)
REMARK    1  A    between atoms: C_2  and  C_3
REMARK    2  A    between atoms: N_5  and  C_6
REMARK    3  A    between atoms: C_14  and  C_15
REMARK    4  A    between atoms: C_18  and  O_19
REMARK    5  A    between atoms: O_19  and  C_20
REMARK    6  A    between atoms: C_23  and  O_24
REMARK    7  A    between atoms: O_24  and  C_25
REMARK                            x       y       z     vdW  Elec       q    Type
REMARK                         _______ _______ _______ _____ _____    ______ ____
ROOT
ATOM      1  C   UNL     1      -5.990  12.803  21.717  0.00  0.00    +0.000 C 
ATOM      2  C   UNL     1      -6.547  14.156  22.198  0.00  0.00    +0.000 C 
ATOM      3  C   UNL     1      -5.576  15.311  21.961  0.00  0.00    +0.000 C 
ATOM      4  C   UNL     1      -4.198  15.023  22.546  0.00  0.00    +0.000 C 
ATOM      5  N   UNL     1      -3.713  13.746  22.041  0.00  0.00    +0.000 N 
ATOM      6  C   UNL     1      -2.506  13.624  21.395  0.00  0.00    +0.000 A 
ATOM      7  C   UNL     1      -1.446  14.480  21.670  0.00  0.00    +0.000 A 
ATOM      8  C   UNL     1      -0.247  14.366  20.974  0.00  0.00    +0.000 A 
ATOM      9  C   UNL     1      -0.088  13.376  20.003  0.00  0.00    +0.000 A 
ATOM     10  C   UNL     1      -1.176  12.527  19.806  0.00  0.00    +0.000 A 
ATOM     11  N   UNL     1      -2.364  12.656  20.468  0.00  0.00    +0.000 NA
ATOM     12  C   UNL     1      -4.566  12.574  22.267  0.00  0.00    +0.000 C 
ENDROOT
BRANCH   9  13
ATOM     13  C   UNL     1       1.232  13.347  19.315  0.00  0.00    +0.000 C 
ATOM     14  N   UNL     1       1.293  13.293  17.960  0.00  0.00    +0.000 N 
ATOM     15  O   UNL     1       2.278  13.353  19.963  0.00  0.00    +0.000 OA
ATOM     16  H   UNL     1       0.484  13.270  17.358  0.00  0.00    +0.000 HD
ATOM     17  H   UNL     1       2.211  13.252  17.542  0.00  0.00    +0.000 HD
ENDBRANCH   9  13
BRANCH   1  20
ATOM     18  C   UNL     1      -6.740  11.662  19.658  0.00  0.00    +0.000 C 
ATOM     19  O   UNL     1      -7.460  10.874  20.259  0.00  0.00    +0.000 OA
ATOM     20  N   UNL     1      -6.033  12.673  20.261  0.00  0.00    +0.000 N 
ATOM     21  H   UNL     1      -5.438  13.294  19.724  0.00  0.00    +0.000 HD
BRANCH  18  23
ATOM     22  C   UNL     1      -5.540  12.280  17.616  0.00  0.00    +0.000 C 
ATOM     23  C   UNL     1      -6.533  11.587  18.190  0.00  0.00    +0.000 C 
ENDBRANCH  18  23
ENDBRANCH   1  20
BRANCH  10  24
ATOM     24  O   UNL     1      -1.114  11.521  18.851  0.00  0.00    +0.000 OA
BRANCH  24  25
ATOM     25  C   UNL     1      -0.368  10.393  19.146  0.00  0.00    +0.000 A 
ATOM     26  C   UNL     1       0.388   9.835  18.110  0.00  0.00    +0.000 A 
ATOM     27  C   UNL     1       1.306   8.809  18.378  0.00  0.00    +0.000 A 
ATOM     28  C   UNL     1       1.478   8.345  19.684  0.00  0.00    +0.000 A 
ATOM     29  C   UNL     1       0.629   8.811  20.690  0.00  0.00    +0.000 A 
ATOM     30  C   UNL     1      -0.250   9.864  20.432  0.00  0.00    +0.000 A 
BRANCH  28  31
ATOM     31  O   UNL     1       2.483   7.427  19.902  0.00  0.00    +0.000 OA
BRANCH  31  32
ATOM     32  C   UNL     1       2.233   6.081  19.699  0.00  0.00    +0.000 A 
ATOM     33  C   UNL     1       2.574   5.576  18.442  0.00  0.00    +0.000 A 
ATOM     34  C   UNL     1       2.314   4.239  18.124  0.00  0.00    +0.000 A 
ATOM     35  C   UNL     1       1.711   3.401  19.061  0.00  0.00    +0.000 A 
ATOM     36  C   UNL     1       1.412   3.885  20.332  0.00  0.00    +0.000 A 
ATOM     37  C   UNL     1       1.707   5.210  20.660  0.00  0.00    +0.000 A 
ENDBRANCH  31  32
ENDBRANCH  28  31
ENDBRANCH  24  25
ENDBRANCH  10  24
TORSDOF 7
ENDMDL
MODEL 7
REMARK VINA RESULT:      -7.4      2.115      3.277
REMARK  Name = 
REMARK  7 active torsions:
REMARK  status: ('A' for Active; 'I' for Inactive)
REMARK    1  A    between atoms: C_2  and  C_3
REMARK    2  A    between atoms: N_5  and  C_6
REMARK    3  A    between atoms: C_14  and  C_15
REMARK    4  A    between atoms: C_18  and  O_19
REMARK    5  A    between atoms: O_19  and  C_20
REMARK    6  A    between atoms: C_23  and  O_24
REMARK    7  A    between atoms: O_24  and  C_25
REMARK                            x       y       z     vdW  Elec       q    Type
REMARK                         _______ _______ _______ _____ _____    ______ ____
ROOT
ATOM      1  C   UNL     1      -5.341  11.782  18.877  0.00  0.00    +0.000 C 
ATOM      2  C   UNL     1      -6.247  12.979  19.220  0.00  0.00    +0.000 C 
ATOM      3  C   UNL     1      -5.456  14.226  19.607  0.00  0.00    +0.000 C 
ATOM      4  C   UNL     1      -4.450  13.938  20.716  0.00  0.00    +0.000 C 
ATOM      5  N   UNL     1      -3.607  12.815  20.328  0.00  0.00    +0.000 N 
ATOM      6  C   UNL     1      -2.237  12.903  20.299  0.00  0.00    +0.000 A 
ATOM      7  C   UNL     1      -1.547  13.770  21.138  0.00  0.00    +0.000 A 
ATOM      8  C   UNL     1      -0.161  13.875  21.062  0.00  0.00    +0.000 A 
ATOM      9  C   UNL     1       0.555  13.094  20.153  0.00  0.00    +0.000 A 
ATOM     10  C   UNL     1      -0.196  12.217  19.370  0.00  0.00    +0.000 A 
ATOM     11  N   UNL     1      -1.558  12.134  19.424  0.00  0.00    +0.000 NA
ATOM     12  C   UNL     1      -4.288  11.562  19.984  0.00  0.00    +0.000 C 
ENDROOT
BRANCH   9  13
ATOM     13  C   UNL     1       2.030  13.289  20.150  0.00  0.00    +0.000 C 
ATOM     14  N   UNL     1       2.696  13.433  18.976  0.00  0.00    +0.000 N 
ATOM     15  O   UNL     1       2.664  13.304  21.205  0.00  0.00    +0.000 OA
ATOM     16  H   UNL     1       2.255  13.417  18.069  0.00  0.00    +0.000 HD
ATOM     17  H   UNL     1       3.699  13.539  19.026  0.00  0.00    +0.000 HD
ENDBRANCH   9  13
BRANCH   1  20
ATOM     18  C   UNL     1      -3.957  10.908  17.026  0.00  0.00    +0.000 C 
ATOM     19  O   UNL     1      -3.827   9.802  17.536  0.00  0.00    +0.000 OA
ATOM     20  N   UNL     1      -4.719  11.918  17.561  0.00  0.00    +0.000 N 
ATOM     21  H   UNL     1      -4.786  12.823  17.109  0.00  0.00    +0.000 HD
BRANCH  18  23
ATOM     22  C   UNL     1      -2.879  10.335  14.905  0.00  0.00    +0.000 C 
ATOM     23  C   UNL     1      -3.271  11.285  15.765  0.00  0.00    +0.000 C 
ENDBRANCH  18  23
ENDBRANCH   1  20
BRANCH  10  24
ATOM     24  O   UNL     1       0.429  11.410  18.429  0.00  0.00    +0.000 OA
BRANCH  24  25
ATOM     25  C   UNL     1       1.031  10.245  18.871  0.00  0.00    +0.000 A 
ATOM     26  C   UNL     1       0.752   9.834  20.178  0.00  0.00    +0.000 A 
ATOM     27  C   UNL     1       1.176   8.576  20.629  0.00  0.00    +0.000 A 
ATOM     28  C   UNL     1       1.872   7.721  19.772  0.00  0.00    +0.000 A 
ATOM     29  C   UNL     1       2.264   8.188  18.516  0.00  0.00    +0.000 A 
ATOM     30  C   UNL     1       1.801   9.419  18.051  0.00  0.00    +0.000 A 
BRANCH  28  31
ATOM     31  O   UNL     1       2.150   6.451  20.233  0.00  0.00    +0.000 OA
BRANCH  31  32
ATOM     32  C   UNL     1       2.659   5.506  19.361  0.00  0.00    +0.000 A 
ATOM     33  C   UNL     1       4.045   5.328  19.389  0.00  0.00    +0.000 A 
ATOM     34  C   UNL     1       4.659   4.430  18.510  0.00  0.00    +0.000 A 
ATOM     35  C   UNL     1       3.892   3.706  17.598  0.00  0.00    +0.000 A 
ATOM     36  C   UNL     1       2.506   3.843  17.598  0.00  0.00    +0.000 A 
ATOM     37  C   UNL     1       1.891   4.712  18.501  0.00  0.00    +0.000 A 
ENDBRANCH  31  32
ENDBRANCH  28  31
ENDBRANCH  24  25
ENDBRANCH  10  24
TORSDOF 7
ENDMDL
MODEL 8
REMARK VINA RESULT:      -7.4      1.819      2.727
REMARK  Name = 
REMARK  7 active torsions:
REMARK  status: ('A' for Active; 'I' for Inactive)
REMARK    1  A    between atoms: C_2  and  C_3
REMARK    2  A    between atoms: N_5  and  C_6
REMARK    3  A    between atoms: C_14  and  C_15
REMARK    4  A    between atoms: C_18  and  O_19
REMARK    5  A    between atoms: O_19  and  C_20
REMARK    6  A    between atoms: C_23  and  O_24
REMARK    7  A    between atoms: O_24  and  C_25
REMARK                            x       y       z     vdW  Elec       q    Type
REMARK                         _______ _______ _______ _____ _____    ______ ____
ROOT
ATOM      1  C   UNL     1      -5.798  12.937  19.896  0.00  0.00    +0.000 C 
ATOM      2  C   UNL     1      -6.394  14.328  20.179  0.00  0.00    +0.000 C 
ATOM      3  C   UNL     1      -5.329  15.420  20.258  0.00  0.00    +0.000 C 
ATOM      4  C   UNL     1      -4.222  15.064  21.244  0.00  0.00    +0.000 C 
ATOM      5  N   UNL     1      -3.682  13.752  20.915  0.00  0.00    +0.000 N 
ATOM      6  C   UNL     1      -2.344  13.548  20.679  0.00  0.00    +0.000 A 
ATOM      7  C   UNL     1      -1.373  14.346  21.272  0.00  0.00    +0.000 A 
ATOM      8  C   UNL     1      -0.025  14.150  20.985  0.00  0.00    +0.000 A 
ATOM      9  C   UNL     1       0.368  13.135  20.113  0.00  0.00    +0.000 A 
ATOM     10  C   UNL     1      -0.654  12.346  19.586  0.00  0.00    +0.000 A 
ATOM     11  N   UNL     1      -1.979  12.556  19.843  0.00  0.00    +0.000 NA
ATOM     12  C   UNL     1      -4.633  12.636  20.864  0.00  0.00    +0.000 C 
ENDROOT
BRANCH   9  13
ATOM     13  C   UNL     1       1.832  13.016  19.872  0.00  0.00    +0.000 C 
ATOM     14  N   UNL     1       2.322  13.086  18.608  0.00  0.00    +0.000 N 
ATOM     15  O   UNL     1       2.610  12.837  20.808  0.00  0.00    +0.000 OA
ATOM     16  H   UNL     1       1.752  13.216  17.786  0.00  0.00    +0.000 HD
ATOM     17  H   UNL     1       3.320  12.977  18.495  0.00  0.00    +0.000 HD
ENDBRANCH   9  13
BRANCH   1  20
ATOM     18  C   UNL     1      -5.297  11.540  17.920  0.00  0.00    +0.000 C 
ATOM     19  O   UNL     1      -5.637  10.498  18.467  0.00  0.00    +0.000 OA
ATOM     20  N   UNL     1      -5.392  12.781  18.500  0.00  0.00    +0.000 N 
ATOM     21  H   UNL     1      -5.086  13.616  18.012  0.00  0.00    +0.000 HD
BRANCH  18  23
ATOM     22  C   UNL     1      -3.682  10.765  16.253  0.00  0.00    +0.000 C 
ATOM     23  C   UNL     1      -4.713  11.565  16.556  0.00  0.00    +0.000 C 
ENDBRANCH  18  23
ENDBRANCH   1  20
BRANCH  10  24
ATOM     24  O   UNL     1      -0.359  11.320  18.698  0.00  0.00    +0.000 OA
BRANCH  24  25
ATOM     25  C   UNL     1       0.461  10.297  19.139  0.00  0.00    +0.000 A 
ATOM     26  C   UNL     1       0.235   9.803  20.428  0.00  0.00    +0.000 A 
ATOM     27  C   UNL     1       0.901   8.651  20.871  0.00  0.00    +0.000 A 
ATOM     28  C   UNL     1       1.787   7.983  20.023  0.00  0.00    +0.000 A 
ATOM     29  C   UNL     1       2.110   8.553  18.790  0.00  0.00    +0.000 A 
ATOM     30  C   UNL     1       1.413   9.672  18.332  0.00  0.00    +0.000 A 
BRANCH  28  31
ATOM     31  O   UNL     1       2.312   6.789  20.470  0.00  0.00    +0.000 OA
BRANCH  31  32
ATOM     32  C   UNL     1       1.940   5.608  19.853  0.00  0.00    +0.000 A 
ATOM     33  C   UNL     1       2.327   5.465  18.518  0.00  0.00    +0.000 A 
ATOM     34  C   UNL     1       1.957   4.327  17.793  0.00  0.00    +0.000 A 
ATOM     35  C   UNL     1       1.197   3.327  18.399  0.00  0.00    +0.000 A 
ATOM     36  C   UNL     1       0.848   3.442  19.742  0.00  0.00    +0.000 A 
ATOM     37  C   UNL     1       1.251   4.560  20.475  0.00  0.00    +0.000 A 
ENDBRANCH  31  32
ENDBRANCH  28  31
ENDBRANCH  24  25
ENDBRANCH  10  24
TORSDOF 7
ENDMDL
MODEL 9
REMARK VINA RESULT:      -7.3      2.526      4.326
REMARK  Name = 
REMARK  7 active torsions:
REMARK  status: ('A' for Active; 'I' for Inactive)
REMARK    1  A    between atoms: C_2  and  C_3
REMARK    2  A    between atoms: N_5  and  C_6
REMARK    3  A    between atoms: C_14  and  C_15
REMARK    4  A    between atoms: C_18  and  O_19
REMARK    5  A    between atoms: O_19  and  C_20
REMARK    6  A    between atoms: C_23  and  O_24
REMARK    7  A    between atoms: O_24  and  C_25
REMARK                            x       y       z     vdW  Elec       q    Type
REMARK                         _______ _______ _______ _____ _____    ______ ____
ROOT
ATOM      1  C   UNL     1      -4.817  14.004  22.468  0.00  0.00    +0.000 C 
ATOM      2  C   UNL     1      -6.110  13.444  23.088  0.00  0.00    +0.000 C 
ATOM      3  C   UNL     1      -6.648  12.230  22.333  0.00  0.00    +0.000 C 
ATOM      4  C   UNL     1      -6.808  12.513  20.844  0.00  0.00    +0.000 C 
ATOM      5  N   UNL     1      -5.552  13.018  20.307  0.00  0.00    +0.000 N 
ATOM      6  C   UNL     1      -4.920  12.426  19.241  0.00  0.00    +0.000 A 
ATOM      7  C   UNL     1      -5.633  11.741  18.264  0.00  0.00    +0.000 A 
ATOM      8  C   UNL     1      -4.969  11.112  17.215  0.00  0.00    +0.000 A 
ATOM      9  C   UNL     1      -3.578  11.179  17.121  0.00  0.00    +0.000 A 
ATOM     10  C   UNL     1      -2.930  11.917  18.111  0.00  0.00    +0.000 A 
ATOM     11  N   UNL     1      -3.577  12.509  19.157  0.00  0.00    +0.000 NA
ATOM     12  C   UNL     1      -4.989  14.211  20.947  0.00  0.00    +0.000 C 
ENDROOT
BRANCH   9  13
ATOM     13  C   UNL     1      -2.970  10.468  15.963  0.00  0.00    +0.000 C 
ATOM     14  N   UNL     1      -2.632   9.157  16.071  0.00  0.00    +0.000 N 
ATOM     15  O   UNL     1      -2.751  11.059  14.907  0.00  0.00    +0.000 OA
ATOM     16  H   UNL     1      -2.764   8.605  16.904  0.00  0.00    +0.000 HD
ATOM     17  H   UNL     1      -2.201   8.726  15.266  0.00  0.00    +0.000 HD
ENDBRANCH   9  13
BRANCH   1  20
ATOM     18  C   UNL     1      -2.420  13.734  23.001  0.00  0.00    +0.000 C 
ATOM     19  O   UNL     1      -2.217  14.940  23.079  0.00  0.00    +0.000 OA
ATOM     20  N   UNL     1      -3.652  13.174  22.771  0.00  0.00    +0.000 N 
ATOM     21  H   UNL     1      -3.770  12.169  22.701  0.00  0.00    +0.000 HD
BRANCH  18  23
ATOM     22  C   UNL     1      -1.620  11.443  23.315  0.00  0.00    +0.000 C 
ATOM     23  C   UNL     1      -1.328  12.737  23.125  0.00  0.00    +0.000 C 
ENDBRANCH  18  23
ENDBRANCH   1  20
BRANCH  10  24
ATOM     24  O   UNL     1      -1.546  12.028  18.106  0.00  0.00    +0.000 OA
BRANCH  24  25
ATOM     25  C   UNL     1      -0.810  10.979  18.629  0.00  0.00    +0.000 A 
ATOM     26  C   UNL     1       0.230  10.470  17.845  0.00  0.00    +0.000 A 
ATOM     27  C   UNL     1       1.130   9.538  18.383  0.00  0.00    +0.000 A 
ATOM     28  C   UNL     1       0.997   9.119  19.709  0.00  0.00    +0.000 A 
ATOM     29  C   UNL     1      -0.118   9.526  20.443  0.00  0.00    +0.000 A 
ATOM     30  C   UNL     1      -0.984  10.489  19.925  0.00  0.00    +0.000 A 
BRANCH  28  31
ATOM     31  O   UNL     1       1.985   8.300  20.214  0.00  0.00    +0.000 OA
BRANCH  31  32
ATOM     32  C   UNL     1       2.032   6.972  19.830  0.00  0.00    +0.000 A 
ATOM     33  C   UNL     1       1.506   6.050  20.738  0.00  0.00    +0.000 A 
ATOM     34  C   UNL     1       1.552   4.680  20.461  0.00  0.00    +0.000 A 
ATOM     35  C   UNL     1       2.126   4.224  19.275  0.00  0.00    +0.000 A 
ATOM     36  C   UNL     1       2.609   5.140  18.344  0.00  0.00    +0.000 A 
ATOM     37  C   UNL     1       2.528   6.509  18.605  0.00  0.00    +0.000 A 
ENDBRANCH  31  32
ENDBRANCH  28  31
ENDBRANCH  24  25
ENDBRANCH  10  24
TORSDOF 7
ENDMDL
