MODEL 1
REMARK VINA RESULT:      -8.0      0.000      0.000
REMARK  Name = 
REMARK  15 active torsions:
REMARK  status: ('A' for Active; 'I' for Inactive)
REMARK    1  A    between atoms: C_1  and  O_2
REMARK    2  A    between atoms: O_2  and  C_3
REMARK    3  A    between atoms: C_3  and  C_5
REMARK    4  A    between atoms: C_5  and  C_6
REMARK    5  A    between atoms: C_5  and  N_18
REMARK    6  A    between atoms: C_6  and  C_7
REMARK    7  A    between atoms: C_10  and  C_11
REMARK    8  A    between atoms: C_19  and  C_21
REMARK    9  A    between atoms: C_21  and  C_22
REMARK   10  A    between atoms: C_22  and  C_23
REMARK   11  A    between atoms: C_23  and  C_24
REMARK   12  A    between atoms: C_24  and  C_25
REMARK   13  A    between atoms: C_25  and  C_26
REMARK   14  A    between atoms: C_26  and  C_27
REMARK   15  A    between atoms: N_29  and  O_30
REMARK                            x       y       z     vdW  Elec       q    Type
REMARK                         _______ _______ _______ _____ _____    ______ ____
ROOT
ATOM      1  C   UNL     1       6.644   4.453  15.978  0.00  0.00    +0.000 C 
ENDROOT
BRANCH   1   2
ATOM      2  N   UNL     1       7.018   5.661  16.730  0.00  0.00    +0.000 N 
ATOM      3  C   UNL     1       7.686   5.583  17.937  0.00  0.00    +0.000 C 
ATOM      4  O   UNL     1       8.031   4.510  18.420  0.00  0.00    +0.000 OA
ATOM      5  H   UNL     1       6.993   6.550  16.247  0.00  0.00    +0.000 HD
BRANCH   3   6
ATOM      6  C   UNL     1       7.941   6.913  18.633  0.00  0.00    +0.000 C 
BRANCH   6   7
ATOM      7  C   UNL     1       7.397   8.113  17.848  0.00  0.00    +0.000 C 
BRANCH   7   8
ATOM      8  C   UNL     1       8.431   9.233  17.831  0.00  0.00    +0.000 C 
BRANCH   8   9
ATOM      9  C   UNL     1       9.025   9.584  19.192  0.00  0.00    +0.000 C 
BRANCH   9  10
ATOM     10  C   UNL     1       9.229  11.098  19.375  0.00  0.00    +0.000 C 
BRANCH  10  11
ATOM     11  C   UNL     1       9.105  11.914  18.092  0.00  0.00    +0.000 C 
BRANCH  11  12
ATOM     12  C   UNL     1      10.423  12.378  17.508  0.00  0.00    +0.000 C 
ATOM     13  O   UNL     1      11.481  11.757  17.578  0.00  0.00    +0.000 OA
ATOM     14  N   UNL     1      10.299  13.567  16.832  0.00  0.00    +0.000 N 
ATOM     15  H   UNL     1       9.399  13.934  16.548  0.00  0.00    +0.000 HD
BRANCH  14  16
ATOM     16  O   UNL     1      11.374  13.858  15.971  0.00  0.00    +0.000 OA
ATOM     17  H   UNL     1      12.128  14.009  16.597  0.00  0.00    +0.000 HD
ENDBRANCH  14  16
ENDBRANCH  11  12
ENDBRANCH  10  11
ENDBRANCH   9  10
ENDBRANCH   8   9
ENDBRANCH   7   8
ENDBRANCH   6   7
ENDBRANCH   3   6
ENDBRANCH   1   2
BRANCH   1  18
ATOM     18  C   UNL     1       6.861   4.592  14.483  0.00  0.00    +0.000 C 
ATOM     19  O   UNL     1       7.604   5.436  14.006  0.00  0.00    +0.000 OA
BRANCH  18  21
ATOM     20  C   UNL     1       6.324   3.570  12.407  0.00  0.00    +0.000 C 
ATOM     21  O   UNL     1       6.034   3.764  13.796  0.00  0.00    +0.000 OA
ENDBRANCH  18  21
ENDBRANCH   1  18
BRANCH   1  22
ATOM     22  C   UNL     1       5.143   4.143  16.065  0.00  0.00    +0.000 C 
BRANCH  22  23
ATOM     23  C   UNL     1       4.352   5.180  16.796  0.00  0.00    +0.000 A 
ATOM     24  C   UNL     1       3.499   4.795  17.831  0.00  0.00    +0.000 A 
ATOM     25  C   UNL     1       2.754   5.753  18.510  0.00  0.00    +0.000 A 
ATOM     26  C   UNL     1       2.856   7.110  18.168  0.00  0.00    +0.000 A 
ATOM     27  C   UNL     1       3.730   7.490  17.150  0.00  0.00    +0.000 A 
ATOM     28  C   UNL     1       4.476   6.531  16.463  0.00  0.00    +0.000 A 
BRANCH  26  29
ATOM     29  C   UNL     1       2.071   8.103  18.905  0.00  0.00    +0.000 A 
ATOM     30  C   UNL     1       1.548   9.300  18.441  0.00  0.00    +0.000 A 
ATOM     31  C   UNL     1       0.846  10.013  19.447  0.00  0.00    +0.000 A 
ATOM     32  C   UNL     1       0.847   9.357  20.647  0.00  0.00    +0.000 A 
ATOM     33  S   UNL     1       1.709   7.885  20.569  0.00  0.00    +0.000 S 
ENDBRANCH  26  29
ENDBRANCH  22  23
ENDBRANCH   1  22
TORSDOF 14
ENDMDL
MODEL 2
REMARK VINA RESULT:      -7.5      1.580      2.316
REMARK  Name = 
REMARK  15 active torsions:
REMARK  status: ('A' for Active; 'I' for Inactive)
REMARK    1  A    between atoms: C_1  and  O_2
REMARK    2  A    between atoms: O_2  and  C_3
REMARK    3  A    between atoms: C_3  and  C_5
REMARK    4  A    between atoms: C_5  and  C_6
REMARK    5  A    between atoms: C_5  and  N_18
REMARK    6  A    between atoms: C_6  and  C_7
REMARK    7  A    between atoms: C_10  and  C_11
REMARK    8  A    between atoms: C_19  and  C_21
REMARK    9  A    between atoms: C_21  and  C_22
REMARK   10  A    between atoms: C_22  and  C_23
REMARK   11  A    between atoms: C_23  and  C_24
REMARK   12  A    between atoms: C_24  and  C_25
REMARK   13  A    between atoms: C_25  and  C_26
REMARK   14  A    between atoms: C_26  and  C_27
REMARK   15  A    between atoms: N_29  and  O_30
REMARK                            x       y       z     vdW  Elec       q    Type
REMARK                         _______ _______ _______ _____ _____    ______ ____
ROOT
ATOM      1  C   UNL     1       6.107   5.792  17.347  0.00  0.00    +0.000 C 
ENDROOT
BRANCH   1   2
ATOM      2  N   UNL     1       6.669   7.129  17.097  0.00  0.00    +0.000 N 
ATOM      3  C   UNL     1       7.694   7.638  17.873  0.00  0.00    +0.000 C 
ATOM      4  O   UNL     1       8.208   6.989  18.777  0.00  0.00    +0.000 OA
ATOM      5  H   UNL     1       6.464   7.575  16.213  0.00  0.00    +0.000 HD
BRANCH   3   6
ATOM      6  C   UNL     1       8.121   9.062  17.542  0.00  0.00    +0.000 C 
BRANCH   6   7
ATOM      7  C   UNL     1       8.723   9.801  18.742  0.00  0.00    +0.000 C 
BRANCH   7   8
ATOM      8  C   UNL     1       9.981  10.547  18.314  0.00  0.00    +0.000 C 
BRANCH   8   9
ATOM      9  C   UNL     1       9.753  11.984  17.852  0.00  0.00    +0.000 C 
BRANCH   9  10
ATOM     10  C   UNL     1       9.003  12.829  18.896  0.00  0.00    +0.000 C 
BRANCH  10  11
ATOM     11  C   UNL     1       8.662  14.244  18.440  0.00  0.00    +0.000 C 
BRANCH  11  12
ATOM     12  C   UNL     1       9.851  15.063  17.982  0.00  0.00    +0.000 C 
ATOM     13  O   UNL     1      10.991  14.956  18.424  0.00  0.00    +0.000 OA
ATOM     14  N   UNL     1       9.524  15.920  16.959  0.00  0.00    +0.000 N 
ATOM     15  H   UNL     1       8.672  15.819  16.422  0.00  0.00    +0.000 HD
BRANCH  14  16
ATOM     16  O   UNL     1      10.632  16.427  16.252  0.00  0.00    +0.000 OA
ATOM     17  H   UNL     1      10.651  15.866  15.435  0.00  0.00    +0.000 HD
ENDBRANCH  14  16
ENDBRANCH  11  12
ENDBRANCH  10  11
ENDBRANCH   9  10
ENDBRANCH   8   9
ENDBRANCH   7   8
ENDBRANCH   6   7
ENDBRANCH   3   6
ENDBRANCH   1   2
BRANCH   1  18
ATOM     18  C   UNL     1       6.761   4.707  16.511  0.00  0.00    +0.000 C 
ATOM     19  O   UNL     1       7.952   4.448  16.593  0.00  0.00    +0.000 OA
BRANCH  18  21
ATOM     20  C   UNL     1       6.347   4.067  14.262  0.00  0.00    +0.000 C 
ATOM     21  O   UNL     1       5.884   4.197  15.611  0.00  0.00    +0.000 OA
ENDBRANCH  18  21
ENDBRANCH   1  18
BRANCH   1  22
ATOM     22  C   UNL     1       4.633   5.683  16.931  0.00  0.00    +0.000 C 
BRANCH  22  23
ATOM     23  C   UNL     1       3.710   6.528  17.749  0.00  0.00    +0.000 A 
ATOM     24  C   UNL     1       3.264   7.750  17.243  0.00  0.00    +0.000 A 
ATOM     25  C   UNL     1       2.412   8.546  18.002  0.00  0.00    +0.000 A 
ATOM     26  C   UNL     1       1.989   8.128  19.274  0.00  0.00    +0.000 A 
ATOM     27  C   UNL     1       2.419   6.894  19.760  0.00  0.00    +0.000 A 
ATOM     28  C   UNL     1       3.277   6.095  19.005  0.00  0.00    +0.000 A 
BRANCH  26  29
ATOM     29  C   UNL     1       1.082   8.977  20.050  0.00  0.00    +0.000 A 
ATOM     30  C   UNL     1       0.199   9.939  19.587  0.00  0.00    +0.000 A 
ATOM     31  C   UNL     1      -0.514  10.573  20.637  0.00  0.00    +0.000 A 
ATOM     32  C   UNL     1      -0.164  10.092  21.869  0.00  0.00    +0.000 A 
ATOM     33  S   UNL     1       1.037   8.883  21.764  0.00  0.00    +0.000 S 
ENDBRANCH  26  29
ENDBRANCH  22  23
ENDBRANCH   1  22
TORSDOF 14
ENDMDL
MODEL 3
REMARK VINA RESULT:      -7.4      2.795      4.025
REMARK  Name = 
REMARK  15 active torsions:
REMARK  status: ('A' for Active; 'I' for Inactive)
REMARK    1  A    between atoms: C_1  and  O_2
REMARK    2  A    between atoms: O_2  and  C_3
REMARK    3  A    between atoms: C_3  and  C_5
REMARK    4  A    between atoms: C_5  and  C_6
REMARK    5  A    between atoms: C_5  and  N_18
REMARK    6  A    between atoms: C_6  and  C_7
REMARK    7  A    between atoms: C_10  and  C_11
REMARK    8  A    between atoms: C_19  and  C_21
REMARK    9  A    between atoms: C_21  and  C_22
REMARK   10  A    between atoms: C_22  and  C_23
REMARK   11  A    between atoms: C_23  and  C_24
REMARK   12  A    between atoms: C_24  and  C_25
REMARK   13  A    between atoms: C_25  and  C_26
REMARK   14  A    between atoms: C_26  and  C_27
REMARK   15  A    between atoms: N_29  and  O_30
REMARK                            x       y       z     vdW  Elec       q    Type
REMARK                         _______ _______ _______ _____ _____    ______ ____
ROOT
ATOM      1  C   UNL     1       3.992   5.661  18.387  0.00  0.00    +0.000 C 
ENDROOT
BRANCH   1   2
ATOM      2  N   UNL     1       5.377   5.960  17.988  0.00  0.00    +0.000 N 
ATOM      3  C   UNL     1       6.439   5.739  18.845  0.00  0.00    +0.000 C 
ATOM      4  O   UNL     1       6.283   5.250  19.959  0.00  0.00    +0.000 OA
ATOM      5  H   UNL     1       5.570   6.104  17.006  0.00  0.00    +0.000 HD
BRANCH   3   6
ATOM      6  C   UNL     1       7.804   6.163  18.320  0.00  0.00    +0.000 C 
BRANCH   6   7
ATOM      7  C   UNL     1       7.722   7.281  17.274  0.00  0.00    +0.000 C 
BRANCH   7   8
ATOM      8  C   UNL     1       7.498   8.621  17.964  0.00  0.00    +0.000 C 
BRANCH   8   9
ATOM      9  C   UNL     1       8.670   9.596  17.875  0.00  0.00    +0.000 C 
BRANCH   9  10
ATOM     10  C   UNL     1       9.246   9.956  19.256  0.00  0.00    +0.000 C 
BRANCH  10  11
ATOM     11  C   UNL     1       9.721  11.400  19.388  0.00  0.00    +0.000 C 
BRANCH  11  12
ATOM     12  C   UNL     1       9.813  11.906  20.812  0.00  0.00    +0.000 C 
ATOM     13  O   UNL     1      10.382  12.939  21.157  0.00  0.00    +0.000 OA
ATOM     14  N   UNL     1       9.131  11.100  21.692  0.00  0.00    +0.000 N 
ATOM     15  H   UNL     1       8.451  10.418  21.382  0.00  0.00    +0.000 HD
BRANCH  14  16
ATOM     16  O   UNL     1       8.867  11.698  22.939  0.00  0.00    +0.000 OA
ATOM     17  H   UNL     1       8.421  10.972  23.446  0.00  0.00    +0.000 HD
ENDBRANCH  14  16
ENDBRANCH  11  12
ENDBRANCH  10  11
ENDBRANCH   9  10
ENDBRANCH   8   9
ENDBRANCH   7   8
ENDBRANCH   6   7
ENDBRANCH   3   6
ENDBRANCH   1   2
BRANCH   1  18
ATOM     18  C   UNL     1       3.533   4.282  17.953  0.00  0.00    +0.000 C 
ATOM     19  O   UNL     1       3.967   3.734  16.951  0.00  0.00    +0.000 OA
BRANCH  18  21
ATOM     20  C   UNL     1       2.840   3.549  20.103  0.00  0.00    +0.000 C 
ATOM     21  O   UNL     1       2.518   3.841  18.739  0.00  0.00    +0.000 OA
ENDBRANCH  18  21
ENDBRANCH   1  18
BRANCH   1  22
ATOM     22  C   UNL     1       2.969   6.579  17.702  0.00  0.00    +0.000 C 
BRANCH  22  23
ATOM     23  C   UNL     1       2.260   7.501  18.641  0.00  0.00    +0.000 A 
ATOM     24  C   UNL     1       2.072   7.122  19.971  0.00  0.00    +0.000 A 
ATOM     25  C   UNL     1       1.405   7.971  20.847  0.00  0.00    +0.000 A 
ATOM     26  C   UNL     1       0.924   9.215  20.409  0.00  0.00    +0.000 A 
ATOM     27  C   UNL     1       1.140   9.597  19.086  0.00  0.00    +0.000 A 
ATOM     28  C   UNL     1       1.803   8.746  18.202  0.00  0.00    +0.000 A 
BRANCH  26  29
ATOM     29  C   UNL     1       0.235  10.098  21.353  0.00  0.00    +0.000 A 
ATOM     30  C   UNL     1      -0.523   9.749  22.459  0.00  0.00    +0.000 A 
ATOM     31  C   UNL     1      -1.049  10.879  23.137  0.00  0.00    +0.000 A 
ATOM     32  C   UNL     1      -0.688  12.057  22.543  0.00  0.00    +0.000 A 
ATOM     33  S   UNL     1       0.273  11.803  21.155  0.00  0.00    +0.000 S 
ENDBRANCH  26  29
ENDBRANCH  22  23
ENDBRANCH   1  22
TORSDOF 14
ENDMDL
MODEL 4
REMARK VINA RESULT:      -7.3      3.852      7.790
REMARK  Name = 
REMARK  15 active torsions:
REMARK  status: ('A' for Active; 'I' for Inactive)
REMARK    1  A    between atoms: C_1  and  O_2
REMARK    2  A    between atoms: O_2  and  C_3
REMARK    3  A    between atoms: C_3  and  C_5
REMARK    4  A    between atoms: C_5  and  C_6
REMARK    5  A    between atoms: C_5  and  N_18
REMARK    6  A    between atoms: C_6  and  C_7
REMARK    7  A    between atoms: C_10  and  C_11
REMARK    8  A    between atoms: C_19  and  C_21
REMARK    9  A    between atoms: C_21  and  C_22
REMARK   10  A    between atoms: C_22  and  C_23
REMARK   11  A    between atoms: C_23  and  C_24
REMARK   12  A    between atoms: C_24  and  C_25
REMARK   13  A    between atoms: C_25  and  C_26
REMARK   14  A    between atoms: C_26  and  C_27
REMARK   15  A    between atoms: N_29  and  O_30
REMARK                            x       y       z     vdW  Elec       q    Type
REMARK                         _______ _______ _______ _____ _____    ______ ____
ROOT
ATOM      1  C   UNL     1       5.713   5.888  16.215  0.00  0.00    +0.000 C 
ENDROOT
BRANCH   1   2
ATOM      2  N   UNL     1       4.408   5.530  16.795  0.00  0.00    +0.000 N 
ATOM      3  C   UNL     1       3.694   6.421  17.572  0.00  0.00    +0.000 C 
ATOM      4  O   UNL     1       4.092   7.562  17.783  0.00  0.00    +0.000 OA
ATOM      5  H   UNL     1       3.931   4.716  16.429  0.00  0.00    +0.000 HD
BRANCH   3   6
ATOM      6  C   UNL     1       2.397   5.884  18.162  0.00  0.00    +0.000 C 
BRANCH   6   7
ATOM      7  C   UNL     1       2.239   6.204  19.652  0.00  0.00    +0.000 C 
BRANCH   7   8
ATOM      8  C   UNL     1       2.583   4.975  20.486  0.00  0.00    +0.000 C 
BRANCH   8   9
ATOM      9  C   UNL     1       1.389   4.110  20.883  0.00  0.00    +0.000 C 
BRANCH   9  10
ATOM     10  C   UNL     1       0.963   3.142  19.765  0.00  0.00    +0.000 C 
BRANCH  10  11
ATOM     11  C   UNL     1       2.024   2.116  19.377  0.00  0.00    +0.000 C 
BRANCH  11  12
ATOM     12  C   UNL     1       2.691   2.374  18.042  0.00  0.00    +0.000 C 
ATOM     13  O   UNL     1       2.125   2.820  17.047  0.00  0.00    +0.000 OA
ATOM     14  N   UNL     1       4.037   2.099  18.075  0.00  0.00    +0.000 N 
ATOM     15  H   UNL     1       4.544   1.994  18.945  0.00  0.00    +0.000 HD
BRANCH  14  16
ATOM     16  O   UNL     1       4.768   2.657  17.008  0.00  0.00    +0.000 OA
ATOM     17  H   UNL     1       5.695   2.676  17.359  0.00  0.00    +0.000 HD
ENDBRANCH  14  16
ENDBRANCH  11  12
ENDBRANCH  10  11
ENDBRANCH   9  10
ENDBRANCH   8   9
ENDBRANCH   7   8
ENDBRANCH   6   7
ENDBRANCH   3   6
ENDBRANCH   1   2
BRANCH   1  18
ATOM     18  C   UNL     1       6.083   5.037  15.014  0.00  0.00    +0.000 C 
ATOM     19  O   UNL     1       5.334   4.187  14.560  0.00  0.00    +0.000 OA
BRANCH  18  21
ATOM     20  C   UNL     1       7.662   5.133  13.243  0.00  0.00    +0.000 C 
ATOM     21  O   UNL     1       7.367   5.268  14.637  0.00  0.00    +0.000 OA
ENDBRANCH  18  21
ENDBRANCH   1  18
BRANCH   1  22
ATOM     22  C   UNL     1       6.880   5.625  17.177  0.00  0.00    +0.000 C 
BRANCH  22  23
ATOM     23  C   UNL     1       7.511   6.868  17.717  0.00  0.00    +0.000 A 
ATOM     24  C   UNL     1       7.348   8.076  17.037  0.00  0.00    +0.000 A 
ATOM     25  C   UNL     1       7.940   9.235  17.529  0.00  0.00    +0.000 A 
ATOM     26  C   UNL     1       8.696   9.204  18.711  0.00  0.00    +0.000 A 
ATOM     27  C   UNL     1       8.832   7.998  19.398  0.00  0.00    +0.000 A 
ATOM     28  C   UNL     1       8.245   6.832  18.905  0.00  0.00    +0.000 A 
BRANCH  26  29
ATOM     29  C   UNL     1       9.300  10.439  19.216  0.00  0.00    +0.000 A 
ATOM     30  C   UNL     1       9.495  10.823  20.533  0.00  0.00    +0.000 A 
ATOM     31  C   UNL     1      10.105  12.099  20.643  0.00  0.00    +0.000 A 
ATOM     32  C   UNL     1      10.360  12.661  19.422  0.00  0.00    +0.000 A 
ATOM     33  S   UNL     1       9.850  11.657  18.139  0.00  0.00    +0.000 S 
ENDBRANCH  26  29
ENDBRANCH  22  23
ENDBRANCH   1  22
TORSDOF 14
ENDMDL
MODEL 5
REMARK VINA RESULT:      -7.3      5.629      9.040
REMARK  Name = 
REMARK  15 active torsions:
REMARK  status: ('A' for Active; 'I' for Inactive)
REMARK    1  A    between atoms: C_1  and  O_2
REMARK    2  A    between atoms: O_2  and  C_3
REMARK    3  A    between atoms: C_3  and  C_5
REMARK    4  A    between atoms: C_5  and  C_6
REMARK    5  A    between atoms: C_5  and  N_18
REMARK    6  A    between atoms: C_6  and  C_7
REMARK    7  A    between atoms: C_10  and  C_11
REMARK    8  A    between atoms: C_19  and  C_21
REMARK    9  A    between atoms: C_21  and  C_22
REMARK   10  A    between atoms: C_22  and  C_23
REMARK   11  A    between atoms: C_23  and  C_24
REMARK   12  A    between atoms: C_24  and  C_25
REMARK   13  A    between atoms: C_25  and  C_26
REMARK   14  A    between atoms: C_26  and  C_27
REMARK   15  A    between atoms: N_29  and  O_30
REMARK                            x       y       z     vdW  Elec       q    Type
REMARK                         _______ _______ _______ _____ _____    ______ ____
ROOT
ATOM      1  C   UNL     1       2.390   5.807  19.499  0.00  0.00    +0.000 C 
ENDROOT
BRANCH   1   2
ATOM      2  N   UNL     1       1.945   6.693  20.586  0.00  0.00    +0.000 N 
ATOM      3  C   UNL     1       1.621   8.016  20.353  0.00  0.00    +0.000 C 
ATOM      4  O   UNL     1       1.651   8.503  19.228  0.00  0.00    +0.000 OA
ATOM      5  H   UNL     1       1.653   6.270  21.458  0.00  0.00    +0.000 HD
BRANCH   3   6
ATOM      6  C   UNL     1       1.249   8.827  21.587  0.00  0.00    +0.000 C 
BRANCH   6   7
ATOM      7  C   UNL     1      -0.224   9.253  21.602  0.00  0.00    +0.000 C 
BRANCH   7   8
ATOM      8  C   UNL     1      -0.325  10.773  21.554  0.00  0.00    +0.000 C 
BRANCH   8   9
ATOM      9  C   UNL     1      -1.306  11.322  20.522  0.00  0.00    +0.000 C 
BRANCH   9  10
ATOM     10  C   UNL     1      -0.939  10.918  19.083  0.00  0.00    +0.000 C 
BRANCH  10  11
ATOM     11  C   UNL     1      -1.712  11.663  17.998  0.00  0.00    +0.000 C 
BRANCH  11  12
ATOM     12  C   UNL     1      -2.986  10.979  17.549  0.00  0.00    +0.000 C 
ATOM     13  O   UNL     1      -3.256   9.796  17.741  0.00  0.00    +0.000 OA
ATOM     14  N   UNL     1      -3.852  11.852  16.936  0.00  0.00    +0.000 N 
ATOM     15  H   UNL     1      -3.753  12.856  17.017  0.00  0.00    +0.000 HD
BRANCH  14  16
ATOM     16  O   UNL     1      -5.175  11.378  16.832  0.00  0.00    +0.000 OA
ATOM     17  H   UNL     1      -5.642  11.859  17.561  0.00  0.00    +0.000 HD
ENDBRANCH  14  16
ENDBRANCH  11  12
ENDBRANCH  10  11
ENDBRANCH   9  10
ENDBRANCH   8   9
ENDBRANCH   7   8
ENDBRANCH   6   7
ENDBRANCH   3   6
ENDBRANCH   1   2
BRANCH   1  18
ATOM     18  C   UNL     1       1.934   4.371  19.679  0.00  0.00    +0.000 C 
ATOM     19  O   UNL     1       1.093   3.857  18.959  0.00  0.00    +0.000 OA
BRANCH  18  21
ATOM     20  C   UNL     1       1.634   2.987  21.586  0.00  0.00    +0.000 C 
ATOM     21  O   UNL     1       2.482   3.827  20.795  0.00  0.00    +0.000 OA
ENDBRANCH  18  21
ENDBRANCH   1  18
BRANCH   1  22
ATOM     22  C   UNL     1       3.917   5.662  19.440  0.00  0.00    +0.000 C 
BRANCH  22  23
ATOM     23  C   UNL     1       4.443   5.341  18.078  0.00  0.00    +0.000 A 
ATOM     24  C   UNL     1       4.703   4.014  17.734  0.00  0.00    +0.000 A 
ATOM     25  C   UNL     1       5.200   3.709  16.471  0.00  0.00    +0.000 A 
ATOM     26  C   UNL     1       5.437   4.725  15.533  0.00  0.00    +0.000 A 
ATOM     27  C   UNL     1       5.150   6.046  15.876  0.00  0.00    +0.000 A 
ATOM     28  C   UNL     1       4.656   6.357  17.143  0.00  0.00    +0.000 A 
BRANCH  26  29
ATOM     29  C   UNL     1       5.950   4.379  14.205  0.00  0.00    +0.000 A 
ATOM     30  C   UNL     1       5.402   3.515  13.271  0.00  0.00    +0.000 A 
ATOM     31  C   UNL     1       6.187   3.419  12.093  0.00  0.00    +0.000 A 
ATOM     32  C   UNL     1       7.308   4.201  12.149  0.00  0.00    +0.000 A 
ATOM     33  S   UNL     1       7.426   5.041  13.630  0.00  0.00    +0.000 S 
ENDBRANCH  26  29
ENDBRANCH  22  23
ENDBRANCH   1  22
TORSDOF 14
ENDMDL
MODEL 6
REMARK VINA RESULT:      -7.2      2.600      3.289
REMARK  Name = 
REMARK  15 active torsions:
REMARK  status: ('A' for Active; 'I' for Inactive)
REMARK    1  A    between atoms: C_1  and  O_2
REMARK    2  A    between atoms: O_2  and  C_3
REMARK    3  A    between atoms: C_3  and  C_5
REMARK    4  A    between atoms: C_5  and  C_6
REMARK    5  A    between atoms: C_5  and  N_18
REMARK    6  A    between atoms: C_6  and  C_7
REMARK    7  A    between atoms: C_10  and  C_11
REMARK    8  A    between atoms: C_19  and  C_21
REMARK    9  A    between atoms: C_21  and  C_22
REMARK   10  A    between atoms: C_22  and  C_23
REMARK   11  A    between atoms: C_23  and  C_24
REMARK   12  A    between atoms: C_24  and  C_25
REMARK   13  A    between atoms: C_25  and  C_26
REMARK   14  A    between atoms: C_26  and  C_27
REMARK   15  A    between atoms: N_29  and  O_30
REMARK                            x       y       z     vdW  Elec       q    Type
REMARK                         _______ _______ _______ _____ _____    ______ ____
ROOT
ATOM      1  C   UNL     1       7.011   5.217  15.402  0.00  0.00    +0.000 C 
ENDROOT
BRANCH   1   2
ATOM      2  N   UNL     1       7.537   6.339  16.196  0.00  0.00    +0.000 N 
ATOM      3  C   UNL     1       7.706   6.240  17.564  0.00  0.00    +0.000 C 
ATOM      4  O   UNL     1       7.463   5.204  18.174  0.00  0.00    +0.000 OA
ATOM      5  H   UNL     1       7.993   7.098  15.706  0.00  0.00    +0.000 HD
BRANCH   3   6
ATOM      6  C   UNL     1       8.190   7.506  18.258  0.00  0.00    +0.000 C 
BRANCH   6   7
ATOM      7  C   UNL     1       7.641   8.786  17.620  0.00  0.00    +0.000 C 
BRANCH   7   8
ATOM      8  C   UNL     1       8.570   9.956  17.921  0.00  0.00    +0.000 C 
BRANCH   8   9
ATOM      9  C   UNL     1       9.156   9.968  19.331  0.00  0.00    +0.000 C 
BRANCH   9  10
ATOM     10  C   UNL     1      10.340  10.941  19.471  0.00  0.00    +0.000 C 
BRANCH  10  11
ATOM     11  C   UNL     1      10.252  11.877  20.673  0.00  0.00    +0.000 C 
BRANCH  11  12
ATOM     12  C   UNL     1       9.179  12.940  20.568  0.00  0.00    +0.000 C 
ATOM     13  O   UNL     1       8.296  13.134  21.400  0.00  0.00    +0.000 OA
ATOM     14  N   UNL     1       9.330  13.717  19.445  0.00  0.00    +0.000 N 
ATOM     15  H   UNL     1      10.191  13.734  18.914  0.00  0.00    +0.000 HD
BRANCH  14  16
ATOM     16  O   UNL     1       8.611  14.927  19.477  0.00  0.00    +0.000 OA
ATOM     17  H   UNL     1       7.771  14.701  19.001  0.00  0.00    +0.000 HD
ENDBRANCH  14  16
ENDBRANCH  11  12
ENDBRANCH  10  11
ENDBRANCH   9  10
ENDBRANCH   8   9
ENDBRANCH   7   8
ENDBRANCH   6   7
ENDBRANCH   3   6
ENDBRANCH   1   2
BRANCH   1  18
ATOM     18  C   UNL     1       7.522   5.208  13.974  0.00  0.00    +0.000 C 
ATOM     19  O   UNL     1       8.510   5.839  13.629  0.00  0.00    +0.000 OA
BRANCH  18  21
ATOM     20  C   UNL     1       7.230   3.964  11.972  0.00  0.00    +0.000 C 
ATOM     21  O   UNL     1       6.670   4.535  13.160  0.00  0.00    +0.000 OA
ENDBRANCH  18  21
ENDBRANCH   1  18
BRANCH   1  22
ATOM     22  C   UNL     1       5.490   5.293  15.206  0.00  0.00    +0.000 C 
BRANCH  22  23
ATOM     23  C   UNL     1       4.704   4.790  16.374  0.00  0.00    +0.000 A 
ATOM     24  C   UNL     1       4.090   5.700  17.236  0.00  0.00    +0.000 A 
ATOM     25  C   UNL     1       3.364   5.239  18.329  0.00  0.00    +0.000 A 
ATOM     26  C   UNL     1       3.236   3.863  18.572  0.00  0.00    +0.000 A 
ATOM     27  C   UNL     1       3.831   2.960  17.691  0.00  0.00    +0.000 A 
ATOM     28  C   UNL     1       4.564   3.418  16.597  0.00  0.00    +0.000 A 
BRANCH  26  29
ATOM     29  C   UNL     1       2.457   3.400  19.723  0.00  0.00    +0.000 A 
ATOM     30  C   UNL     1       1.099   3.549  19.958  0.00  0.00    +0.000 A 
ATOM     31  C   UNL     1       0.695   2.978  21.192  0.00  0.00    +0.000 A 
ATOM     32  C   UNL     1       1.739   2.412  21.871  0.00  0.00    +0.000 A 
ATOM     33  S   UNL     1       3.214   2.581  21.029  0.00  0.00    +0.000 S 
ENDBRANCH  26  29
ENDBRANCH  22  23
ENDBRANCH   1  22
TORSDOF 14
ENDMDL
MODEL 7
REMARK VINA RESULT:      -7.2      2.498      3.152
REMARK  Name = 
REMARK  15 active torsions:
REMARK  status: ('A' for Active; 'I' for Inactive)
REMARK    1  A    between atoms: C_1  and  O_2
REMARK    2  A    between atoms: O_2  and  C_3
REMARK    3  A    between atoms: C_3  and  C_5
REMARK    4  A    between atoms: C_5  and  C_6
REMARK    5  A    between atoms: C_5  and  N_18
REMARK    6  A    between atoms: C_6  and  C_7
REMARK    7  A    between atoms: C_10  and  C_11
REMARK    8  A    between atoms: C_19  and  C_21
REMARK    9  A    between atoms: C_21  and  C_22
REMARK   10  A    between atoms: C_22  and  C_23
REMARK   11  A    between atoms: C_23  and  C_24
REMARK   12  A    between atoms: C_24  and  C_25
REMARK   13  A    between atoms: C_25  and  C_26
REMARK   14  A    between atoms: C_26  and  C_27
REMARK   15  A    between atoms: N_29  and  O_30
REMARK                            x       y       z     vdW  Elec       q    Type
REMARK                         _______ _______ _______ _____ _____    ______ ____
ROOT
ATOM      1  C   UNL     1       4.445   5.313  18.847  0.00  0.00    +0.000 C 
ENDROOT
BRANCH   1   2
ATOM      2  N   UNL     1       5.532   5.890  18.040  0.00  0.00    +0.000 N 
ATOM      3  C   UNL     1       6.792   6.096  18.568  0.00  0.00    +0.000 C 
ATOM      4  O   UNL     1       7.075   5.775  19.718  0.00  0.00    +0.000 OA
ATOM      5  H   UNL     1       5.419   5.915  17.035  0.00  0.00    +0.000 HD
BRANCH   3   6
ATOM      6  C   UNL     1       7.792   6.767  17.636  0.00  0.00    +0.000 C 
BRANCH   6   7
ATOM      7  C   UNL     1       7.724   8.297  17.686  0.00  0.00    +0.000 C 
BRANCH   7   8
ATOM      8  C   UNL     1       8.850   8.839  18.558  0.00  0.00    +0.000 C 
BRANCH   8   9
ATOM      9  C   UNL     1       8.705  10.304  18.962  0.00  0.00    +0.000 C 
BRANCH   9  10
ATOM     10  C   UNL     1       9.813  11.193  18.372  0.00  0.00    +0.000 C 
BRANCH  10  11
ATOM     11  C   UNL     1       9.792  12.639  18.858  0.00  0.00    +0.000 C 
BRANCH  11  12
ATOM     12  C   UNL     1      10.609  13.599  18.019  0.00  0.00    +0.000 C 
ATOM     13  O   UNL     1      11.411  14.417  18.464  0.00  0.00    +0.000 OA
ATOM     14  N   UNL     1      10.395  13.420  16.674  0.00  0.00    +0.000 N 
ATOM     15  H   UNL     1       9.954  12.588  16.304  0.00  0.00    +0.000 HD
BRANCH  14  16
ATOM     16  O   UNL     1      11.375  14.007  15.849  0.00  0.00    +0.000 OA
ATOM     17  H   UNL     1      12.183  14.000  16.422  0.00  0.00    +0.000 HD
ENDBRANCH  14  16
ENDBRANCH  11  12
ENDBRANCH  10  11
ENDBRANCH   9  10
ENDBRANCH   8   9
ENDBRANCH   7   8
ENDBRANCH   6   7
ENDBRANCH   3   6
ENDBRANCH   1   2
BRANCH   1  18
ATOM     18  C   UNL     1       4.515   3.801  18.946  0.00  0.00    +0.000 C 
ATOM     19  O   UNL     1       5.215   3.232  19.769  0.00  0.00    +0.000 OA
BRANCH  18  21
ATOM     20  C   UNL     1       3.464   1.843  18.109  0.00  0.00    +0.000 C 
ATOM     21  O   UNL     1       3.821   3.218  17.936  0.00  0.00    +0.000 OA
ENDBRANCH  18  21
ENDBRANCH   1  18
BRANCH   1  22
ATOM     22  C   UNL     1       3.061   5.538  18.221  0.00  0.00    +0.000 C 
BRANCH  22  23
ATOM     23  C   UNL     1       2.418   6.828  18.621  0.00  0.00    +0.000 A 
ATOM     24  C   UNL     1       2.110   7.058  19.962  0.00  0.00    +0.000 A 
ATOM     25  C   UNL     1       1.504   8.252  20.339  0.00  0.00    +0.000 A 
ATOM     26  C   UNL     1       1.204   9.234  19.382  0.00  0.00    +0.000 A 
ATOM     27  C   UNL     1       1.540   9.006  18.048  0.00  0.00    +0.000 A 
ATOM     28  C   UNL     1       2.143   7.808  17.664  0.00  0.00    +0.000 A 
BRANCH  26  29
ATOM     29  C   UNL     1       0.577  10.489  19.804  0.00  0.00    +0.000 A 
ATOM     30  C   UNL     1      -0.772  10.807  19.832  0.00  0.00    +0.000 A 
ATOM     31  C   UNL     1      -1.009  12.128  20.293  0.00  0.00    +0.000 A 
ATOM     32  C   UNL     1       0.149  12.787  20.603  0.00  0.00    +0.000 A 
ATOM     33  S   UNL     1       1.528  11.820  20.324  0.00  0.00    +0.000 S 
ENDBRANCH  26  29
ENDBRANCH  22  23
ENDBRANCH   1  22
TORSDOF 14
ENDMDL
MODEL 8
REMARK VINA RESULT:      -7.0      4.348      6.525
REMARK  Name = 
REMARK  15 active torsions:
REMARK  status: ('A' for Active; 'I' for Inactive)
REMARK    1  A    between atoms: C_1  and  O_2
REMARK    2  A    between atoms: O_2  and  C_3
REMARK    3  A    between atoms: C_3  and  C_5
REMARK    4  A    between atoms: C_5  and  C_6
REMARK    5  A    between atoms: C_5  and  N_18
REMARK    6  A    between atoms: C_6  and  C_7
REMARK    7  A    between atoms: C_10  and  C_11
REMARK    8  A    between atoms: C_19  and  C_21
REMARK    9  A    between atoms: C_21  and  C_22
REMARK   10  A    between atoms: C_22  and  C_23
REMARK   11  A    between atoms: C_23  and  C_24
REMARK   12  A    between atoms: C_24  and  C_25
REMARK   13  A    between atoms: C_25  and  C_26
REMARK   14  A    between atoms: C_26  and  C_27
REMARK   15  A    between atoms: N_29  and  O_30
REMARK                            x       y       z     vdW  Elec       q    Type
REMARK                         _______ _______ _______ _____ _____    ______ ____
ROOT
ATOM      1  C   UNL     1       3.160   5.536  18.514  0.00  0.00    +0.000 C 
ENDROOT
BRANCH   1   2
ATOM      2  N   UNL     1       4.524   5.197  18.076  0.00  0.00    +0.000 N 
ATOM      3  C   UNL     1       5.458   4.685  18.956  0.00  0.00    +0.000 C 
ATOM      4  O   UNL     1       5.187   4.454  20.130  0.00  0.00    +0.000 OA
ATOM      5  H   UNL     1       4.701   5.119  17.083  0.00  0.00    +0.000 HD
BRANCH   3   6
ATOM      6  C   UNL     1       6.846   4.451  18.376  0.00  0.00    +0.000 C 
BRANCH   6   7
ATOM      7  C   UNL     1       7.541   5.748  17.945  0.00  0.00    +0.000 C 
BRANCH   7   8
ATOM      8  C   UNL     1       7.089   6.138  16.542  0.00  0.00    +0.000 C 
BRANCH   8   9
ATOM      9  C   UNL     1       7.151   5.015  15.509  0.00  0.00    +0.000 C 
BRANCH   9  10
ATOM     10  C   UNL     1       6.074   5.156  14.418  0.00  0.00    +0.000 C 
BRANCH  10  11
ATOM     11  C   UNL     1       5.662   3.842  13.762  0.00  0.00    +0.000 C 
BRANCH  11  12
ATOM     12  C   UNL     1       6.430   3.498  12.503  0.00  0.00    +0.000 C 
ATOM     13  O   UNL     1       7.232   4.240  11.943  0.00  0.00    +0.000 OA
ATOM     14  N   UNL     1       6.168   2.219  12.071  0.00  0.00    +0.000 N 
ATOM     15  H   UNL     1       5.728   1.529  12.667  0.00  0.00    +0.000 HD
BRANCH  14  16
ATOM     16  O   UNL     1       7.105   1.717  11.147  0.00  0.00    +0.000 OA
ATOM     17  H   UNL     1       7.937   2.198  11.390  0.00  0.00    +0.000 HD
ENDBRANCH  14  16
ENDBRANCH  11  12
ENDBRANCH  10  11
ENDBRANCH   9  10
ENDBRANCH   8   9
ENDBRANCH   7   8
ENDBRANCH   6   7
ENDBRANCH   3   6
ENDBRANCH   1   2
BRANCH   1  18
ATOM     18  C   UNL     1       2.153   4.439  18.224  0.00  0.00    +0.000 C 
ATOM     19  O   UNL     1       2.052   3.919  17.123  0.00  0.00    +0.000 OA
BRANCH  18  21
ATOM     20  C   UNL     1       1.571   3.065  20.071  0.00  0.00    +0.000 C 
ATOM     21  O   UNL     1       1.335   4.241  19.289  0.00  0.00    +0.000 OA
ENDBRANCH  18  21
ENDBRANCH   1  18
BRANCH   1  22
ATOM     22  C   UNL     1       2.574   6.731  17.750  0.00  0.00    +0.000 C 
BRANCH  22  23
ATOM     23  C   UNL     1       1.952   7.767  18.631  0.00  0.00    +0.000 A 
ATOM     24  C   UNL     1       1.931   7.575  20.013  0.00  0.00    +0.000 A 
ATOM     25  C   UNL     1       1.347   8.530  20.837  0.00  0.00    +0.000 A 
ATOM     26  C   UNL     1       0.781   9.694  20.293  0.00  0.00    +0.000 A 
ATOM     27  C   UNL     1       0.829   9.890  18.913  0.00  0.00    +0.000 A 
ATOM     28  C   UNL     1       1.410   8.932  18.081  0.00  0.00    +0.000 A 
BRANCH  26  29
ATOM     29  C   UNL     1       0.180  10.691  21.182  0.00  0.00    +0.000 A 
ATOM     30  C   UNL     1      -0.647  10.482  22.274  0.00  0.00    +0.000 A 
ATOM     31  C   UNL     1      -1.046  11.694  22.894  0.00  0.00    +0.000 A 
ATOM     32  C   UNL     1      -0.525  12.794  22.270  0.00  0.00    +0.000 A 
ATOM     33  S   UNL     1       0.436  12.369  20.924  0.00  0.00    +0.000 S 
ENDBRANCH  26  29
ENDBRANCH  22  23
ENDBRANCH   1  22
TORSDOF 14
ENDMDL
MODEL 9
REMARK VINA RESULT:      -7.0      2.892      4.319
REMARK  Name = 
REMARK  15 active torsions:
REMARK  status: ('A' for Active; 'I' for Inactive)
REMARK    1  A    between atoms: C_1  and  O_2
REMARK    2  A    between atoms: O_2  and  C_3
REMARK    3  A    between atoms: C_3  and  C_5
REMARK    4  A    between atoms: C_5  and  C_6
REMARK    5  A    between atoms: C_5  and  N_18
REMARK    6  A    between atoms: C_6  and  C_7
REMARK    7  A    between atoms: C_10  and  C_11
REMARK    8  A    between atoms: C_19  and  C_21
REMARK    9  A    between atoms: C_21  and  C_22
REMARK   10  A    between atoms: C_22  and  C_23
REMARK   11  A    between atoms: C_23  and  C_24
REMARK   12  A    between atoms: C_24  and  C_25
REMARK   13  A    between atoms: C_25  and  C_26
REMARK   14  A    between atoms: C_26  and  C_27
REMARK   15  A    between atoms: N_29  and  O_30
REMARK                            x       y       z     vdW  Elec       q    Type
REMARK                         _______ _______ _______ _____ _____    ______ ____
ROOT
ATOM      1  C   UNL     1       3.534   6.045  18.663  0.00  0.00    +0.000 C 
ENDROOT
BRANCH   1   2
ATOM      2  N   UNL     1       4.895   5.989  18.106  0.00  0.00    +0.000 N 
ATOM      3  C   UNL     1       5.937   5.403  18.799  0.00  0.00    +0.000 C 
ATOM      4  O   UNL     1       5.770   4.869  19.891  0.00  0.00    +0.000 OA
ATOM      5  H   UNL     1       5.014   6.171  17.117  0.00  0.00    +0.000 HD
BRANCH   3   6
ATOM      6  C   UNL     1       7.300   5.485  18.127  0.00  0.00    +0.000 C 
BRANCH   6   7
ATOM      7  C   UNL     1       8.063   6.768  18.476  0.00  0.00    +0.000 C 
BRANCH   7   8
ATOM      8  C   UNL     1       7.870   7.803  17.373  0.00  0.00    +0.000 C 
BRANCH   8   9
ATOM      9  C   UNL     1       7.898   9.256  17.840  0.00  0.00    +0.000 C 
BRANCH   9  10
ATOM     10  C   UNL     1       9.012   9.526  18.867  0.00  0.00    +0.000 C 
BRANCH  10  11
ATOM     11  C   UNL     1       9.594  10.936  18.814  0.00  0.00    +0.000 C 
BRANCH  11  12
ATOM     12  C   UNL     1       9.410  11.741  20.083  0.00  0.00    +0.000 C 
ATOM     13  O   UNL     1       9.485  11.288  21.223  0.00  0.00    +0.000 OA
ATOM     14  N   UNL     1       9.198  13.074  19.823  0.00  0.00    +0.000 N 
ATOM     15  H   UNL     1       9.402  13.486  18.921  0.00  0.00    +0.000 HD
BRANCH  14  16
ATOM     16  O   UNL     1       9.388  13.918  20.934  0.00  0.00    +0.000 OA
ATOM     17  H   UNL     1      10.131  13.480  21.423  0.00  0.00    +0.000 HD
ENDBRANCH  14  16
ENDBRANCH  11  12
ENDBRANCH  10  11
ENDBRANCH   9  10
ENDBRANCH   8   9
ENDBRANCH   7   8
ENDBRANCH   6   7
ENDBRANCH   3   6
ENDBRANCH   1   2
BRANCH   1  18
ATOM     18  C   UNL     1       2.775   4.741  18.510  0.00  0.00    +0.000 C 
ATOM     19  O   UNL     1       2.323   4.370  17.438  0.00  0.00    +0.000 OA
BRANCH  18  21
ATOM     20  C   UNL     1       2.504   2.726  19.738  0.00  0.00    +0.000 C 
ATOM     21  O   UNL     1       2.572   4.156  19.718  0.00  0.00    +0.000 OA
ENDBRANCH  18  21
ENDBRANCH   1  18
BRANCH   1  22
ATOM     22  C   UNL     1       2.631   7.041  17.921  0.00  0.00    +0.000 C 
BRANCH  22  23
ATOM     23  C   UNL     1       1.912   7.993  18.821  0.00  0.00    +0.000 A 
ATOM     24  C   UNL     1       1.338   9.147  18.287  0.00  0.00    +0.000 A 
ATOM     25  C   UNL     1       0.675  10.042  19.120  0.00  0.00    +0.000 A 
ATOM     26  C   UNL     1       0.570   9.792  20.497  0.00  0.00    +0.000 A 
ATOM     27  C   UNL     1       1.124   8.624  21.018  0.00  0.00    +0.000 A 
ATOM     28  C   UNL     1       1.795   7.726  20.188  0.00  0.00    +0.000 A 
BRANCH  26  29
ATOM     29  C   UNL     1      -0.143  10.743  21.353  0.00  0.00    +0.000 A 
ATOM     30  C   UNL     1      -0.751  10.509  22.576  0.00  0.00    +0.000 A 
ATOM     31  C   UNL     1      -1.357  11.674  23.114  0.00  0.00    +0.000 A 
ATOM     32  C   UNL     1      -1.204  12.763  22.301  0.00  0.00    +0.000 A 
ATOM     33  S   UNL     1      -0.343  12.381  20.878  0.00  0.00    +0.000 S 
ENDBRANCH  26  29
ENDBRANCH  22  23
ENDBRANCH   1  22
TORSDOF 14
ENDMDL
