MODEL 1
REMARK VINA RESULT:      -7.7      0.000      0.000
REMARK  Name = 
REMARK  13 active torsions:
REMARK  status: ('A' for Active; 'I' for Inactive)
REMARK    1  A    between atoms: C_1  and  C_2
REMARK    2  A    between atoms: C_2  and  O_3
REMARK    3  A    between atoms: O_3  and  C_4
REMARK    4  A    between atoms: C_7  and  O_8
REMARK    5  A    between atoms: O_8  and  C_9
REMARK    6  A    between atoms: C_9  and  C_10
REMARK    7  A    between atoms: C_10  and  C_11
REMARK    8  A    between atoms: N_13  and  C_14
REMARK    9  A    between atoms: N_13  and  C_28
REMARK   10  A    between atoms: C_14  and  C_15
REMARK   11  A    between atoms: N_17  and  C_18
REMARK   12  A    between atoms: C_23  and  C_24
REMARK   13  A    between atoms: C_28  and  C_29
REMARK                            x       y       z     vdW  Elec       q    Type
REMARK                         _______ _______ _______ _____ _____    ______ ____
ROOT
ATOM      1  C   UNL     1       5.550   6.415  16.513  0.00  0.00    +0.000 C 
ATOM      2  O   UNL     1       6.568   7.062  16.744  0.00  0.00    +0.000 OA
ATOM      3  N   UNL     1       5.605   5.040  16.220  0.00  0.00    +0.000 N 
ENDROOT
BRANCH   1   4
ATOM      4  C   UNL     1       4.176   7.081  16.446  0.00  0.00    +0.000 C 
BRANCH   4   5
ATOM      5  C   UNL     1       3.834   7.953  17.644  0.00  0.00    +0.000 C 
BRANCH   5   6
ATOM      6  O   UNL     1       2.849   7.330  18.465  0.00  0.00    +0.000 OA
BRANCH   6  10
ATOM      7  C   UNL     1       0.164   9.974  20.237  0.00  0.00    +0.000 A 
ATOM      8  C   UNL     1       0.733   8.923  20.956  0.00  0.00    +0.000 A 
ATOM      9  C   UNL     1       1.617   8.042  20.329  0.00  0.00    +0.000 A 
ATOM     10  C   UNL     1       1.911   8.186  18.974  0.00  0.00    +0.000 A 
ATOM     11  C   UNL     1       1.311   9.216  18.246  0.00  0.00    +0.000 A 
ATOM     12  C   UNL     1       0.429  10.098  18.875  0.00  0.00    +0.000 A 
BRANCH   7  13
ATOM     13  O   UNL     1      -0.630  10.820  20.960  0.00  0.00    +0.000 OA
BRANCH  13  15
ATOM     14  C   UNL     1      -1.369  11.804  23.004  0.00  0.00    +0.000 C 
ATOM     15  C   UNL     1      -0.410  10.814  22.372  0.00  0.00    +0.000 C 
ENDBRANCH  13  15
ENDBRANCH   7  13
ENDBRANCH   6  10
ENDBRANCH   5   6
ENDBRANCH   4   5
ENDBRANCH   1   4
BRANCH   3  16
ATOM     16  C   UNL     1       4.386   4.268  15.941  0.00  0.00    +0.000 C 
BRANCH  16  17
ATOM     17  C   UNL     1       3.453   3.725  17.026  0.00  0.00    +0.000 C 
ATOM     18  O   UNL     1       2.434   3.112  16.703  0.00  0.00    +0.000 OA
ATOM     19  N   UNL     1       3.684   4.199  18.308  0.00  0.00    +0.000 N 
ATOM     20  H   UNL     1       4.178   5.087  18.368  0.00  0.00    +0.000 HD
BRANCH  19  21
ATOM     21  C   UNL     1       2.880   3.806  19.405  0.00  0.00    +0.000 A 
ATOM     22  C   UNL     1       1.667   4.475  19.638  0.00  0.00    +0.000 A 
ATOM     23  C   UNL     1       0.848   4.128  20.712  0.00  0.00    +0.000 A 
ATOM     24  C   UNL     1       1.231   3.104  21.568  0.00  0.00    +0.000 A 
ATOM     25  C   UNL     1       2.428   2.424  21.342  0.00  0.00    +0.000 A 
ATOM     26  C   UNL     1       3.265   2.759  20.257  0.00  0.00    +0.000 A 
BRANCH  26  27
ATOM     27  C   UNL     1       4.582   2.039  20.138  0.00  0.00    +0.000 C 
ATOM     28  F   UNL     1       5.022   1.485  21.307  0.00  0.00    +0.000 F 
ATOM     29  F   UNL     1       4.533   1.009  19.244  0.00  0.00    +0.000 F 
ATOM     30  F   UNL     1       5.590   2.849  19.719  0.00  0.00    +0.000 F 
ENDBRANCH  26  27
ENDBRANCH  19  21
ENDBRANCH  16  17
ENDBRANCH   3  16
BRANCH   3  31
ATOM     31  C   UNL     1       6.914   4.499  15.841  0.00  0.00    +0.000 C 
BRANCH  31  32
ATOM     32  C   UNL     1       7.129   4.574  14.364  0.00  0.00    +0.000 A 
ATOM     33  C   UNL     1       6.603   3.890  13.285  0.00  0.00    +0.000 A 
ATOM     34  C   UNL     1       7.156   4.479  12.122  0.00  0.00    +0.000 A 
ATOM     35  C   UNL     1       7.986   5.483  12.571  0.00  0.00    +0.000 A 
ATOM     36  O   UNL     1       7.974   5.546  13.922  0.00  0.00    +0.000 OA
ENDBRANCH  31  32
ENDBRANCH   3  31
TORSDOF 12
ENDMDL
MODEL 2
REMARK VINA RESULT:      -7.6      3.038      7.941
REMARK  Name = 
REMARK  13 active torsions:
REMARK  status: ('A' for Active; 'I' for Inactive)
REMARK    1  A    between atoms: C_1  and  C_2
REMARK    2  A    between atoms: C_2  and  O_3
REMARK    3  A    between atoms: O_3  and  C_4
REMARK    4  A    between atoms: C_7  and  O_8
REMARK    5  A    between atoms: O_8  and  C_9
REMARK    6  A    between atoms: C_9  and  C_10
REMARK    7  A    between atoms: C_10  and  C_11
REMARK    8  A    between atoms: N_13  and  C_14
REMARK    9  A    between atoms: N_13  and  C_28
REMARK   10  A    between atoms: C_14  and  C_15
REMARK   11  A    between atoms: N_17  and  C_18
REMARK   12  A    between atoms: C_23  and  C_24
REMARK   13  A    between atoms: C_28  and  C_29
REMARK                            x       y       z     vdW  Elec       q    Type
REMARK                         _______ _______ _______ _____ _____    ______ ____
ROOT
ATOM      1  C   UNL     1       6.093   5.433  19.054  0.00  0.00    +0.000 C 
ATOM      2  O   UNL     1       6.956   4.956  19.785  0.00  0.00    +0.000 OA
ATOM      3  N   UNL     1       4.817   4.849  18.945  0.00  0.00    +0.000 N 
ENDROOT
BRANCH   1   4
ATOM      4  C   UNL     1       6.380   6.637  18.156  0.00  0.00    +0.000 C 
BRANCH   4   5
ATOM      5  C   UNL     1       7.268   6.338  16.958  0.00  0.00    +0.000 C 
BRANCH   5   6
ATOM      6  O   UNL     1       7.305   4.940  16.686  0.00  0.00    +0.000 OA
BRANCH   6  10
ATOM      7  C   UNL     1       6.192   3.988  12.787  0.00  0.00    +0.000 A 
ATOM      8  C   UNL     1       5.496   3.487  13.887  0.00  0.00    +0.000 A 
ATOM      9  C   UNL     1       5.904   3.809  15.183  0.00  0.00    +0.000 A 
ATOM     10  C   UNL     1       7.029   4.607  15.387  0.00  0.00    +0.000 A 
ATOM     11  C   UNL     1       7.748   5.078  14.287  0.00  0.00    +0.000 A 
ATOM     12  C   UNL     1       7.337   4.756  12.991  0.00  0.00    +0.000 A 
BRANCH   7  13
ATOM     13  O   UNL     1       5.669   3.672  11.564  0.00  0.00    +0.000 OA
BRANCH  13  15
ATOM     14  C   UNL     1       3.503   3.663  10.564  0.00  0.00    +0.000 C 
ATOM     15  C   UNL     1       4.406   3.005  11.590  0.00  0.00    +0.000 C 
ENDBRANCH  13  15
ENDBRANCH   7  13
ENDBRANCH   6  10
ENDBRANCH   5   6
ENDBRANCH   4   5
ENDBRANCH   1   4
BRANCH   3  16
ATOM     16  C   UNL     1       3.787   5.420  18.068  0.00  0.00    +0.000 C 
BRANCH  16  17
ATOM     17  C   UNL     1       2.547   6.161  18.576  0.00  0.00    +0.000 C 
ATOM     18  O   UNL     1       1.475   6.034  17.983  0.00  0.00    +0.000 OA
ATOM     19  N   UNL     1       2.785   7.147  19.523  0.00  0.00    +0.000 N 
ATOM     20  H   UNL     1       3.727   7.530  19.534  0.00  0.00    +0.000 HD
BRANCH  19  21
ATOM     21  C   UNL     1       1.737   7.933  20.059  0.00  0.00    +0.000 A 
ATOM     22  C   UNL     1       1.123   7.529  21.256  0.00  0.00    +0.000 A 
ATOM     23  C   UNL     1       0.080   8.267  21.815  0.00  0.00    +0.000 A 
ATOM     24  C   UNL     1      -0.363   9.422  21.184  0.00  0.00    +0.000 A 
ATOM     25  C   UNL     1       0.245   9.841  20.000  0.00  0.00    +0.000 A 
ATOM     26  C   UNL     1       1.305   9.108  19.425  0.00  0.00    +0.000 A 
BRANCH  26  27
ATOM     27  C   UNL     1       1.844   9.578  18.100  0.00  0.00    +0.000 C 
ATOM     28  F   UNL     1       3.132   9.190  17.852  0.00  0.00    +0.000 F 
ATOM     29  F   UNL     1       1.115   9.110  17.046  0.00  0.00    +0.000 F 
ATOM     30  F   UNL     1       1.845  10.932  17.981  0.00  0.00    +0.000 F 
ENDBRANCH  26  27
ENDBRANCH  19  21
ENDBRANCH  16  17
ENDBRANCH   3  16
BRANCH   3  31
ATOM     31  C   UNL     1       4.680   3.474  19.434  0.00  0.00    +0.000 C 
BRANCH  31  32
ATOM     32  C   UNL     1       3.294   3.205  19.926  0.00  0.00    +0.000 A 
ATOM     33  C   UNL     1       2.627   3.481  21.104  0.00  0.00    +0.000 A 
ATOM     34  C   UNL     1       1.294   3.034  20.931  0.00  0.00    +0.000 A 
ATOM     35  C   UNL     1       1.239   2.512  19.657  0.00  0.00    +0.000 A 
ATOM     36  O   UNL     1       2.441   2.613  19.045  0.00  0.00    +0.000 OA
ENDBRANCH  31  32
ENDBRANCH   3  31
TORSDOF 12
ENDMDL
MODEL 3
REMARK VINA RESULT:      -7.5      0.758      1.120
REMARK  Name = 
REMARK  13 active torsions:
REMARK  status: ('A' for Active; 'I' for Inactive)
REMARK    1  A    between atoms: C_1  and  C_2
REMARK    2  A    between atoms: C_2  and  O_3
REMARK    3  A    between atoms: O_3  and  C_4
REMARK    4  A    between atoms: C_7  and  O_8
REMARK    5  A    between atoms: O_8  and  C_9
REMARK    6  A    between atoms: C_9  and  C_10
REMARK    7  A    between atoms: C_10  and  C_11
REMARK    8  A    between atoms: N_13  and  C_14
REMARK    9  A    between atoms: N_13  and  C_28
REMARK   10  A    between atoms: C_14  and  C_15
REMARK   11  A    between atoms: N_17  and  C_18
REMARK   12  A    between atoms: C_23  and  C_24
REMARK   13  A    between atoms: C_28  and  C_29
REMARK                            x       y       z     vdW  Elec       q    Type
REMARK                         _______ _______ _______ _____ _____    ______ ____
ROOT
ATOM      1  C   UNL     1       5.439   6.461  16.585  0.00  0.00    +0.000 C 
ATOM      2  O   UNL     1       6.460   7.106  16.805  0.00  0.00    +0.000 OA
ATOM      3  N   UNL     1       5.491   5.093  16.257  0.00  0.00    +0.000 N 
ENDROOT
BRANCH   1   4
ATOM      4  C   UNL     1       4.061   7.122  16.571  0.00  0.00    +0.000 C 
BRANCH   4   5
ATOM      5  C   UNL     1       3.563   7.580  17.932  0.00  0.00    +0.000 C 
BRANCH   5   6
ATOM      6  O   UNL     1       2.727   8.728  17.811  0.00  0.00    +0.000 OA
BRANCH   6  10
ATOM      7  C   UNL     1       0.046   9.079  20.980  0.00  0.00    +0.000 A 
ATOM      8  C   UNL     1       1.066   8.127  20.989  0.00  0.00    +0.000 A 
ATOM      9  C   UNL     1       1.938   8.022  19.904  0.00  0.00    +0.000 A 
ATOM     10  C   UNL     1       1.777   8.844  18.790  0.00  0.00    +0.000 A 
ATOM     11  C   UNL     1       0.733   9.771  18.764  0.00  0.00    +0.000 A 
ATOM     12  C   UNL     1      -0.138   9.876  19.852  0.00  0.00    +0.000 A 
BRANCH   7  13
ATOM     13  O   UNL     1      -0.707   9.148  22.118  0.00  0.00    +0.000 OA
BRANCH  13  15
ATOM     14  C   UNL     1      -1.530  11.139  23.145  0.00  0.00    +0.000 C 
ATOM     15  C   UNL     1      -0.351  10.191  23.027  0.00  0.00    +0.000 C 
ENDBRANCH  13  15
ENDBRANCH   7  13
ENDBRANCH   6  10
ENDBRANCH   5   6
ENDBRANCH   4   5
ENDBRANCH   1   4
BRANCH   3  16
ATOM     16  C   UNL     1       4.268   4.324  15.991  0.00  0.00    +0.000 C 
BRANCH  16  17
ATOM     17  C   UNL     1       3.371   3.741  17.086  0.00  0.00    +0.000 C 
ATOM     18  O   UNL     1       2.357   3.114  16.775  0.00  0.00    +0.000 OA
ATOM     19  N   UNL     1       3.623   4.197  18.372  0.00  0.00    +0.000 N 
ATOM     20  H   UNL     1       4.100   5.093  18.437  0.00  0.00    +0.000 HD
BRANCH  19  21
ATOM     21  C   UNL     1       2.852   3.767  19.479  0.00  0.00    +0.000 A 
ATOM     22  C   UNL     1       1.616   4.385  19.733  0.00  0.00    +0.000 A 
ATOM     23  C   UNL     1       0.829   4.001  20.818  0.00  0.00    +0.000 A 
ATOM     24  C   UNL     1       1.266   2.990  21.664  0.00  0.00    +0.000 A 
ATOM     25  C   UNL     1       2.486   2.360  21.417  0.00  0.00    +0.000 A 
ATOM     26  C   UNL     1       3.292   2.734  20.320  0.00  0.00    +0.000 A 
BRANCH  26  27
ATOM     27  C   UNL     1       4.635   2.068  20.179  0.00  0.00    +0.000 C 
ATOM     28  F   UNL     1       4.659   1.049  19.267  0.00  0.00    +0.000 F 
ATOM     29  F   UNL     1       5.607   2.937  19.778  0.00  0.00    +0.000 F 
ATOM     30  F   UNL     1       5.079   1.523  21.342  0.00  0.00    +0.000 F 
ENDBRANCH  26  27
ENDBRANCH  19  21
ENDBRANCH  16  17
ENDBRANCH   3  16
BRANCH   3  31
ATOM     31  C   UNL     1       6.792   4.568  15.831  0.00  0.00    +0.000 C 
BRANCH  31  32
ATOM     32  C   UNL     1       6.898   4.514  14.341  0.00  0.00    +0.000 A 
ATOM     33  C   UNL     1       7.642   5.211  13.409  0.00  0.00    +0.000 A 
ATOM     34  C   UNL     1       7.351   4.639  12.146  0.00  0.00    +0.000 A 
ATOM     35  C   UNL     1       6.445   3.632  12.393  0.00  0.00    +0.000 A 
ATOM     36  O   UNL     1       6.168   3.550  13.715  0.00  0.00    +0.000 OA
ENDBRANCH  31  32
ENDBRANCH   3  31
TORSDOF 12
ENDMDL
MODEL 4
REMARK VINA RESULT:      -7.4      3.126      8.561
REMARK  Name = 
REMARK  13 active torsions:
REMARK  status: ('A' for Active; 'I' for Inactive)
REMARK    1  A    between atoms: C_1  and  C_2
REMARK    2  A    between atoms: C_2  and  O_3
REMARK    3  A    between atoms: O_3  and  C_4
REMARK    4  A    between atoms: C_7  and  O_8
REMARK    5  A    between atoms: O_8  and  C_9
REMARK    6  A    between atoms: C_9  and  C_10
REMARK    7  A    between atoms: C_10  and  C_11
REMARK    8  A    between atoms: N_13  and  C_14
REMARK    9  A    between atoms: N_13  and  C_28
REMARK   10  A    between atoms: C_14  and  C_15
REMARK   11  A    between atoms: N_17  and  C_18
REMARK   12  A    between atoms: C_23  and  C_24
REMARK   13  A    between atoms: C_28  and  C_29
REMARK                            x       y       z     vdW  Elec       q    Type
REMARK                         _______ _______ _______ _____ _____    ______ ____
ROOT
ATOM      1  C   UNL     1       4.152   5.311  17.241  0.00  0.00    +0.000 C 
ATOM      2  O   UNL     1       4.017   4.106  17.051  0.00  0.00    +0.000 OA
ATOM      3  N   UNL     1       3.198   6.052  17.964  0.00  0.00    +0.000 N 
ENDROOT
BRANCH   1   4
ATOM      4  C   UNL     1       5.317   6.092  16.634  0.00  0.00    +0.000 C 
BRANCH   4   5
ATOM      5  C   UNL     1       6.666   5.396  16.730  0.00  0.00    +0.000 C 
BRANCH   5   6
ATOM      6  O   UNL     1       7.458   5.656  15.574  0.00  0.00    +0.000 OA
BRANCH   6  10
ATOM      7  C   UNL     1       6.024   3.608  12.242  0.00  0.00    +0.000 A 
ATOM      8  C   UNL     1       5.484   3.403  13.512  0.00  0.00    +0.000 A 
ATOM      9  C   UNL     1       5.998   4.091  14.613  0.00  0.00    +0.000 A 
ATOM     10  C   UNL     1       7.075   4.963  14.457  0.00  0.00    +0.000 A 
ATOM     11  C   UNL     1       7.640   5.140  13.192  0.00  0.00    +0.000 A 
ATOM     12  C   UNL     1       7.123   4.452  12.091  0.00  0.00    +0.000 A 
BRANCH   7  13
ATOM     13  O   UNL     1       5.404   2.942  11.223  0.00  0.00    +0.000 OA
BRANCH  13  15
ATOM     14  C   UNL     1       3.484   3.776  10.077  0.00  0.00    +0.000 C 
ATOM     15  C   UNL     1       3.975   2.959  11.257  0.00  0.00    +0.000 C 
ENDBRANCH  13  15
ENDBRANCH   7  13
ENDBRANCH   6  10
ENDBRANCH   5   6
ENDBRANCH   4   5
ENDBRANCH   1   4
BRANCH   3  16
ATOM     16  C   UNL     1       3.361   7.495  18.189  0.00  0.00    +0.000 C 
BRANCH  16  17
ATOM     17  C   UNL     1       2.196   8.486  18.254  0.00  0.00    +0.000 C 
ATOM     18  O   UNL     1       1.697   8.909  17.210  0.00  0.00    +0.000 OA
ATOM     19  N   UNL     1       1.957   9.049  19.499  0.00  0.00    +0.000 N 
ATOM     20  H   UNL     1       2.745   9.046  20.142  0.00  0.00    +0.000 HD
BRANCH  19  21
ATOM     21  C   UNL     1       0.932  10.003  19.700  0.00  0.00    +0.000 A 
ATOM     22  C   UNL     1       0.810  11.076  18.802  0.00  0.00    +0.000 A 
ATOM     23  C   UNL     1      -0.178  12.046  18.967  0.00  0.00    +0.000 A 
ATOM     24  C   UNL     1      -1.062  11.954  20.034  0.00  0.00    +0.000 A 
ATOM     25  C   UNL     1      -0.960  10.888  20.928  0.00  0.00    +0.000 A 
ATOM     26  C   UNL     1       0.032   9.896  20.771  0.00  0.00    +0.000 A 
BRANCH  26  27
ATOM     27  C   UNL     1       0.131   8.830  21.830  0.00  0.00    +0.000 C 
ATOM     28  F   UNL     1       1.278   8.887  22.573  0.00  0.00    +0.000 F 
ATOM     29  F   UNL     1      -0.890   8.895  22.733  0.00  0.00    +0.000 F 
ATOM     30  F   UNL     1       0.095   7.572  21.317  0.00  0.00    +0.000 F 
ENDBRANCH  26  27
ENDBRANCH  19  21
ENDBRANCH  16  17
ENDBRANCH   3  16
BRANCH   3  31
ATOM     31  C   UNL     1       1.886   5.426  18.156  0.00  0.00    +0.000 C 
BRANCH  31  32
ATOM     32  C   UNL     1       1.853   4.598  19.400  0.00  0.00    +0.000 A 
ATOM     33  C   UNL     1       2.212   4.829  20.713  0.00  0.00    +0.000 A 
ATOM     34  C   UNL     1       1.864   3.665  21.441  0.00  0.00    +0.000 A 
ATOM     35  C   UNL     1       1.317   2.800  20.521  0.00  0.00    +0.000 A 
ATOM     36  O   UNL     1       1.305   3.356  19.287  0.00  0.00    +0.000 OA
ENDBRANCH  31  32
ENDBRANCH   3  31
TORSDOF 12
ENDMDL
MODEL 5
REMARK VINA RESULT:      -7.1      3.947      9.194
REMARK  Name = 
REMARK  13 active torsions:
REMARK  status: ('A' for Active; 'I' for Inactive)
REMARK    1  A    between atoms: C_1  and  C_2
REMARK    2  A    between atoms: C_2  and  O_3
REMARK    3  A    between atoms: O_3  and  C_4
REMARK    4  A    between atoms: C_7  and  O_8
REMARK    5  A    between atoms: O_8  and  C_9
REMARK    6  A    between atoms: C_9  and  C_10
REMARK    7  A    between atoms: C_10  and  C_11
REMARK    8  A    between atoms: N_13  and  C_14
REMARK    9  A    between atoms: N_13  and  C_28
REMARK   10  A    between atoms: C_14  and  C_15
REMARK   11  A    between atoms: N_17  and  C_18
REMARK   12  A    between atoms: C_23  and  C_24
REMARK   13  A    between atoms: C_28  and  C_29
REMARK                            x       y       z     vdW  Elec       q    Type
REMARK                         _______ _______ _______ _____ _____    ______ ____
ROOT
ATOM      1  C   UNL     1       3.896   6.206  19.023  0.00  0.00    +0.000 C 
ATOM      2  O   UNL     1       4.549   5.659  19.906  0.00  0.00    +0.000 OA
ATOM      3  N   UNL     1       2.599   6.696  19.267  0.00  0.00    +0.000 N 
ENDROOT
BRANCH   1   4
ATOM      4  C   UNL     1       4.415   6.313  17.590  0.00  0.00    +0.000 C 
BRANCH   4   5
ATOM      5  C   UNL     1       5.931   6.314  17.463  0.00  0.00    +0.000 C 
BRANCH   5   6
ATOM      6  O   UNL     1       6.426   4.998  17.232  0.00  0.00    +0.000 OA
BRANCH   6  10
ATOM      7  C   UNL     1       6.500   3.974  13.195  0.00  0.00    +0.000 A 
ATOM      8  C   UNL     1       5.677   3.306  14.101  0.00  0.00    +0.000 A 
ATOM      9  C   UNL     1       5.687   3.660  15.452  0.00  0.00    +0.000 A 
ATOM     10  C   UNL     1       6.543   4.661  15.910  0.00  0.00    +0.000 A 
ATOM     11  C   UNL     1       7.394   5.304  15.009  0.00  0.00    +0.000 A 
ATOM     12  C   UNL     1       7.381   4.950  13.658  0.00  0.00    +0.000 A 
BRANCH   7  13
ATOM     13  O   UNL     1       6.362   3.601  11.887  0.00  0.00    +0.000 OA
BRANCH  13  15
ATOM     14  C   UNL     1       6.493   1.341  11.132  0.00  0.00    +0.000 C 
ATOM     15  C   UNL     1       5.577   2.428  11.663  0.00  0.00    +0.000 C 
ENDBRANCH  13  15
ENDBRANCH   7  13
ENDBRANCH   6  10
ENDBRANCH   5   6
ENDBRANCH   4   5
ENDBRANCH   1   4
BRANCH   3  16
ATOM     16  C   UNL     1       1.817   7.349  18.208  0.00  0.00    +0.000 C 
BRANCH  16  17
ATOM     17  C   UNL     1       1.648   8.866  18.083  0.00  0.00    +0.000 C 
ATOM     18  O   UNL     1       2.481   9.522  17.458  0.00  0.00    +0.000 OA
ATOM     19  N   UNL     1       0.700   9.434  18.922  0.00  0.00    +0.000 N 
ATOM     20  H   UNL     1       0.469   8.897  19.755  0.00  0.00    +0.000 HD
BRANCH  19  21
ATOM     21  C   UNL     1       0.458  10.828  18.936  0.00  0.00    +0.000 A 
ATOM     22  C   UNL     1       1.389  11.677  19.558  0.00  0.00    +0.000 A 
ATOM     23  C   UNL     1       1.186  13.056  19.605  0.00  0.00    +0.000 A 
ATOM     24  C   UNL     1       0.050  13.606  19.028  0.00  0.00    +0.000 A 
ATOM     25  C   UNL     1      -0.877  12.777  18.397  0.00  0.00    +0.000 A 
ATOM     26  C   UNL     1      -0.684  11.379  18.336  0.00  0.00    +0.000 A 
BRANCH  26  27
ATOM     27  C   UNL     1      -1.776  10.547  17.718  0.00  0.00    +0.000 C 
ATOM     28  F   UNL     1      -2.384   9.688  18.590  0.00  0.00    +0.000 F 
ATOM     29  F   UNL     1      -2.782  11.309  17.199  0.00  0.00    +0.000 F 
ATOM     30  F   UNL     1      -1.332   9.770  16.695  0.00  0.00    +0.000 F 
ENDBRANCH  26  27
ENDBRANCH  19  21
ENDBRANCH  16  17
ENDBRANCH   3  16
BRANCH   3  31
ATOM     31  C   UNL     1       1.927   6.209  20.475  0.00  0.00    +0.000 C 
BRANCH  31  32
ATOM     32  C   UNL     1       1.681   4.735  20.407  0.00  0.00    +0.000 A 
ATOM     33  C   UNL     1       1.152   3.898  19.444  0.00  0.00    +0.000 A 
ATOM     34  C   UNL     1       1.256   2.580  19.951  0.00  0.00    +0.000 A 
ATOM     35  C   UNL     1       1.840   2.702  21.192  0.00  0.00    +0.000 A 
ATOM     36  O   UNL     1       2.100   4.000  21.473  0.00  0.00    +0.000 OA
ENDBRANCH  31  32
ENDBRANCH   3  31
TORSDOF 12
ENDMDL
MODEL 6
REMARK VINA RESULT:      -7.1      4.532      6.003
REMARK  Name = 
REMARK  13 active torsions:
REMARK  status: ('A' for Active; 'I' for Inactive)
REMARK    1  A    between atoms: C_1  and  C_2
REMARK    2  A    between atoms: C_2  and  O_3
REMARK    3  A    between atoms: O_3  and  C_4
REMARK    4  A    between atoms: C_7  and  O_8
REMARK    5  A    between atoms: O_8  and  C_9
REMARK    6  A    between atoms: C_9  and  C_10
REMARK    7  A    between atoms: C_10  and  C_11
REMARK    8  A    between atoms: N_13  and  C_14
REMARK    9  A    between atoms: N_13  and  C_28
REMARK   10  A    between atoms: C_14  and  C_15
REMARK   11  A    between atoms: N_17  and  C_18
REMARK   12  A    between atoms: C_23  and  C_24
REMARK   13  A    between atoms: C_28  and  C_29
REMARK                            x       y       z     vdW  Elec       q    Type
REMARK                         _______ _______ _______ _____ _____    ______ ____
ROOT
ATOM      1  C   UNL     1       6.846   6.625  16.946  0.00  0.00    +0.000 C 
ATOM      2  O   UNL     1       6.823   7.596  16.197  0.00  0.00    +0.000 OA
ATOM      3  N   UNL     1       6.276   5.394  16.570  0.00  0.00    +0.000 N 
ENDROOT
BRANCH   1   4
ATOM      4  C   UNL     1       7.418   6.717  18.361  0.00  0.00    +0.000 C 
BRANCH   4   5
ATOM      5  C   UNL     1       8.418   7.844  18.569  0.00  0.00    +0.000 C 
BRANCH   5   6
ATOM      6  O   UNL     1       7.946   9.059  17.993  0.00  0.00    +0.000 OA
BRANCH   6  10
ATOM      7  C   UNL     1      10.133  12.317  19.390  0.00  0.00    +0.000 A 
ATOM      8  C   UNL     1      10.057  11.126  20.113  0.00  0.00    +0.000 A 
ATOM      9  C   UNL     1       9.301  10.057  19.627  0.00  0.00    +0.000 A 
ATOM     10  C   UNL     1       8.591  10.183  18.434  0.00  0.00    +0.000 A 
ATOM     11  C   UNL     1       8.637  11.388  17.730  0.00  0.00    +0.000 A 
ATOM     12  C   UNL     1       9.395  12.456  18.216  0.00  0.00    +0.000 A 
BRANCH   7  13
ATOM     13  O   UNL     1      10.955  13.274  19.916  0.00  0.00    +0.000 OA
BRANCH  13  15
ATOM     14  C   UNL     1      12.319  14.801  18.692  0.00  0.00    +0.000 C 
ATOM     15  C   UNL     1      12.228  13.406  19.280  0.00  0.00    +0.000 C 
ENDBRANCH  13  15
ENDBRANCH   7  13
ENDBRANCH   6  10
ENDBRANCH   5   6
ENDBRANCH   4   5
ENDBRANCH   1   4
BRANCH   3  16
ATOM     16  C   UNL     1       6.302   4.233  17.470  0.00  0.00    +0.000 C 
BRANCH  16  17
ATOM     17  C   UNL     1       5.199   3.911  18.482  0.00  0.00    +0.000 C 
ATOM     18  O   UNL     1       5.494   3.396  19.561  0.00  0.00    +0.000 OA
ATOM     19  N   UNL     1       3.902   3.977  17.994  0.00  0.00    +0.000 N 
ATOM     20  H   UNL     1       3.804   3.877  16.987  0.00  0.00    +0.000 HD
BRANCH  19  21
ATOM     21  C   UNL     1       2.785   3.675  18.809  0.00  0.00    +0.000 A 
ATOM     22  C   UNL     1       2.330   2.348  18.882  0.00  0.00    +0.000 A 
ATOM     23  C   UNL     1       1.226   2.007  19.663  0.00  0.00    +0.000 A 
ATOM     24  C   UNL     1       0.562   2.990  20.386  0.00  0.00    +0.000 A 
ATOM     25  C   UNL     1       1.010   4.311  20.331  0.00  0.00    +0.000 A 
ATOM     26  C   UNL     1       2.129   4.671  19.549  0.00  0.00    +0.000 A 
BRANCH  26  27
ATOM     27  C   UNL     1       2.490   6.131  19.473  0.00  0.00    +0.000 C 
ATOM     28  F   UNL     1       2.285   6.692  18.243  0.00  0.00    +0.000 F 
ATOM     29  F   UNL     1       1.769   6.892  20.345  0.00  0.00    +0.000 F 
ATOM     30  F   UNL     1       3.797   6.366  19.765  0.00  0.00    +0.000 F 
ENDBRANCH  26  27
ENDBRANCH  19  21
ENDBRANCH  16  17
ENDBRANCH   3  16
BRANCH   3  31
ATOM     31  C   UNL     1       5.349   5.418  15.436  0.00  0.00    +0.000 C 
BRANCH  31  32
ATOM     32  C   UNL     1       5.957   4.797  14.219  0.00  0.00    +0.000 A 
ATOM     33  C   UNL     1       7.209   4.858  13.639  0.00  0.00    +0.000 A 
ATOM     34  C   UNL     1       7.187   3.978  12.530  0.00  0.00    +0.000 A 
ATOM     35  C   UNL     1       5.919   3.441  12.506  0.00  0.00    +0.000 A 
ATOM     36  O   UNL     1       5.172   3.930  13.524  0.00  0.00    +0.000 OA
ENDBRANCH  31  32
ENDBRANCH   3  31
TORSDOF 12
ENDMDL
MODEL 7
REMARK VINA RESULT:      -7.0      1.954      2.552
REMARK  Name = 
REMARK  13 active torsions:
REMARK  status: ('A' for Active; 'I' for Inactive)
REMARK    1  A    between atoms: C_1  and  C_2
REMARK    2  A    between atoms: C_2  and  O_3
REMARK    3  A    between atoms: O_3  and  C_4
REMARK    4  A    between atoms: C_7  and  O_8
REMARK    5  A    between atoms: O_8  and  C_9
REMARK    6  A    between atoms: C_9  and  C_10
REMARK    7  A    between atoms: C_10  and  C_11
REMARK    8  A    between atoms: N_13  and  C_14
REMARK    9  A    between atoms: N_13  and  C_28
REMARK   10  A    between atoms: C_14  and  C_15
REMARK   11  A    between atoms: N_17  and  C_18
REMARK   12  A    between atoms: C_23  and  C_24
REMARK   13  A    between atoms: C_28  and  C_29
REMARK                            x       y       z     vdW  Elec       q    Type
REMARK                         _______ _______ _______ _____ _____    ______ ____
ROOT
ATOM      1  C   UNL     1       5.147   6.916  16.652  0.00  0.00    +0.000 C 
ATOM      2  O   UNL     1       5.367   7.192  15.477  0.00  0.00    +0.000 OA
ATOM      3  N   UNL     1       6.150   6.378  17.480  0.00  0.00    +0.000 N 
ENDROOT
BRANCH   1   4
ATOM      4  C   UNL     1       3.753   7.061  17.262  0.00  0.00    +0.000 C 
BRANCH   4   5
ATOM      5  C   UNL     1       3.363   8.486  17.623  0.00  0.00    +0.000 C 
BRANCH   5   6
ATOM      6  O   UNL     1       1.946   8.631  17.671  0.00  0.00    +0.000 OA
BRANCH   6  10
ATOM      7  C   UNL     1       0.335  10.770  20.861  0.00  0.00    +0.000 A 
ATOM      8  C   UNL     1       0.624  11.385  19.643  0.00  0.00    +0.000 A 
ATOM      9  C   UNL     1       1.180  10.645  18.598  0.00  0.00    +0.000 A 
ATOM     10  C   UNL     1       1.481   9.295  18.774  0.00  0.00    +0.000 A 
ATOM     11  C   UNL     1       1.226   8.689  20.006  0.00  0.00    +0.000 A 
ATOM     12  C   UNL     1       0.668   9.430  21.050  0.00  0.00    +0.000 A 
BRANCH   7  13
ATOM     13  O   UNL     1      -0.273  11.564  21.793  0.00  0.00    +0.000 OA
BRANCH  13  15
ATOM     14  C   UNL     1      -2.115  11.697  23.304  0.00  0.00    +0.000 C 
ATOM     15  C   UNL     1      -0.922  10.871  22.861  0.00  0.00    +0.000 C 
ENDBRANCH  13  15
ENDBRANCH   7  13
ENDBRANCH   6  10
ENDBRANCH   5   6
ENDBRANCH   4   5
ENDBRANCH   1   4
BRANCH   3  16
ATOM     16  C   UNL     1       5.884   6.046  18.887  0.00  0.00    +0.000 C 
BRANCH  16  17
ATOM     17  C   UNL     1       4.971   4.904  19.337  0.00  0.00    +0.000 C 
ATOM     18  O   UNL     1       5.251   3.743  19.033  0.00  0.00    +0.000 OA
ATOM     19  N   UNL     1       3.733   5.286  19.832  0.00  0.00    +0.000 N 
ATOM     20  H   UNL     1       3.403   6.202  19.536  0.00  0.00    +0.000 HD
BRANCH  19  21
ATOM     21  C   UNL     1       2.774   4.335  20.256  0.00  0.00    +0.000 A 
ATOM     22  C   UNL     1       2.814   3.869  21.581  0.00  0.00    +0.000 A 
ATOM     23  C   UNL     1       1.896   2.924  22.039  0.00  0.00    +0.000 A 
ATOM     24  C   UNL     1       0.922   2.434  21.179  0.00  0.00    +0.000 A 
ATOM     25  C   UNL     1       0.864   2.897  19.864  0.00  0.00    +0.000 A 
ATOM     26  C   UNL     1       1.783   3.857  19.386  0.00  0.00    +0.000 A 
BRANCH  26  27
ATOM     27  C   UNL     1       1.709   4.234  17.930  0.00  0.00    +0.000 C 
ATOM     28  F   UNL     1       0.629   3.713  17.273  0.00  0.00    +0.000 F 
ATOM     29  F   UNL     1       1.630   5.584  17.746  0.00  0.00    +0.000 F 
ATOM     30  F   UNL     1       2.795   3.824  17.223  0.00  0.00    +0.000 F 
ENDBRANCH  26  27
ENDBRANCH  19  21
ENDBRANCH  16  17
ENDBRANCH   3  16
BRANCH   3  31
ATOM     31  C   UNL     1       7.329   5.823  16.809  0.00  0.00    +0.000 C 
BRANCH  31  32
ATOM     32  C   UNL     1       6.944   4.980  15.636  0.00  0.00    +0.000 A 
ATOM     33  C   UNL     1       6.091   3.906  15.469  0.00  0.00    +0.000 A 
ATOM     34  C   UNL     1       6.100   3.591  14.088  0.00  0.00    +0.000 A 
ATOM     35  C   UNL     1       6.961   4.494  13.505  0.00  0.00    +0.000 A 
ATOM     36  O   UNL     1       7.473   5.335  14.433  0.00  0.00    +0.000 OA
ENDBRANCH  31  32
ENDBRANCH   3  31
TORSDOF 12
ENDMDL
MODEL 8
REMARK VINA RESULT:      -7.0      4.444      5.775
REMARK  Name = 
REMARK  13 active torsions:
REMARK  status: ('A' for Active; 'I' for Inactive)
REMARK    1  A    between atoms: C_1  and  C_2
REMARK    2  A    between atoms: C_2  and  O_3
REMARK    3  A    between atoms: O_3  and  C_4
REMARK    4  A    between atoms: C_7  and  O_8
REMARK    5  A    between atoms: O_8  and  C_9
REMARK    6  A    between atoms: C_9  and  C_10
REMARK    7  A    between atoms: C_10  and  C_11
REMARK    8  A    between atoms: N_13  and  C_14
REMARK    9  A    between atoms: N_13  and  C_28
REMARK   10  A    between atoms: C_14  and  C_15
REMARK   11  A    between atoms: N_17  and  C_18
REMARK   12  A    between atoms: C_23  and  C_24
REMARK   13  A    between atoms: C_28  and  C_29
REMARK                            x       y       z     vdW  Elec       q    Type
REMARK                         _______ _______ _______ _____ _____    ______ ____
ROOT
ATOM      1  C   UNL     1       7.186   6.890  16.995  0.00  0.00    +0.000 C 
ATOM      2  O   UNL     1       7.864   6.625  16.007  0.00  0.00    +0.000 OA
ATOM      3  N   UNL     1       5.788   6.729  16.992  0.00  0.00    +0.000 N 
ENDROOT
BRANCH   1   4
ATOM      4  C   UNL     1       7.809   7.489  18.256  0.00  0.00    +0.000 C 
BRANCH   4   5
ATOM      5  C   UNL     1       8.266   8.933  18.113  0.00  0.00    +0.000 C 
BRANCH   5   6
ATOM      6  O   UNL     1       9.207   9.273  19.128  0.00  0.00    +0.000 OA
BRANCH   6  10
ATOM      7  C   UNL     1       9.903  13.379  19.163  0.00  0.00    +0.000 A 
ATOM      8  C   UNL     1      10.054  12.624  18.000  0.00  0.00    +0.000 A 
ATOM      9  C   UNL     1       9.831  11.246  18.024  0.00  0.00    +0.000 A 
ATOM     10  C   UNL     1       9.488  10.610  19.216  0.00  0.00    +0.000 A 
ATOM     11  C   UNL     1       9.372  11.360  20.388  0.00  0.00    +0.000 A 
ATOM     12  C   UNL     1       9.594  12.739  20.362  0.00  0.00    +0.000 A 
BRANCH   7  13
ATOM     13  O   UNL     1      10.074  14.727  19.018  0.00  0.00    +0.000 OA
BRANCH  13  15
ATOM     14  C   UNL     1       8.249  15.785  17.902  0.00  0.00    +0.000 C 
ATOM     15  C   UNL     1       8.909  15.523  19.243  0.00  0.00    +0.000 C 
ENDBRANCH  13  15
ENDBRANCH   7  13
ENDBRANCH   6  10
ENDBRANCH   5   6
ENDBRANCH   4   5
ENDBRANCH   1   4
BRANCH   3  16
ATOM     16  C   UNL     1       4.979   7.050  18.175  0.00  0.00    +0.000 C 
BRANCH  16  17
ATOM     17  C   UNL     1       3.781   6.218  18.641  0.00  0.00    +0.000 C 
ATOM     18  O   UNL     1       2.654   6.714  18.632  0.00  0.00    +0.000 OA
ATOM     19  N   UNL     1       4.092   5.039  19.302  0.00  0.00    +0.000 N 
ATOM     20  H   UNL     1       5.017   5.000  19.724  0.00  0.00    +0.000 HD
BRANCH  19  21
ATOM     21  C   UNL     1       3.086   4.185  19.815  0.00  0.00    +0.000 A 
ATOM     22  C   UNL     1       2.627   4.381  21.128  0.00  0.00    +0.000 A 
ATOM     23  C   UNL     1       1.645   3.557  21.678  0.00  0.00    +0.000 A 
ATOM     24  C   UNL     1       1.106   2.526  20.920  0.00  0.00    +0.000 A 
ATOM     25  C   UNL     1       1.544   2.327  19.610  0.00  0.00    +0.000 A 
ATOM     26  C   UNL     1       2.534   3.155  19.038  0.00  0.00    +0.000 A 
BRANCH  26  27
ATOM     27  C   UNL     1       3.016   2.816  17.652  0.00  0.00    +0.000 C 
ATOM     28  F   UNL     1       2.914   3.845  16.758  0.00  0.00    +0.000 F 
ATOM     29  F   UNL     1       4.330   2.447  17.634  0.00  0.00    +0.000 F 
ATOM     30  F   UNL     1       2.332   1.782  17.094  0.00  0.00    +0.000 F 
ENDBRANCH  26  27
ENDBRANCH  19  21
ENDBRANCH  16  17
ENDBRANCH   3  16
BRANCH   3  31
ATOM     31  C   UNL     1       5.145   6.595  15.681  0.00  0.00    +0.000 C 
BRANCH  31  32
ATOM     32  C   UNL     1       5.512   5.304  15.022  0.00  0.00    +0.000 A 
ATOM     33  C   UNL     1       5.717   4.925  13.709  0.00  0.00    +0.000 A 
ATOM     34  C   UNL     1       6.123   3.569  13.737  0.00  0.00    +0.000 A 
ATOM     35  C   UNL     1       6.136   3.210  15.066  0.00  0.00    +0.000 A 
ATOM     36  O   UNL     1       5.770   4.253  15.847  0.00  0.00    +0.000 OA
ENDBRANCH  31  32
ENDBRANCH   3  31
TORSDOF 12
ENDMDL
MODEL 9
REMARK VINA RESULT:      -7.0      4.810      6.273
REMARK  Name = 
REMARK  13 active torsions:
REMARK  status: ('A' for Active; 'I' for Inactive)
REMARK    1  A    between atoms: C_1  and  C_2
REMARK    2  A    between atoms: C_2  and  O_3
REMARK    3  A    between atoms: O_3  and  C_4
REMARK    4  A    between atoms: C_7  and  O_8
REMARK    5  A    between atoms: O_8  and  C_9
REMARK    6  A    between atoms: C_9  and  C_10
REMARK    7  A    between atoms: C_10  and  C_11
REMARK    8  A    between atoms: N_13  and  C_14
REMARK    9  A    between atoms: N_13  and  C_28
REMARK   10  A    between atoms: C_14  and  C_15
REMARK   11  A    between atoms: N_17  and  C_18
REMARK   12  A    between atoms: C_23  and  C_24
REMARK   13  A    between atoms: C_28  and  C_29
REMARK                            x       y       z     vdW  Elec       q    Type
REMARK                         _______ _______ _______ _____ _____    ______ ____
ROOT
ATOM      1  C   UNL     1       7.153   7.185  17.256  0.00  0.00    +0.000 C 
ATOM      2  O   UNL     1       7.084   8.120  16.464  0.00  0.00    +0.000 OA
ATOM      3  N   UNL     1       6.528   5.952  16.992  0.00  0.00    +0.000 N 
ENDROOT
BRANCH   1   4
ATOM      4  C   UNL     1       7.847   7.331  18.609  0.00  0.00    +0.000 C 
BRANCH   4   5
ATOM      5  C   UNL     1       8.932   8.396  18.654  0.00  0.00    +0.000 C 
BRANCH   5   6
ATOM      6  O   UNL     1       8.620   9.403  19.612  0.00  0.00    +0.000 OA
BRANCH   6  10
ATOM      7  C   UNL     1      10.632  13.000  19.009  0.00  0.00    +0.000 A 
ATOM      8  C   UNL     1      10.220  12.207  17.938  0.00  0.00    +0.000 A 
ATOM      9  C   UNL     1       9.563  10.997  18.172  0.00  0.00    +0.000 A 
ATOM     10  C   UNL     1       9.344  10.558  19.477  0.00  0.00    +0.000 A 
ATOM     11  C   UNL     1       9.790  11.334  20.549  0.00  0.00    +0.000 A 
ATOM     12  C   UNL     1      10.446  12.545  20.313  0.00  0.00    +0.000 A 
BRANCH   7  13
ATOM     13  O   UNL     1      11.201  14.196  18.672  0.00  0.00    +0.000 OA
BRANCH  13  15
ATOM     14  C   UNL     1      11.264  15.732  16.847  0.00  0.00    +0.000 C 
ATOM     15  C   UNL     1      10.383  15.066  17.888  0.00  0.00    +0.000 C 
ENDBRANCH  13  15
ENDBRANCH   7  13
ENDBRANCH   6  10
ENDBRANCH   5   6
ENDBRANCH   4   5
ENDBRANCH   1   4
BRANCH   3  16
ATOM     16  C   UNL     1       6.609   4.834  17.943  0.00  0.00    +0.000 C 
BRANCH  16  17
ATOM     17  C   UNL     1       5.397   4.230  18.656  0.00  0.00    +0.000 C 
ATOM     18  O   UNL     1       5.565   3.525  19.652  0.00  0.00    +0.000 OA
ATOM     19  N   UNL     1       4.198   4.300  17.962  0.00  0.00    +0.000 N 
ATOM     20  H   UNL     1       4.277   4.404  16.953  0.00  0.00    +0.000 HD
BRANCH  19  21
ATOM     21  C   UNL     1       3.001   3.754  18.486  0.00  0.00    +0.000 A 
ATOM     22  C   UNL     1       2.668   2.423  18.187  0.00  0.00    +0.000 A 
ATOM     23  C   UNL     1       1.494   1.848  18.673  0.00  0.00    +0.000 A 
ATOM     24  C   UNL     1       0.637   2.597  19.469  0.00  0.00    +0.000 A 
ATOM     25  C   UNL     1       0.961   3.917  19.783  0.00  0.00    +0.000 A 
ATOM     26  C   UNL     1       2.148   4.512  19.303  0.00  0.00    +0.000 A 
BRANCH  26  27
ATOM     27  C   UNL     1       2.377   5.968  19.612  0.00  0.00    +0.000 C 
ATOM     28  F   UNL     1       2.217   6.798  18.538  0.00  0.00    +0.000 F 
ATOM     29  F   UNL     1       1.523   6.438  20.566  0.00  0.00    +0.000 F 
ATOM     30  F   UNL     1       3.630   6.217  20.078  0.00  0.00    +0.000 F 
ENDBRANCH  26  27
ENDBRANCH  19  21
ENDBRANCH  16  17
ENDBRANCH   3  16
BRANCH   3  31
ATOM     31  C   UNL     1       5.505   5.944  15.942  0.00  0.00    +0.000 C 
BRANCH  31  32
ATOM     32  C   UNL     1       5.911   5.080  14.791  0.00  0.00    +0.000 A 
ATOM     33  C   UNL     1       5.315   4.023  14.131  0.00  0.00    +0.000 A 
ATOM     34  C   UNL     1       6.175   3.673  13.063  0.00  0.00    +0.000 A 
ATOM     35  C   UNL     1       7.242   4.541  13.144  0.00  0.00    +0.000 A 
ATOM     36  O   UNL     1       7.088   5.394  14.183  0.00  0.00    +0.000 OA
ENDBRANCH  31  32
ENDBRANCH   3  31
TORSDOF 12
ENDMDL
