MODEL 1
REMARK VINA RESULT:      -7.4      0.000      0.000
REMARK  Name = 
REMARK  10 active torsions:
REMARK  status: ('A' for Active; 'I' for Inactive)
REMARK    1  A    between atoms: C_1  and  C_2
REMARK    2  A    between atoms: C_2  and  O_3
REMARK    3  A    between atoms: O_3  and  C_4
REMARK    4  A    between atoms: C_4  and  C_6
REMARK    5  A    between atoms: C_6  and  O_7
REMARK    6  A    between atoms: O_7  and  C_8
REMARK    7  A    between atoms: C_13  and  C_14
REMARK    8  A    between atoms: C_14  and  C_16
REMARK    9  A    between atoms: C_16  and  C_17
REMARK   10  A    between atoms: C_17  and  C_18
REMARK                            x       y       z     vdW  Elec       q    Type
REMARK                         _______ _______ _______ _____ _____    ______ ____
ROOT
ATOM      1  C   UNL     1       4.621   6.732  17.112  0.00  0.00    +0.000 A 
ATOM      2  C   UNL     1       3.896   7.941  17.207  0.00  0.00    +0.000 A 
ATOM      3  C   UNL     1       2.756   8.059  18.003  0.00  0.00    +0.000 A 
ATOM      4  C   UNL     1       2.320   6.977  18.744  0.00  0.00    +0.000 A 
ATOM      5  C   UNL     1       3.044   5.788  18.704  0.00  0.00    +0.000 A 
ATOM      6  C   UNL     1       4.205   5.646  17.909  0.00  0.00    +0.000 A 
ENDROOT
BRANCH   6   7
ATOM      7  C   UNL     1       4.834   4.288  17.993  0.00  0.00    +0.000 C 
ATOM      8  O   UNL     1       5.845   4.153  18.691  0.00  0.00    +0.000 OA
BRANCH   7   9
ATOM      9  C   UNL     1       4.288   3.090  17.257  0.00  0.00    +0.000 C 
BRANCH   9  10
ATOM     10  C   UNL     1       3.916   1.912  18.154  0.00  0.00    +0.000 C 
BRANCH  10  11
ATOM     11  C   UNL     1       2.927   2.347  19.210  0.00  0.00    +0.000 A 
ATOM     12  C   UNL     1       3.345   2.492  20.545  0.00  0.00    +0.000 A 
ATOM     13  C   UNL     1       2.433   2.796  21.552  0.00  0.00    +0.000 A 
ATOM     14  C   UNL     1       1.091   2.992  21.239  0.00  0.00    +0.000 A 
ATOM     15  C   UNL     1       0.665   2.893  19.915  0.00  0.00    +0.000 A 
ATOM     16  C   UNL     1       1.575   2.573  18.904  0.00  0.00    +0.000 A 
ENDBRANCH  10  11
ENDBRANCH   9  10
ENDBRANCH   7   9
ENDBRANCH   6   7
BRANCH   1  17
ATOM     17  O   UNL     1       5.685   6.588  16.242  0.00  0.00    +0.000 OA
BRANCH  17  18
ATOM     18  C   UNL     1       5.433   5.736  15.121  0.00  0.00    +0.000 C 
BRANCH  18  19
ATOM     19  C   UNL     1       6.604   4.951  14.530  0.00  0.00    +0.000 C 
ATOM     20  O   UNL     1       7.780   5.273  14.559  0.00  0.00    +0.000 OA
BRANCH  19  21
ATOM     21  O   UNL     1       6.106   3.790  13.995  0.00  0.00    +0.000 OA
BRANCH  21  23
ATOM     22  C   UNL     1       5.043   3.185  11.882  0.00  0.00    +0.000 C 
ATOM     23  C   UNL     1       6.326   3.568  12.592  0.00  0.00    +0.000 C 
ENDBRANCH  21  23
ENDBRANCH  19  21
ENDBRANCH  18  19
ENDBRANCH  17  18
ENDBRANCH   1  17
TORSDOF 9
ENDMDL
MODEL 2
REMARK VINA RESULT:      -7.3      0.928      1.382
REMARK  Name = 
REMARK  10 active torsions:
REMARK  status: ('A' for Active; 'I' for Inactive)
REMARK    1  A    between atoms: C_1  and  C_2
REMARK    2  A    between atoms: C_2  and  O_3
REMARK    3  A    between atoms: O_3  and  C_4
REMARK    4  A    between atoms: C_4  and  C_6
REMARK    5  A    between atoms: C_6  and  O_7
REMARK    6  A    between atoms: O_7  and  C_8
REMARK    7  A    between atoms: C_13  and  C_14
REMARK    8  A    between atoms: C_14  and  C_16
REMARK    9  A    between atoms: C_16  and  C_17
REMARK   10  A    between atoms: C_17  and  C_18
REMARK                            x       y       z     vdW  Elec       q    Type
REMARK                         _______ _______ _______ _____ _____    ______ ____
ROOT
ATOM      1  C   UNL     1       4.648   6.769  17.516  0.00  0.00    +0.000 A 
ATOM      2  C   UNL     1       3.661   7.747  17.260  0.00  0.00    +0.000 A 
ATOM      3  C   UNL     1       2.490   7.832  18.013  0.00  0.00    +0.000 A 
ATOM      4  C   UNL     1       2.282   6.953  19.060  0.00  0.00    +0.000 A 
ATOM      5  C   UNL     1       3.261   6.010  19.362  0.00  0.00    +0.000 A 
ATOM      6  C   UNL     1       4.457   5.909  18.615  0.00  0.00    +0.000 A 
ENDROOT
BRANCH   6   7
ATOM      7  C   UNL     1       5.377   4.824  19.090  0.00  0.00    +0.000 C 
ATOM      8  O   UNL     1       6.292   5.129  19.863  0.00  0.00    +0.000 OA
BRANCH   7   9
ATOM      9  C   UNL     1       5.234   3.387  18.656  0.00  0.00    +0.000 C 
BRANCH   9  10
ATOM     10  C   UNL     1       4.726   2.445  19.746  0.00  0.00    +0.000 C 
BRANCH  10  11
ATOM     11  C   UNL     1       3.234   2.604  19.924  0.00  0.00    +0.000 A 
ATOM     12  C   UNL     1       2.372   2.401  18.831  0.00  0.00    +0.000 A 
ATOM     13  C   UNL     1       1.004   2.637  18.945  0.00  0.00    +0.000 A 
ATOM     14  C   UNL     1       0.468   3.050  20.161  0.00  0.00    +0.000 A 
ATOM     15  C   UNL     1       1.302   3.217  21.267  0.00  0.00    +0.000 A 
ATOM     16  C   UNL     1       2.677   2.997  21.152  0.00  0.00    +0.000 A 
ENDBRANCH  10  11
ENDBRANCH   9  10
ENDBRANCH   7   9
ENDBRANCH   6   7
BRANCH   1  17
ATOM     17  O   UNL     1       5.754   6.622  16.700  0.00  0.00    +0.000 OA
BRANCH  17  18
ATOM     18  C   UNL     1       5.625   5.618  15.689  0.00  0.00    +0.000 C 
BRANCH  18  19
ATOM     19  C   UNL     1       6.750   4.595  15.536  0.00  0.00    +0.000 C 
ATOM     20  O   UNL     1       7.826   4.610  16.111  0.00  0.00    +0.000 OA
BRANCH  19  21
ATOM     21  O   UNL     1       6.322   3.624  14.666  0.00  0.00    +0.000 OA
BRANCH  21  23
ATOM     22  C   UNL     1       6.021   3.272  12.269  0.00  0.00    +0.000 C 
ATOM     23  C   UNL     1       5.610   4.061  13.496  0.00  0.00    +0.000 C 
ENDBRANCH  21  23
ENDBRANCH  19  21
ENDBRANCH  18  19
ENDBRANCH  17  18
ENDBRANCH   1  17
TORSDOF 9
ENDMDL
MODEL 3
REMARK VINA RESULT:      -7.3      0.967      1.109
REMARK  Name = 
REMARK  10 active torsions:
REMARK  status: ('A' for Active; 'I' for Inactive)
REMARK    1  A    between atoms: C_1  and  C_2
REMARK    2  A    between atoms: C_2  and  O_3
REMARK    3  A    between atoms: O_3  and  C_4
REMARK    4  A    between atoms: C_4  and  C_6
REMARK    5  A    between atoms: C_6  and  O_7
REMARK    6  A    between atoms: O_7  and  C_8
REMARK    7  A    between atoms: C_13  and  C_14
REMARK    8  A    between atoms: C_14  and  C_16
REMARK    9  A    between atoms: C_16  and  C_17
REMARK   10  A    between atoms: C_17  and  C_18
REMARK                            x       y       z     vdW  Elec       q    Type
REMARK                         _______ _______ _______ _____ _____    ______ ____
ROOT
ATOM      1  C   UNL     1       4.157   6.625  17.359  0.00  0.00    +0.000 A 
ATOM      2  C   UNL     1       3.410   7.810  17.542  0.00  0.00    +0.000 A 
ATOM      3  C   UNL     1       2.483   7.948  18.574  0.00  0.00    +0.000 A 
ATOM      4  C   UNL     1       2.290   6.911  19.469  0.00  0.00    +0.000 A 
ATOM      5  C   UNL     1       3.048   5.750  19.338  0.00  0.00    +0.000 A 
ATOM      6  C   UNL     1       3.997   5.590  18.302  0.00  0.00    +0.000 A 
ENDROOT
BRANCH   6   7
ATOM      7  C   UNL     1       4.700   4.266  18.325  0.00  0.00    +0.000 C 
ATOM      8  O   UNL     1       5.641   4.117  19.113  0.00  0.00    +0.000 OA
BRANCH   7   9
ATOM      9  C   UNL     1       4.311   3.120  17.425  0.00  0.00    +0.000 C 
BRANCH   9  10
ATOM     10  C   UNL     1       3.761   1.899  18.158  0.00  0.00    +0.000 C 
BRANCH  10  11
ATOM     11  C   UNL     1       2.827   2.327  19.265  0.00  0.00    +0.000 A 
ATOM     12  C   UNL     1       3.286   2.360  20.595  0.00  0.00    +0.000 A 
ATOM     13  C   UNL     1       2.419   2.656  21.644  0.00  0.00    +0.000 A 
ATOM     14  C   UNL     1       1.086   2.955  21.381  0.00  0.00    +0.000 A 
ATOM     15  C   UNL     1       0.623   2.968  20.066  0.00  0.00    +0.000 A 
ATOM     16  C   UNL     1       1.486   2.656  19.012  0.00  0.00    +0.000 A 
ENDBRANCH  10  11
ENDBRANCH   9  10
ENDBRANCH   7   9
ENDBRANCH   6   7
BRANCH   1  17
ATOM     17  O   UNL     1       4.995   6.454  16.274  0.00  0.00    +0.000 OA
BRANCH  17  18
ATOM     18  C   UNL     1       6.391   6.492  16.581  0.00  0.00    +0.000 C 
BRANCH  18  19
ATOM     19  C   UNL     1       7.291   5.398  16.008  0.00  0.00    +0.000 C 
ATOM     20  O   UNL     1       7.809   4.486  16.632  0.00  0.00    +0.000 OA
BRANCH  19  21
ATOM     21  O   UNL     1       7.382   5.591  14.653  0.00  0.00    +0.000 OA
BRANCH  21  23
ATOM     22  C   UNL     1       5.650   4.002  13.992  0.00  0.00    +0.000 C 
ATOM     23  C   UNL     1       7.080   4.467  13.809  0.00  0.00    +0.000 C 
ENDBRANCH  21  23
ENDBRANCH  19  21
ENDBRANCH  18  19
ENDBRANCH  17  18
ENDBRANCH   1  17
TORSDOF 9
ENDMDL
MODEL 4
REMARK VINA RESULT:      -7.1      1.578      2.170
REMARK  Name = 
REMARK  10 active torsions:
REMARK  status: ('A' for Active; 'I' for Inactive)
REMARK    1  A    between atoms: C_1  and  C_2
REMARK    2  A    between atoms: C_2  and  O_3
REMARK    3  A    between atoms: O_3  and  C_4
REMARK    4  A    between atoms: C_4  and  C_6
REMARK    5  A    between atoms: C_6  and  O_7
REMARK    6  A    between atoms: O_7  and  C_8
REMARK    7  A    between atoms: C_13  and  C_14
REMARK    8  A    between atoms: C_14  and  C_16
REMARK    9  A    between atoms: C_16  and  C_17
REMARK   10  A    between atoms: C_17  and  C_18
REMARK                            x       y       z     vdW  Elec       q    Type
REMARK                         _______ _______ _______ _____ _____    ______ ____
ROOT
ATOM      1  C   UNL     1       5.998   6.038  16.877  0.00  0.00    +0.000 A 
ATOM      2  C   UNL     1       7.329   6.271  17.289  0.00  0.00    +0.000 A 
ATOM      3  C   UNL     1       7.743   6.066  18.606  0.00  0.00    +0.000 A 
ATOM      4  C   UNL     1       6.841   5.599  19.544  0.00  0.00    +0.000 A 
ATOM      5  C   UNL     1       5.535   5.316  19.152  0.00  0.00    +0.000 A 
ATOM      6  C   UNL     1       5.095   5.512  17.822  0.00  0.00    +0.000 A 
ENDROOT
BRANCH   6   7
ATOM      7  C   UNL     1       3.654   5.161  17.603  0.00  0.00    +0.000 C 
ATOM      8  O   UNL     1       2.793   5.963  17.981  0.00  0.00    +0.000 OA
BRANCH   7   9
ATOM      9  C   UNL     1       3.219   3.873  16.952  0.00  0.00    +0.000 C 
BRANCH   9  10
ATOM     10  C   UNL     1       3.434   2.627  17.809  0.00  0.00    +0.000 C 
BRANCH  10  11
ATOM     11  C   UNL     1       2.691   2.754  19.117  0.00  0.00    +0.000 A 
ATOM     12  C   UNL     1       3.383   2.610  20.333  0.00  0.00    +0.000 A 
ATOM     13  C   UNL     1       2.704   2.625  21.550  0.00  0.00    +0.000 A 
ATOM     14  C   UNL     1       1.326   2.816  21.575  0.00  0.00    +0.000 A 
ATOM     15  C   UNL     1       0.629   3.002  20.381  0.00  0.00    +0.000 A 
ATOM     16  C   UNL     1       1.304   2.971  19.159  0.00  0.00    +0.000 A 
ENDBRANCH  10  11
ENDBRANCH   9  10
ENDBRANCH   7   9
ENDBRANCH   6   7
BRANCH   1  17
ATOM     17  O   UNL     1       5.569   6.344  15.600  0.00  0.00    +0.000 OA
BRANCH  17  18
ATOM     18  C   UNL     1       6.195   5.590  14.558  0.00  0.00    +0.000 C 
BRANCH  18  19
ATOM     19  C   UNL     1       5.952   4.081  14.508  0.00  0.00    +0.000 C 
ATOM     20  O   UNL     1       6.212   3.277  15.388  0.00  0.00    +0.000 OA
BRANCH  19  21
ATOM     21  O   UNL     1       5.347   3.790  13.312  0.00  0.00    +0.000 OA
BRANCH  21  23
ATOM     22  C   UNL     1       5.596   2.195  11.481  0.00  0.00    +0.000 C 
ATOM     23  C   UNL     1       6.197   3.365  12.234  0.00  0.00    +0.000 C 
ENDBRANCH  21  23
ENDBRANCH  19  21
ENDBRANCH  18  19
ENDBRANCH  17  18
ENDBRANCH   1  17
TORSDOF 9
ENDMDL
MODEL 5
REMARK VINA RESULT:      -7.0      1.742      3.370
REMARK  Name = 
REMARK  10 active torsions:
REMARK  status: ('A' for Active; 'I' for Inactive)
REMARK    1  A    between atoms: C_1  and  C_2
REMARK    2  A    between atoms: C_2  and  O_3
REMARK    3  A    between atoms: O_3  and  C_4
REMARK    4  A    between atoms: C_4  and  C_6
REMARK    5  A    between atoms: C_6  and  O_7
REMARK    6  A    between atoms: O_7  and  C_8
REMARK    7  A    between atoms: C_13  and  C_14
REMARK    8  A    between atoms: C_14  and  C_16
REMARK    9  A    between atoms: C_16  and  C_17
REMARK   10  A    between atoms: C_17  and  C_18
REMARK                            x       y       z     vdW  Elec       q    Type
REMARK                         _______ _______ _______ _____ _____    ______ ____
ROOT
ATOM      1  C   UNL     1       6.322   5.050  17.431  0.00  0.00    +0.000 A 
ATOM      2  C   UNL     1       7.460   4.773  18.220  0.00  0.00    +0.000 A 
ATOM      3  C   UNL     1       8.263   5.786  18.743  0.00  0.00    +0.000 A 
ATOM      4  C   UNL     1       7.938   7.110  18.510  0.00  0.00    +0.000 A 
ATOM      5  C   UNL     1       6.795   7.410  17.773  0.00  0.00    +0.000 A 
ATOM      6  C   UNL     1       5.964   6.399  17.238  0.00  0.00    +0.000 A 
ENDROOT
BRANCH   6   7
ATOM      7  C   UNL     1       4.790   6.926  16.467  0.00  0.00    +0.000 C 
ATOM      8  O   UNL     1       4.957   7.226  15.280  0.00  0.00    +0.000 OA
BRANCH   7   9
ATOM      9  C   UNL     1       3.426   7.108  17.084  0.00  0.00    +0.000 C 
BRANCH   9  10
ATOM     10  C   UNL     1       3.382   6.896  18.596  0.00  0.00    +0.000 C 
BRANCH  10  11
ATOM     11  C   UNL     1       2.583   5.660  18.930  0.00  0.00    +0.000 A 
ATOM     12  C   UNL     1       2.215   4.765  17.909  0.00  0.00    +0.000 A 
ATOM     13  C   UNL     1       1.396   3.671  18.176  0.00  0.00    +0.000 A 
ATOM     14  C   UNL     1       0.956   3.432  19.474  0.00  0.00    +0.000 A 
ATOM     15  C   UNL     1       1.345   4.285  20.507  0.00  0.00    +0.000 A 
ATOM     16  C   UNL     1       2.153   5.392  20.240  0.00  0.00    +0.000 A 
ENDBRANCH  10  11
ENDBRANCH   9  10
ENDBRANCH   7   9
ENDBRANCH   6   7
BRANCH   1  17
ATOM     17  O   UNL     1       5.593   4.043  16.827  0.00  0.00    +0.000 OA
BRANCH  17  18
ATOM     18  C   UNL     1       6.213   3.459  15.678  0.00  0.00    +0.000 C 
BRANCH  18  19
ATOM     19  C   UNL     1       6.474   4.350  14.463  0.00  0.00    +0.000 C 
ATOM     20  O   UNL     1       7.429   5.091  14.301  0.00  0.00    +0.000 OA
BRANCH  19  21
ATOM     21  O   UNL     1       5.464   4.139  13.560  0.00  0.00    +0.000 OA
BRANCH  21  23
ATOM     22  C   UNL     1       4.563   3.134  11.525  0.00  0.00    +0.000 C 
ATOM     23  C   UNL     1       5.793   3.405  12.368  0.00  0.00    +0.000 C 
ENDBRANCH  21  23
ENDBRANCH  19  21
ENDBRANCH  18  19
ENDBRANCH  17  18
ENDBRANCH   1  17
TORSDOF 9
ENDMDL
MODEL 6
REMARK VINA RESULT:      -7.0      1.930      3.248
REMARK  Name = 
REMARK  10 active torsions:
REMARK  status: ('A' for Active; 'I' for Inactive)
REMARK    1  A    between atoms: C_1  and  C_2
REMARK    2  A    between atoms: C_2  and  O_3
REMARK    3  A    between atoms: O_3  and  C_4
REMARK    4  A    between atoms: C_4  and  C_6
REMARK    5  A    between atoms: C_6  and  O_7
REMARK    6  A    between atoms: O_7  and  C_8
REMARK    7  A    between atoms: C_13  and  C_14
REMARK    8  A    between atoms: C_14  and  C_16
REMARK    9  A    between atoms: C_16  and  C_17
REMARK   10  A    between atoms: C_17  and  C_18
REMARK                            x       y       z     vdW  Elec       q    Type
REMARK                         _______ _______ _______ _____ _____    ______ ____
ROOT
ATOM      1  C   UNL     1       5.748   4.544  16.199  0.00  0.00    +0.000 A 
ATOM      2  C   UNL     1       6.816   5.453  16.367  0.00  0.00    +0.000 A 
ATOM      3  C   UNL     1       7.174   5.950  17.621  0.00  0.00    +0.000 A 
ATOM      4  C   UNL     1       6.486   5.535  18.746  0.00  0.00    +0.000 A 
ATOM      5  C   UNL     1       5.460   4.603  18.612  0.00  0.00    +0.000 A 
ATOM      6  C   UNL     1       5.084   4.082  17.352  0.00  0.00    +0.000 A 
ENDROOT
BRANCH   6   7
ATOM      7  C   UNL     1       3.951   3.102  17.417  0.00  0.00    +0.000 C 
ATOM      8  O   UNL     1       4.184   1.966  17.844  0.00  0.00    +0.000 OA
BRANCH   7   9
ATOM      9  C   UNL     1       2.550   3.445  16.976  0.00  0.00    +0.000 C 
BRANCH   9  10
ATOM     10  C   UNL     1       1.562   3.663  18.120  0.00  0.00    +0.000 C 
BRANCH  10  11
ATOM     11  C   UNL     1       1.818   4.993  18.788  0.00  0.00    +0.000 A 
ATOM     12  C   UNL     1       1.644   5.124  20.178  0.00  0.00    +0.000 A 
ATOM     13  C   UNL     1       1.778   6.362  20.803  0.00  0.00    +0.000 A 
ATOM     14  C   UNL     1       2.119   7.485  20.056  0.00  0.00    +0.000 A 
ATOM     15  C   UNL     1       2.336   7.366  18.683  0.00  0.00    +0.000 A 
ATOM     16  C   UNL     1       2.187   6.129  18.050  0.00  0.00    +0.000 A 
ENDBRANCH  10  11
ENDBRANCH   9  10
ENDBRANCH   7   9
ENDBRANCH   6   7
BRANCH   1  17
ATOM     17  O   UNL     1       5.330   4.137  14.946  0.00  0.00    +0.000 OA
BRANCH  17  18
ATOM     18  C   UNL     1       6.366   4.065  13.961  0.00  0.00    +0.000 C 
BRANCH  18  19
ATOM     19  C   UNL     1       6.025   3.475  12.593  0.00  0.00    +0.000 C 
ATOM     20  O   UNL     1       6.796   2.903  11.839  0.00  0.00    +0.000 OA
BRANCH  19  21
ATOM     21  O   UNL     1       4.684   3.662  12.374  0.00  0.00    +0.000 OA
BRANCH  21  23
ATOM     22  C   UNL     1       3.378   3.907  10.326  0.00  0.00    +0.000 C 
ATOM     23  C   UNL     1       4.098   2.960  11.265  0.00  0.00    +0.000 C 
ENDBRANCH  21  23
ENDBRANCH  19  21
ENDBRANCH  18  19
ENDBRANCH  17  18
ENDBRANCH   1  17
TORSDOF 9
ENDMDL
MODEL 7
REMARK VINA RESULT:      -7.0      1.846      2.876
REMARK  Name = 
REMARK  10 active torsions:
REMARK  status: ('A' for Active; 'I' for Inactive)
REMARK    1  A    between atoms: C_1  and  C_2
REMARK    2  A    between atoms: C_2  and  O_3
REMARK    3  A    between atoms: O_3  and  C_4
REMARK    4  A    between atoms: C_4  and  C_6
REMARK    5  A    between atoms: C_6  and  O_7
REMARK    6  A    between atoms: O_7  and  C_8
REMARK    7  A    between atoms: C_13  and  C_14
REMARK    8  A    between atoms: C_14  and  C_16
REMARK    9  A    between atoms: C_16  and  C_17
REMARK   10  A    between atoms: C_17  and  C_18
REMARK                            x       y       z     vdW  Elec       q    Type
REMARK                         _______ _______ _______ _____ _____    ______ ____
ROOT
ATOM      1  C   UNL     1       3.874   6.130  17.519  0.00  0.00    +0.000 A 
ATOM      2  C   UNL     1       2.868   7.119  17.451  0.00  0.00    +0.000 A 
ATOM      3  C   UNL     1       2.135   7.509  18.572  0.00  0.00    +0.000 A 
ATOM      4  C   UNL     1       2.404   6.935  19.801  0.00  0.00    +0.000 A 
ATOM      5  C   UNL     1       3.423   5.991  19.904  0.00  0.00    +0.000 A 
ATOM      6  C   UNL     1       4.181   5.584  18.782  0.00  0.00    +0.000 A 
ENDROOT
BRANCH   6   7
ATOM      7  C   UNL     1       5.222   4.552  19.097  0.00  0.00    +0.000 C 
ATOM      8  O   UNL     1       6.205   4.896  19.761  0.00  0.00    +0.000 OA
BRANCH   7   9
ATOM      9  C   UNL     1       5.117   3.122  18.630  0.00  0.00    +0.000 C 
BRANCH   9  10
ATOM     10  C   UNL     1       4.548   2.157  19.669  0.00  0.00    +0.000 C 
BRANCH  10  11
ATOM     11  C   UNL     1       3.081   2.435  19.895  0.00  0.00    +0.000 A 
ATOM     12  C   UNL     1       2.189   2.424  18.808  0.00  0.00    +0.000 A 
ATOM     13  C   UNL     1       0.851   2.773  18.975  0.00  0.00    +0.000 A 
ATOM     14  C   UNL     1       0.373   3.109  20.238  0.00  0.00    +0.000 A 
ATOM     15  C   UNL     1       1.234   3.086  21.335  0.00  0.00    +0.000 A 
ATOM     16  C   UNL     1       2.580   2.752  21.168  0.00  0.00    +0.000 A 
ENDBRANCH  10  11
ENDBRANCH   9  10
ENDBRANCH   7   9
ENDBRANCH   6   7
BRANCH   1  17
ATOM     17  O   UNL     1       4.521   5.671  16.388  0.00  0.00    +0.000 OA
BRANCH  17  18
ATOM     18  C   UNL     1       5.660   6.442  15.993  0.00  0.00    +0.000 C 
BRANCH  18  19
ATOM     19  C   UNL     1       7.048   5.825  16.164  0.00  0.00    +0.000 C 
ATOM     20  O   UNL     1       7.362   4.672  15.922  0.00  0.00    +0.000 OA
BRANCH  19  21
ATOM     21  O   UNL     1       7.897   6.811  16.599  0.00  0.00    +0.000 OA
BRANCH  21  23
ATOM     22  C   UNL     1       8.070   8.908  17.837  0.00  0.00    +0.000 C 
ATOM     23  C   UNL     1       7.548   7.486  17.819  0.00  0.00    +0.000 C 
ENDBRANCH  21  23
ENDBRANCH  19  21
ENDBRANCH  18  19
ENDBRANCH  17  18
ENDBRANCH   1  17
TORSDOF 9
ENDMDL
MODEL 8
REMARK VINA RESULT:      -7.0      2.507      4.586
REMARK  Name = 
REMARK  10 active torsions:
REMARK  status: ('A' for Active; 'I' for Inactive)
REMARK    1  A    between atoms: C_1  and  C_2
REMARK    2  A    between atoms: C_2  and  O_3
REMARK    3  A    between atoms: O_3  and  C_4
REMARK    4  A    between atoms: C_4  and  C_6
REMARK    5  A    between atoms: C_6  and  O_7
REMARK    6  A    between atoms: O_7  and  C_8
REMARK    7  A    between atoms: C_13  and  C_14
REMARK    8  A    between atoms: C_14  and  C_16
REMARK    9  A    between atoms: C_16  and  C_17
REMARK   10  A    between atoms: C_17  and  C_18
REMARK                            x       y       z     vdW  Elec       q    Type
REMARK                         _______ _______ _______ _____ _____    ______ ____
ROOT
ATOM      1  C   UNL     1       5.968   6.037  16.354  0.00  0.00    +0.000 A 
ATOM      2  C   UNL     1       6.460   5.455  15.165  0.00  0.00    +0.000 A 
ATOM      3  C   UNL     1       6.222   4.119  14.842  0.00  0.00    +0.000 A 
ATOM      4  C   UNL     1       5.465   3.331  15.690  0.00  0.00    +0.000 A 
ATOM      5  C   UNL     1       4.930   3.895  16.846  0.00  0.00    +0.000 A 
ATOM      6  C   UNL     1       5.154   5.248  17.190  0.00  0.00    +0.000 A 
ENDROOT
BRANCH   6   7
ATOM      7  C   UNL     1       4.503   5.660  18.477  0.00  0.00    +0.000 C 
ATOM      8  O   UNL     1       4.974   5.227  19.535  0.00  0.00    +0.000 OA
BRANCH   7   9
ATOM      9  C   UNL     1       3.301   6.568  18.528  0.00  0.00    +0.000 C 
BRANCH   9  10
ATOM     10  C   UNL     1       2.006   5.933  18.027  0.00  0.00    +0.000 C 
BRANCH  10  11
ATOM     11  C   UNL     1       1.712   4.666  18.794  0.00  0.00    +0.000 A 
ATOM     12  C   UNL     1       1.522   3.456  18.103  0.00  0.00    +0.000 A 
ATOM     13  C   UNL     1       1.153   2.295  18.778  0.00  0.00    +0.000 A 
ATOM     14  C   UNL     1       0.998   2.315  20.161  0.00  0.00    +0.000 A 
ATOM     15  C   UNL     1       1.222   3.496  20.868  0.00  0.00    +0.000 A 
ATOM     16  C   UNL     1       1.577   4.666  20.192  0.00  0.00    +0.000 A 
ENDBRANCH  10  11
ENDBRANCH   9  10
ENDBRANCH   7   9
ENDBRANCH   6   7
BRANCH   1  17
ATOM     17  O   UNL     1       6.295   7.329  16.721  0.00  0.00    +0.000 OA
BRANCH  17  18
ATOM     18  C   UNL     1       7.675   7.531  17.041  0.00  0.00    +0.000 C 
BRANCH  18  19
ATOM     19  C   UNL     1       8.135   7.256  18.473  0.00  0.00    +0.000 C 
ATOM     20  O   UNL     1       8.019   6.205  19.081  0.00  0.00    +0.000 OA
BRANCH  19  21
ATOM     21  O   UNL     1       8.745   8.390  18.946  0.00  0.00    +0.000 OA
BRANCH  21  23
ATOM     22  C   UNL     1       9.344  10.750  18.774  0.00  0.00    +0.000 C 
ATOM     23  C   UNL     1       8.526   9.606  18.211  0.00  0.00    +0.000 C 
ENDBRANCH  21  23
ENDBRANCH  19  21
ENDBRANCH  18  19
ENDBRANCH  17  18
ENDBRANCH   1  17
TORSDOF 9
ENDMDL
MODEL 9
REMARK VINA RESULT:      -6.9      2.042      6.439
REMARK  Name = 
REMARK  10 active torsions:
REMARK  status: ('A' for Active; 'I' for Inactive)
REMARK    1  A    between atoms: C_1  and  C_2
REMARK    2  A    between atoms: C_2  and  O_3
REMARK    3  A    between atoms: O_3  and  C_4
REMARK    4  A    between atoms: C_4  and  C_6
REMARK    5  A    between atoms: C_6  and  O_7
REMARK    6  A    between atoms: O_7  and  C_8
REMARK    7  A    between atoms: C_13  and  C_14
REMARK    8  A    between atoms: C_14  and  C_16
REMARK    9  A    between atoms: C_16  and  C_17
REMARK   10  A    between atoms: C_17  and  C_18
REMARK                            x       y       z     vdW  Elec       q    Type
REMARK                         _______ _______ _______ _____ _____    ______ ____
ROOT
ATOM      1  C   UNL     1       2.930   6.084  19.461  0.00  0.00    +0.000 A 
ATOM      2  C   UNL     1       2.040   7.159  19.678  0.00  0.00    +0.000 A 
ATOM      3  C   UNL     1       2.009   8.275  18.842  0.00  0.00    +0.000 A 
ATOM      4  C   UNL     1       2.854   8.338  17.750  0.00  0.00    +0.000 A 
ATOM      5  C   UNL     1       3.709   7.270  17.487  0.00  0.00    +0.000 A 
ATOM      6  C   UNL     1       3.753   6.127  18.319  0.00  0.00    +0.000 A 
ENDROOT
BRANCH   6   7
ATOM      7  C   UNL     1       4.746   5.094  17.875  0.00  0.00    +0.000 C 
ATOM      8  O   UNL     1       5.347   4.450  18.742  0.00  0.00    +0.000 OA
BRANCH   7   9
ATOM      9  C   UNL     1       5.041   4.819  16.422  0.00  0.00    +0.000 C 
BRANCH   9  10
ATOM     10  C   UNL     1       6.522   4.875  16.055  0.00  0.00    +0.000 C 
BRANCH  10  11
ATOM     11  C   UNL     1       6.710   4.584  14.585  0.00  0.00    +0.000 A 
ATOM     12  C   UNL     1       7.646   5.324  13.839  0.00  0.00    +0.000 A 
ATOM     13  C   UNL     1       7.768   5.142  12.463  0.00  0.00    +0.000 A 
ATOM     14  C   UNL     1       6.981   4.197  11.814  0.00  0.00    +0.000 A 
ATOM     15  C   UNL     1       6.077   3.425  12.544  0.00  0.00    +0.000 A 
ATOM     16  C   UNL     1       5.941   3.616  13.922  0.00  0.00    +0.000 A 
ENDBRANCH  10  11
ENDBRANCH   9  10
ENDBRANCH   7   9
ENDBRANCH   6   7
BRANCH   1  17
ATOM     17  O   UNL     1       3.031   5.032  20.352  0.00  0.00    +0.000 OA
BRANCH  17  18
ATOM     18  C   UNL     1       1.791   4.611  20.928  0.00  0.00    +0.000 C 
BRANCH  18  19
ATOM     19  C   UNL     1       1.560   3.115  21.140  0.00  0.00    +0.000 C 
ATOM     20  O   UNL     1       1.690   2.505  22.188  0.00  0.00    +0.000 OA
BRANCH  19  21
ATOM     21  O   UNL     1       1.136   2.580  19.950  0.00  0.00    +0.000 OA
BRANCH  21  23
ATOM     22  C   UNL     1       2.190   2.550  17.748  0.00  0.00    +0.000 C 
ATOM     23  C   UNL     1       2.127   1.936  19.132  0.00  0.00    +0.000 C 
ENDBRANCH  21  23
ENDBRANCH  19  21
ENDBRANCH  18  19
ENDBRANCH  17  18
ENDBRANCH   1  17
TORSDOF 9
ENDMDL
