MODEL 1
REMARK VINA RESULT:      -8.0      0.000      0.000
REMARK  Name = 
REMARK  8 active torsions:
REMARK  status: ('A' for Active; 'I' for Inactive)
REMARK    1  A    between atoms: N_1  and  S_2
REMARK    2  A    between atoms: S_2  and  C_5
REMARK    3  A    between atoms: C_10  and  S_11
REMARK    4  A    between atoms: S_11  and  C_14
REMARK    5  A    between atoms: C_14  and  C_15
REMARK    6  A    between atoms: C_15  and  O_16
REMARK    7  A    between atoms: C_17  and  N_18
REMARK    8  A    between atoms: N_18  and  C_19
REMARK                            x       y       z     vdW  Elec       q    Type
REMARK                         _______ _______ _______ _____ _____    ______ ____
ROOT
ATOM      1  C   UNL     1       4.875   5.106  17.102  0.00  0.00    +0.000 A 
ATOM      2  C   UNL     1       4.572   3.775  16.951  0.00  0.00    +0.000 A 
ATOM      3  F   UNL     1       5.305   2.962  16.181  0.00  0.00    +0.000 F 
ATOM      4  C   UNL     1       3.492   3.252  17.647  0.00  0.00    +0.000 A 
ATOM      5  F   UNL     1       3.234   1.944  17.514  0.00  0.00    +0.000 F 
ATOM      6  C   UNL     1       2.689   4.059  18.471  0.00  0.00    +0.000 A 
ATOM      7  C   UNL     1       2.949   5.440  18.605  0.00  0.00    +0.000 A 
ATOM      8  C   UNL     1       4.113   5.906  17.950  0.00  0.00    +0.000 A 
ATOM      9  F   UNL     1       4.533   7.165  18.141  0.00  0.00    +0.000 F 
ENDROOT
BRANCH   1  10
ATOM     10  S   UNL     1       6.182   5.863  16.238  0.00  0.00    +0.000 S 
ATOM     11  O   UNL     1       6.461   7.165  16.794  0.00  0.00    +0.000 OA
ATOM     12  O   UNL     1       5.987   5.656  14.825  0.00  0.00    +0.000 OA
BRANCH  10  13
ATOM     13  N   UNL     1       7.505   4.925  16.692  0.00  0.00    +0.000 NA
ATOM     14  H   UNL     1       8.341   5.508  16.755  0.00  0.00    +0.000 HD
ATOM     15  H   UNL     1       7.602   4.119  16.072  0.00  0.00    +0.000 HD
ENDBRANCH  10  13
ENDBRANCH   1  10
BRANCH   6  16
ATOM     16  S   UNL     1       1.313   3.224  19.226  0.00  0.00    +0.000 S 
ATOM     17  O   UNL     1       0.626   4.188  20.076  0.00  0.00    +0.000 OA
ATOM     18  O   UNL     1       0.590   2.572  18.154  0.00  0.00    +0.000 OA
BRANCH  16  19
ATOM     19  C   UNL     1       2.032   1.976  20.276  0.00  0.00    +0.000 C 
BRANCH  19  20
ATOM     20  C   UNL     1       2.959   2.595  21.303  0.00  0.00    +0.000 C 
BRANCH  20  21
ATOM     21  O   UNL     1       2.190   3.280  22.292  0.00  0.00    +0.000 OA
ATOM     22  H   UNL     1       2.510   3.006  23.170  0.00  0.00    +0.000 HD
ENDBRANCH  20  21
ENDBRANCH  19  20
ENDBRANCH  16  19
ENDBRANCH   6  16
BRANCH   7  23
ATOM     23  N   UNL     1       2.167   6.296  19.405  0.00  0.00    +0.000 N 
ATOM     24  H   UNL     1       1.186   5.996  19.493  0.00  0.00    +0.000 HD
BRANCH  23  25
ATOM     25  C   UNL     1       2.306   7.778  19.347  0.00  0.00    +0.000 C 
ATOM     26  C   UNL     1       1.645   8.314  18.069  0.00  0.00    +0.000 C 
ATOM     27  C   UNL     1       1.725   9.823  17.839  0.00  0.00    +0.000 C 
ATOM     28  C   UNL     1       0.920  10.724  18.771  0.00  0.00    +0.000 C 
ATOM     29  C   UNL     1      -0.415  10.150  19.241  0.00  0.00    +0.000 C 
ATOM     30  C   UNL     1      -0.396   9.703  20.699  0.00  0.00    +0.000 C 
ATOM     31  C   UNL     1       0.401   8.445  21.061  0.00  0.00    +0.000 C 
ATOM     32  C   UNL     1       1.884   8.403  20.693  0.00  0.00    +0.000 C 
ENDBRANCH  23  25
ENDBRANCH   7  23
TORSDOF 8
ENDMDL
MODEL 2
REMARK VINA RESULT:      -7.8      1.411      1.972
REMARK  Name = 
REMARK  8 active torsions:
REMARK  status: ('A' for Active; 'I' for Inactive)
REMARK    1  A    between atoms: N_1  and  S_2
REMARK    2  A    between atoms: S_2  and  C_5
REMARK    3  A    between atoms: C_10  and  S_11
REMARK    4  A    between atoms: S_11  and  C_14
REMARK    5  A    between atoms: C_14  and  C_15
REMARK    6  A    between atoms: C_15  and  O_16
REMARK    7  A    between atoms: C_17  and  N_18
REMARK    8  A    between atoms: N_18  and  C_19
REMARK                            x       y       z     vdW  Elec       q    Type
REMARK                         _______ _______ _______ _____ _____    ______ ____
ROOT
ATOM      1  C   UNL     1       5.324   5.578  17.771  0.00  0.00    +0.000 A 
ATOM      2  C   UNL     1       5.434   4.387  18.448  0.00  0.00    +0.000 A 
ATOM      3  F   UNL     1       6.506   3.596  18.324  0.00  0.00    +0.000 F 
ATOM      4  C   UNL     1       4.416   4.012  19.311  0.00  0.00    +0.000 A 
ATOM      5  F   UNL     1       4.558   2.864  19.987  0.00  0.00    +0.000 F 
ATOM      6  C   UNL     1       3.268   4.804  19.481  0.00  0.00    +0.000 A 
ATOM      7  C   UNL     1       3.107   6.009  18.761  0.00  0.00    +0.000 A 
ATOM      8  C   UNL     1       4.212   6.392  17.965  0.00  0.00    +0.000 A 
ATOM      9  F   UNL     1       4.223   7.592  17.365  0.00  0.00    +0.000 F 
ENDROOT
BRANCH   1  10
ATOM     10  S   UNL     1       6.528   6.113  16.635  0.00  0.00    +0.000 S 
ATOM     11  O   UNL     1       7.466   5.051  16.363  0.00  0.00    +0.000 OA
ATOM     12  O   UNL     1       6.954   7.441  16.999  0.00  0.00    +0.000 OA
BRANCH  10  13
ATOM     13  N   UNL     1       5.640   6.258  15.211  0.00  0.00    +0.000 NA
ATOM     14  H   UNL     1       4.704   5.870  15.343  0.00  0.00    +0.000 HD
ATOM     15  H   UNL     1       6.154   5.856  14.426  0.00  0.00    +0.000 HD
ENDBRANCH  10  13
ENDBRANCH   1  10
BRANCH   6  16
ATOM     16  S   UNL     1       2.043   4.126  20.577  0.00  0.00    +0.000 S 
ATOM     17  O   UNL     1       2.624   4.080  21.912  0.00  0.00    +0.000 OA
ATOM     18  O   UNL     1       0.827   4.878  20.349  0.00  0.00    +0.000 OA
BRANCH  16  19
ATOM     19  C   UNL     1       1.791   2.449  20.026  0.00  0.00    +0.000 C 
BRANCH  19  20
ATOM     20  C   UNL     1       1.271   2.414  18.603  0.00  0.00    +0.000 C 
BRANCH  20  21
ATOM     21  O   UNL     1       2.208   1.736  17.766  0.00  0.00    +0.000 OA
ATOM     22  H   UNL     1       1.835   0.866  17.535  0.00  0.00    +0.000 HD
ENDBRANCH  20  21
ENDBRANCH  19  20
ENDBRANCH  16  19
ENDBRANCH   6  16
BRANCH   7  23
ATOM     23  N   UNL     1       1.971   6.831  18.882  0.00  0.00    +0.000 N 
ATOM     24  H   UNL     1       1.269   6.676  18.146  0.00  0.00    +0.000 HD
BRANCH  23  25
ATOM     25  C   UNL     1       2.071   8.264  19.280  0.00  0.00    +0.000 C 
ATOM     26  C   UNL     1       1.328   9.140  18.263  0.00  0.00    +0.000 C 
ATOM     27  C   UNL     1       1.358  10.649  18.509  0.00  0.00    +0.000 C 
ATOM     28  C   UNL     1       0.586  11.186  19.710  0.00  0.00    +0.000 C 
ATOM     29  C   UNL     1      -0.707  10.442  20.039  0.00  0.00    +0.000 C 
ATOM     30  C   UNL     1      -0.596   9.569  21.285  0.00  0.00    +0.000 C 
ATOM     31  C   UNL     1       0.250   8.293  21.203  0.00  0.00    +0.000 C 
ATOM     32  C   UNL     1       1.710   8.426  20.772  0.00  0.00    +0.000 C 
ENDBRANCH  23  25
ENDBRANCH   7  23
TORSDOF 8
ENDMDL
MODEL 3
REMARK VINA RESULT:      -7.8      1.506      1.917
REMARK  Name = 
REMARK  8 active torsions:
REMARK  status: ('A' for Active; 'I' for Inactive)
REMARK    1  A    between atoms: N_1  and  S_2
REMARK    2  A    between atoms: S_2  and  C_5
REMARK    3  A    between atoms: C_10  and  S_11
REMARK    4  A    between atoms: S_11  and  C_14
REMARK    5  A    between atoms: C_14  and  C_15
REMARK    6  A    between atoms: C_15  and  O_16
REMARK    7  A    between atoms: C_17  and  N_18
REMARK    8  A    between atoms: N_18  and  C_19
REMARK                            x       y       z     vdW  Elec       q    Type
REMARK                         _______ _______ _______ _____ _____    ______ ____
ROOT
ATOM      1  C   UNL     1       5.293   5.524  17.488  0.00  0.00    +0.000 A 
ATOM      2  C   UNL     1       5.518   4.326  18.123  0.00  0.00    +0.000 A 
ATOM      3  F   UNL     1       6.594   3.575  17.863  0.00  0.00    +0.000 F 
ATOM      4  C   UNL     1       4.617   3.902  19.089  0.00  0.00    +0.000 A 
ATOM      5  F   UNL     1       4.873   2.749  19.721  0.00  0.00    +0.000 F 
ATOM      6  C   UNL     1       3.471   4.652  19.404  0.00  0.00    +0.000 A 
ATOM      7  C   UNL     1       3.191   5.862  18.732  0.00  0.00    +0.000 A 
ATOM      8  C   UNL     1       4.184   6.296  17.824  0.00  0.00    +0.000 A 
ATOM      9  F   UNL     1       4.088   7.505  17.251  0.00  0.00    +0.000 F 
ENDROOT
BRANCH   1  10
ATOM     10  S   UNL     1       6.341   6.119  16.233  0.00  0.00    +0.000 S 
ATOM     11  O   UNL     1       5.562   6.666  15.149  0.00  0.00    +0.000 OA
ATOM     12  O   UNL     1       7.397   5.162  16.016  0.00  0.00    +0.000 OA
BRANCH  10  13
ATOM     13  N   UNL     1       7.044   7.466  16.960  0.00  0.00    +0.000 NA
ATOM     14  H   UNL     1       6.679   7.582  17.907  0.00  0.00    +0.000 HD
ATOM     15  H   UNL     1       6.937   8.290  16.366  0.00  0.00    +0.000 HD
ENDBRANCH  10  13
ENDBRANCH   1  10
BRANCH   6  16
ATOM     16  S   UNL     1       2.402   3.913  20.618  0.00  0.00    +0.000 S 
ATOM     17  O   UNL     1       3.069   2.721  21.124  0.00  0.00    +0.000 OA
ATOM     18  O   UNL     1       2.030   4.971  21.535  0.00  0.00    +0.000 OA
BRANCH  16  19
ATOM     19  C   UNL     1       0.952   3.396  19.720  0.00  0.00    +0.000 C 
BRANCH  19  20
ATOM     20  C   UNL     1       1.330   2.640  18.462  0.00  0.00    +0.000 C 
BRANCH  20  21
ATOM     21  O   UNL     1       2.011   1.435  18.812  0.00  0.00    +0.000 OA
ATOM     22  H   UNL     1       2.065   0.874  18.018  0.00  0.00    +0.000 HD
ENDBRANCH  20  21
ENDBRANCH  19  20
ENDBRANCH  16  19
ENDBRANCH   6  16
BRANCH   7  23
ATOM     23  N   UNL     1       2.050   6.643  18.999  0.00  0.00    +0.000 N 
ATOM     24  H   UNL     1       1.250   6.427  18.387  0.00  0.00    +0.000 HD
BRANCH  23  25
ATOM     25  C   UNL     1       2.144   8.095  19.322  0.00  0.00    +0.000 C 
ATOM     26  C   UNL     1       1.406   8.915  18.255  0.00  0.00    +0.000 C 
ATOM     27  C   UNL     1       1.431  10.434  18.422  0.00  0.00    +0.000 C 
ATOM     28  C   UNL     1       0.648  11.032  19.587  0.00  0.00    +0.000 C 
ATOM     29  C   UNL     1      -0.645  10.302  19.946  0.00  0.00    +0.000 C 
ATOM     30  C   UNL     1      -0.541   9.495  21.236  0.00  0.00    +0.000 C 
ATOM     31  C   UNL     1       0.308   8.219  21.227  0.00  0.00    +0.000 C 
ATOM     32  C   UNL     1       1.771   8.333  20.800  0.00  0.00    +0.000 C 
ENDBRANCH  23  25
ENDBRANCH   7  23
TORSDOF 8
ENDMDL
MODEL 4
REMARK VINA RESULT:      -7.7      1.232      2.262
REMARK  Name = 
REMARK  8 active torsions:
REMARK  status: ('A' for Active; 'I' for Inactive)
REMARK    1  A    between atoms: N_1  and  S_2
REMARK    2  A    between atoms: S_2  and  C_5
REMARK    3  A    between atoms: C_10  and  S_11
REMARK    4  A    between atoms: S_11  and  C_14
REMARK    5  A    between atoms: C_14  and  C_15
REMARK    6  A    between atoms: C_15  and  O_16
REMARK    7  A    between atoms: C_17  and  N_18
REMARK    8  A    between atoms: N_18  and  C_19
REMARK                            x       y       z     vdW  Elec       q    Type
REMARK                         _______ _______ _______ _____ _____    ______ ____
ROOT
ATOM      1  C   UNL     1       4.877   5.071  16.908  0.00  0.00    +0.000 A 
ATOM      2  C   UNL     1       4.629   3.740  17.136  0.00  0.00    +0.000 A 
ATOM      3  F   UNL     1       5.063   2.783  16.307  0.00  0.00    +0.000 F 
ATOM      4  C   UNL     1       3.936   3.376  18.281  0.00  0.00    +0.000 A 
ATOM      5  F   UNL     1       3.733   2.070  18.502  0.00  0.00    +0.000 F 
ATOM      6  C   UNL     1       3.458   4.337  19.187  0.00  0.00    +0.000 A 
ATOM      7  C   UNL     1       3.657   5.716  18.951  0.00  0.00    +0.000 A 
ATOM      8  C   UNL     1       4.447   6.030  17.821  0.00  0.00    +0.000 A 
ATOM      9  F   UNL     1       4.825   7.297  17.597  0.00  0.00    +0.000 F 
ENDROOT
BRANCH   1  10
ATOM     10  S   UNL     1       5.700   5.629  15.480  0.00  0.00    +0.000 S 
ATOM     11  O   UNL     1       5.221   6.938  15.106  0.00  0.00    +0.000 OA
ATOM     12  O   UNL     1       5.784   4.543  14.536  0.00  0.00    +0.000 OA
BRANCH  10  13
ATOM     13  N   UNL     1       7.262   5.905  16.048  0.00  0.00    +0.000 NA
ATOM     14  H   UNL     1       7.559   5.128  16.642  0.00  0.00    +0.000 HD
ATOM     15  H   UNL     1       7.323   6.822  16.494  0.00  0.00    +0.000 HD
ENDBRANCH  10  13
ENDBRANCH   1  10
BRANCH   6  16
ATOM     16  S   UNL     1       2.535   3.683  20.558  0.00  0.00    +0.000 S 
ATOM     17  O   UNL     1       2.989   2.316  20.783  0.00  0.00    +0.000 OA
ATOM     18  O   UNL     1       2.638   4.657  21.625  0.00  0.00    +0.000 OA
BRANCH  16  19
ATOM     19  C   UNL     1       0.842   3.618  20.003  0.00  0.00    +0.000 C 
BRANCH  19  20
ATOM     20  C   UNL     1       0.763   3.235  18.538  0.00  0.00    +0.000 C 
BRANCH  20  21
ATOM     21  O   UNL     1       0.461   1.845  18.421  0.00  0.00    +0.000 OA
ATOM     22  H   UNL     1       1.298   1.348  18.459  0.00  0.00    +0.000 HD
ENDBRANCH  20  21
ENDBRANCH  19  20
ENDBRANCH  16  19
ENDBRANCH   6  16
BRANCH   7  23
ATOM     23  N   UNL     1       3.187   6.720  19.818  0.00  0.00    +0.000 N 
ATOM     24  H   UNL     1       3.479   6.590  20.797  0.00  0.00    +0.000 HD
BRANCH  23  25
ATOM     25  C   UNL     1       1.811   7.282  19.706  0.00  0.00    +0.000 C 
ATOM     26  C   UNL     1       1.485   8.115  20.953  0.00  0.00    +0.000 C 
ATOM     27  C   UNL     1       0.092   8.741  21.011  0.00  0.00    +0.000 C 
ATOM     28  C   UNL     1      -0.218   9.872  20.033  0.00  0.00    +0.000 C 
ATOM     29  C   UNL     1       0.958  10.791  19.706  0.00  0.00    +0.000 C 
ATOM     30  C   UNL     1       1.522  10.567  18.306  0.00  0.00    +0.000 C 
ATOM     31  C   UNL     1       2.309   9.279  18.039  0.00  0.00    +0.000 C 
ATOM     32  C   UNL     1       1.621   7.944  18.325  0.00  0.00    +0.000 C 
ENDBRANCH  23  25
ENDBRANCH   7  23
TORSDOF 8
ENDMDL
MODEL 5
REMARK VINA RESULT:      -7.7      0.926      1.777
REMARK  Name = 
REMARK  8 active torsions:
REMARK  status: ('A' for Active; 'I' for Inactive)
REMARK    1  A    between atoms: N_1  and  S_2
REMARK    2  A    between atoms: S_2  and  C_5
REMARK    3  A    between atoms: C_10  and  S_11
REMARK    4  A    between atoms: S_11  and  C_14
REMARK    5  A    between atoms: C_14  and  C_15
REMARK    6  A    between atoms: C_15  and  O_16
REMARK    7  A    between atoms: C_17  and  N_18
REMARK    8  A    between atoms: N_18  and  C_19
REMARK                            x       y       z     vdW  Elec       q    Type
REMARK                         _______ _______ _______ _____ _____    ______ ____
ROOT
ATOM      1  C   UNL     1       5.406   4.968  17.233  0.00  0.00    +0.000 A 
ATOM      2  C   UNL     1       4.795   3.783  16.902  0.00  0.00    +0.000 A 
ATOM      3  F   UNL     1       5.297   2.960  15.974  0.00  0.00    +0.000 F 
ATOM      4  C   UNL     1       3.642   3.414  17.578  0.00  0.00    +0.000 A 
ATOM      5  F   UNL     1       3.081   2.238  17.265  0.00  0.00    +0.000 F 
ATOM      6  C   UNL     1       3.072   4.238  18.563  0.00  0.00    +0.000 A 
ATOM      7  C   UNL     1       3.652   5.484  18.887  0.00  0.00    +0.000 A 
ATOM      8  C   UNL     1       4.875   5.772  18.238  0.00  0.00    +0.000 A 
ATOM      9  F   UNL     1       5.584   6.855  18.590  0.00  0.00    +0.000 F 
ENDROOT
BRANCH   1  10
ATOM     10  S   UNL     1       6.831   5.537  16.413  0.00  0.00    +0.000 S 
ATOM     11  O   UNL     1       7.894   4.568  16.527  0.00  0.00    +0.000 OA
ATOM     12  O   UNL     1       7.023   6.931  16.727  0.00  0.00    +0.000 OA
BRANCH  10  13
ATOM     13  N   UNL     1       6.370   5.460  14.795  0.00  0.00    +0.000 NA
ATOM     14  H   UNL     1       7.197   5.386  14.200  0.00  0.00    +0.000 HD
ATOM     15  H   UNL     1       5.754   6.241  14.561  0.00  0.00    +0.000 HD
ENDBRANCH  10  13
ENDBRANCH   1  10
BRANCH   6  16
ATOM     16  S   UNL     1       1.558   3.628  19.269  0.00  0.00    +0.000 S 
ATOM     17  O   UNL     1       1.101   4.609  20.244  0.00  0.00    +0.000 OA
ATOM     18  O   UNL     1       0.702   3.270  18.156  0.00  0.00    +0.000 OA
BRANCH  16  19
ATOM     19  C   UNL     1       2.008   2.143  20.147  0.00  0.00    +0.000 C 
BRANCH  19  20
ATOM     20  C   UNL     1       2.919   2.457  21.317  0.00  0.00    +0.000 C 
BRANCH  20  21
ATOM     21  O   UNL     1       2.191   3.178  22.312  0.00  0.00    +0.000 OA
ATOM     22  H   UNL     1       1.435   2.631  22.590  0.00  0.00    +0.000 HD
ENDBRANCH  20  21
ENDBRANCH  19  20
ENDBRANCH  16  19
ENDBRANCH   6  16
BRANCH   7  23
ATOM     23  N   UNL     1       3.114   6.355  19.855  0.00  0.00    +0.000 N 
ATOM     24  H   UNL     1       3.217   6.012  20.820  0.00  0.00    +0.000 HD
BRANCH  23  25
ATOM     25  C   UNL     1       1.827   7.076  19.642  0.00  0.00    +0.000 C 
ATOM     26  C   UNL     1       1.593   8.071  20.786  0.00  0.00    +0.000 C 
ATOM     27  C   UNL     1       0.294   8.877  20.735  0.00  0.00    +0.000 C 
ATOM     28  C   UNL     1       0.155   9.928  19.638  0.00  0.00    +0.000 C 
ATOM     29  C   UNL     1       1.448  10.646  19.256  0.00  0.00    +0.000 C 
ATOM     30  C   UNL     1       2.003  10.204  17.905  0.00  0.00    +0.000 C 
ATOM     31  C   UNL     1       2.616   8.803  17.796  0.00  0.00    +0.000 C 
ATOM     32  C   UNL     1       1.752   7.608  18.195  0.00  0.00    +0.000 C 
ENDBRANCH  23  25
ENDBRANCH   7  23
TORSDOF 8
ENDMDL
MODEL 6
REMARK VINA RESULT:      -7.4      1.744      4.733
REMARK  Name = 
REMARK  8 active torsions:
REMARK  status: ('A' for Active; 'I' for Inactive)
REMARK    1  A    between atoms: N_1  and  S_2
REMARK    2  A    between atoms: S_2  and  C_5
REMARK    3  A    between atoms: C_10  and  S_11
REMARK    4  A    between atoms: S_11  and  C_14
REMARK    5  A    between atoms: C_14  and  C_15
REMARK    6  A    between atoms: C_15  and  O_16
REMARK    7  A    between atoms: C_17  and  N_18
REMARK    8  A    between atoms: N_18  and  C_19
REMARK                            x       y       z     vdW  Elec       q    Type
REMARK                         _______ _______ _______ _____ _____    ______ ____
ROOT
ATOM      1  C   UNL     1       2.591   3.597  18.542  0.00  0.00    +0.000 A 
ATOM      2  C   UNL     1       3.623   3.190  17.731  0.00  0.00    +0.000 A 
ATOM      3  F   UNL     1       3.804   1.905  17.402  0.00  0.00    +0.000 F 
ATOM      4  C   UNL     1       4.482   4.146  17.211  0.00  0.00    +0.000 A 
ATOM      5  F   UNL     1       5.461   3.733  16.395  0.00  0.00    +0.000 F 
ATOM      6  C   UNL     1       4.338   5.509  17.522  0.00  0.00    +0.000 A 
ATOM      7  C   UNL     1       3.316   5.949  18.392  0.00  0.00    +0.000 A 
ATOM      8  C   UNL     1       2.412   4.949  18.821  0.00  0.00    +0.000 A 
ATOM      9  F   UNL     1       1.319   5.287  19.521  0.00  0.00    +0.000 F 
ENDROOT
BRANCH   1  10
ATOM     10  S   UNL     1       1.488   2.468  19.276  0.00  0.00    +0.000 S 
ATOM     11  O   UNL     1       0.331   2.282  18.435  0.00  0.00    +0.000 OA
ATOM     12  O   UNL     1       1.378   2.772  20.680  0.00  0.00    +0.000 OA
BRANCH  10  13
ATOM     13  N   UNL     1       2.328   1.013  19.155  0.00  0.00    +0.000 NA
ATOM     14  H   UNL     1       2.050   0.386  19.912  0.00  0.00    +0.000 HD
ATOM     15  H   UNL     1       3.334   1.184  19.100  0.00  0.00    +0.000 HD
ENDBRANCH  10  13
ENDBRANCH   1  10
BRANCH   6  16
ATOM     16  S   UNL     1       5.574   6.574  16.816  0.00  0.00    +0.000 S 
ATOM     17  O   UNL     1       5.352   6.613  15.377  0.00  0.00    +0.000 OA
ATOM     18  O   UNL     1       5.540   7.805  17.580  0.00  0.00    +0.000 OA
BRANCH  16  19
ATOM     19  C   UNL     1       7.130   5.757  17.113  0.00  0.00    +0.000 C 
BRANCH  19  20
ATOM     20  C   UNL     1       7.532   5.862  18.571  0.00  0.00    +0.000 C 
BRANCH  20  21
ATOM     21  O   UNL     1       8.268   7.067  18.781  0.00  0.00    +0.000 OA
ATOM     22  H   UNL     1       7.723   7.665  19.322  0.00  0.00    +0.000 HD
ENDBRANCH  20  21
ENDBRANCH  19  20
ENDBRANCH  16  19
ENDBRANCH   6  16
BRANCH   7  23
ATOM     23  N   UNL     1       3.136   7.299  18.747  0.00  0.00    +0.000 N 
ATOM     24  H   UNL     1       3.849   7.651  19.402  0.00  0.00    +0.000 HD
BRANCH  23  25
ATOM     25  C   UNL     1       1.788   7.875  19.011  0.00  0.00    +0.000 C 
ATOM     26  C   UNL     1       1.681   8.298  20.483  0.00  0.00    +0.000 C 
ATOM     27  C   UNL     1       0.342   8.885  20.930  0.00  0.00    +0.000 C 
ATOM     28  C   UNL     1      -0.046  10.258  20.387  0.00  0.00    +0.000 C 
ATOM     29  C   UNL     1       1.116  11.227  20.175  0.00  0.00    +0.000 C 
ATOM     30  C   UNL     1       1.466  11.430  18.704  0.00  0.00    +0.000 C 
ATOM     31  C   UNL     1       2.144  10.277  17.955  0.00  0.00    +0.000 C 
ATOM     32  C   UNL     1       1.439   8.921  17.933  0.00  0.00    +0.000 C 
ENDBRANCH  23  25
ENDBRANCH   7  23
TORSDOF 8
ENDMDL
MODEL 7
REMARK VINA RESULT:      -7.4      1.141      1.174
REMARK  Name = 
REMARK  8 active torsions:
REMARK  status: ('A' for Active; 'I' for Inactive)
REMARK    1  A    between atoms: N_1  and  S_2
REMARK    2  A    between atoms: S_2  and  C_5
REMARK    3  A    between atoms: C_10  and  S_11
REMARK    4  A    between atoms: S_11  and  C_14
REMARK    5  A    between atoms: C_14  and  C_15
REMARK    6  A    between atoms: C_15  and  O_16
REMARK    7  A    between atoms: C_17  and  N_18
REMARK    8  A    between atoms: N_18  and  C_19
REMARK                            x       y       z     vdW  Elec       q    Type
REMARK                         _______ _______ _______ _____ _____    ______ ____
ROOT
ATOM      1  C   UNL     1       5.524   5.794  17.732  0.00  0.00    +0.000 A 
ATOM      2  C   UNL     1       5.464   4.444  17.983  0.00  0.00    +0.000 A 
ATOM      3  F   UNL     1       6.532   3.648  17.846  0.00  0.00    +0.000 F 
ATOM      4  C   UNL     1       4.269   3.899  18.424  0.00  0.00    +0.000 A 
ATOM      5  F   UNL     1       4.241   2.587  18.696  0.00  0.00    +0.000 F 
ATOM      6  C   UNL     1       3.117   4.687  18.588  0.00  0.00    +0.000 A 
ATOM      7  C   UNL     1       3.138   6.068  18.290  0.00  0.00    +0.000 A 
ATOM      8  C   UNL     1       4.402   6.593  17.932  0.00  0.00    +0.000 A 
ATOM      9  F   UNL     1       4.561   7.916  17.781  0.00  0.00    +0.000 F 
ENDROOT
BRANCH   1  10
ATOM     10  S   UNL     1       6.966   6.563  17.133  0.00  0.00    +0.000 S 
ATOM     11  O   UNL     1       6.758   7.985  17.008  0.00  0.00    +0.000 OA
ATOM     12  O   UNL     1       7.506   5.767  16.060  0.00  0.00    +0.000 OA
BRANCH  10  13
ATOM     13  N   UNL     1       8.022   6.410  18.436  0.00  0.00    +0.000 NA
ATOM     14  H   UNL     1       7.539   6.641  19.306  0.00  0.00    +0.000 HD
ATOM     15  H   UNL     1       8.873   6.952  18.272  0.00  0.00    +0.000 HD
ENDBRANCH  10  13
ENDBRANCH   1  10
BRANCH   6  16
ATOM     16  S   UNL     1       1.664   3.798  19.096  0.00  0.00    +0.000 S 
ATOM     17  O   UNL     1       0.877   4.687  19.941  0.00  0.00    +0.000 OA
ATOM     18  O   UNL     1       1.077   3.248  17.892  0.00  0.00    +0.000 OA
BRANCH  16  19
ATOM     19  C   UNL     1       2.259   2.457  20.109  0.00  0.00    +0.000 C 
BRANCH  19  20
ATOM     20  C   UNL     1       1.626   2.491  21.486  0.00  0.00    +0.000 C 
BRANCH  20  21
ATOM     21  O   UNL     1       2.387   3.342  22.343  0.00  0.00    +0.000 OA
ATOM     22  H   UNL     1       2.063   4.254  22.231  0.00  0.00    +0.000 HD
ENDBRANCH  20  21
ENDBRANCH  19  20
ENDBRANCH  16  19
ENDBRANCH   6  16
BRANCH   7  23
ATOM     23  N   UNL     1       2.010   6.900  18.421  0.00  0.00    +0.000 N 
ATOM     24  H   UNL     1       1.356   6.837  17.628  0.00  0.00    +0.000 HD
BRANCH  23  25
ATOM     25  C   UNL     1       2.106   8.282  18.971  0.00  0.00    +0.000 C 
ATOM     26  C   UNL     1       1.248   9.237  18.130  0.00  0.00    +0.000 C 
ATOM     27  C   UNL     1       1.259  10.709  18.545  0.00  0.00    +0.000 C 
ATOM     28  C   UNL     1       0.585  11.079  19.863  0.00  0.00    +0.000 C 
ATOM     29  C   UNL     1      -0.651  10.253  20.217  0.00  0.00    +0.000 C 
ATOM     30  C   UNL     1      -0.401   9.251  21.340  0.00  0.00    +0.000 C 
ATOM     31  C   UNL     1       0.469   8.026  21.037  0.00  0.00    +0.000 C 
ATOM     32  C   UNL     1       1.879   8.261  20.497  0.00  0.00    +0.000 C 
ENDBRANCH  23  25
ENDBRANCH   7  23
TORSDOF 8
ENDMDL
MODEL 8
REMARK VINA RESULT:      -7.3      1.032      1.814
REMARK  Name = 
REMARK  8 active torsions:
REMARK  status: ('A' for Active; 'I' for Inactive)
REMARK    1  A    between atoms: N_1  and  S_2
REMARK    2  A    between atoms: S_2  and  C_5
REMARK    3  A    between atoms: C_10  and  S_11
REMARK    4  A    between atoms: S_11  and  C_14
REMARK    5  A    between atoms: C_14  and  C_15
REMARK    6  A    between atoms: C_15  and  O_16
REMARK    7  A    between atoms: C_17  and  N_18
REMARK    8  A    between atoms: N_18  and  C_19
REMARK                            x       y       z     vdW  Elec       q    Type
REMARK                         _______ _______ _______ _____ _____    ______ ____
ROOT
ATOM      1  C   UNL     1       4.738   5.221  16.789  0.00  0.00    +0.000 A 
ATOM      2  C   UNL     1       4.391   3.916  17.044  0.00  0.00    +0.000 A 
ATOM      3  F   UNL     1       4.781   2.909  16.253  0.00  0.00    +0.000 F 
ATOM      4  C   UNL     1       3.641   3.633  18.176  0.00  0.00    +0.000 A 
ATOM      5  F   UNL     1       3.342   2.351  18.425  0.00  0.00    +0.000 F 
ATOM      6  C   UNL     1       3.206   4.650  19.042  0.00  0.00    +0.000 A 
ATOM      7  C   UNL     1       3.508   6.004  18.777  0.00  0.00    +0.000 A 
ATOM      8  C   UNL     1       4.350   6.232  17.664  0.00  0.00    +0.000 A 
ATOM      9  F   UNL     1       4.822   7.463  17.419  0.00  0.00    +0.000 F 
ENDROOT
BRANCH   1  10
ATOM     10  S   UNL     1       5.639   5.681  15.373  0.00  0.00    +0.000 S 
ATOM     11  O   UNL     1       5.229   6.989  14.923  0.00  0.00    +0.000 OA
ATOM     12  O   UNL     1       5.715   4.550  14.483  0.00  0.00    +0.000 OA
BRANCH  10  13
ATOM     13  N   UNL     1       7.187   5.920  15.993  0.00  0.00    +0.000 NA
ATOM     14  H   UNL     1       7.591   5.026  16.278  0.00  0.00    +0.000 HD
ATOM     15  H   UNL     1       7.172   6.628  16.730  0.00  0.00    +0.000 HD
ENDBRANCH  10  13
ENDBRANCH   1  10
BRANCH   6  16
ATOM     16  S   UNL     1       2.200   4.099  20.401  0.00  0.00    +0.000 S 
ATOM     17  O   UNL     1       2.252   5.127  21.432  0.00  0.00    +0.000 OA
ATOM     18  O   UNL     1       0.923   3.714  19.836  0.00  0.00    +0.000 OA
BRANCH  16  19
ATOM     19  C   UNL     1       3.011   2.642  21.032  0.00  0.00    +0.000 C 
BRANCH  19  20
ATOM     20  C   UNL     1       2.046   1.779  21.819  0.00  0.00    +0.000 C 
BRANCH  20  21
ATOM     21  O   UNL     1       1.104   2.608  22.498  0.00  0.00    +0.000 OA
ATOM     22  H   UNL     1       0.578   2.046  23.094  0.00  0.00    +0.000 HD
ENDBRANCH  20  21
ENDBRANCH  19  20
ENDBRANCH  16  19
ENDBRANCH   6  16
BRANCH   7  23
ATOM     23  N   UNL     1       3.084   7.062  19.604  0.00  0.00    +0.000 N 
ATOM     24  H   UNL     1       3.387   6.967  20.583  0.00  0.00    +0.000 HD
BRANCH  23  25
ATOM     25  C   UNL     1       1.726   7.664  19.484  0.00  0.00    +0.000 C 
ATOM     26  C   UNL     1       1.365   8.397  20.783  0.00  0.00    +0.000 C 
ATOM     27  C   UNL     1      -0.017   9.049  20.838  0.00  0.00    +0.000 C 
ATOM     28  C   UNL     1      -0.261  10.265  19.949  0.00  0.00    +0.000 C 
ATOM     29  C   UNL     1       0.945  11.180  19.749  0.00  0.00    +0.000 C 
ATOM     30  C   UNL     1       1.564  11.062  18.359  0.00  0.00    +0.000 C 
ATOM     31  C   UNL     1       2.335   9.782  18.015  0.00  0.00    +0.000 C 
ATOM     32  C   UNL     1       1.608   8.445  18.158  0.00  0.00    +0.000 C 
ENDBRANCH  23  25
ENDBRANCH   7  23
TORSDOF 8
ENDMDL
MODEL 9
REMARK VINA RESULT:      -7.3      0.866      1.668
REMARK  Name = 
REMARK  8 active torsions:
REMARK  status: ('A' for Active; 'I' for Inactive)
REMARK    1  A    between atoms: N_1  and  S_2
REMARK    2  A    between atoms: S_2  and  C_5
REMARK    3  A    between atoms: C_10  and  S_11
REMARK    4  A    between atoms: S_11  and  C_14
REMARK    5  A    between atoms: C_14  and  C_15
REMARK    6  A    between atoms: C_15  and  O_16
REMARK    7  A    between atoms: C_17  and  N_18
REMARK    8  A    between atoms: N_18  and  C_19
REMARK                            x       y       z     vdW  Elec       q    Type
REMARK                         _______ _______ _______ _____ _____    ______ ____
ROOT
ATOM      1  C   UNL     1       5.295   5.083  17.069  0.00  0.00    +0.000 A 
ATOM      2  C   UNL     1       4.735   3.856  16.807  0.00  0.00    +0.000 A 
ATOM      3  F   UNL     1       5.229   3.035  15.873  0.00  0.00    +0.000 F 
ATOM      4  C   UNL     1       3.645   3.444  17.559  0.00  0.00    +0.000 A 
ATOM      5  F   UNL     1       3.136   2.230  17.312  0.00  0.00    +0.000 F 
ATOM      6  C   UNL     1       3.087   4.265  18.554  0.00  0.00    +0.000 A 
ATOM      7  C   UNL     1       3.613   5.550  18.810  0.00  0.00    +0.000 A 
ATOM      8  C   UNL     1       4.777   5.886  18.082  0.00  0.00    +0.000 A 
ATOM      9  F   UNL     1       5.443   7.017  18.363  0.00  0.00    +0.000 F 
ENDROOT
BRANCH   1  10
ATOM     10  S   UNL     1       6.635   5.706  16.151  0.00  0.00    +0.000 S 
ATOM     11  O   UNL     1       7.147   6.907  16.766  0.00  0.00    +0.000 OA
ATOM     12  O   UNL     1       6.310   5.638  14.748  0.00  0.00    +0.000 OA
BRANCH  10  13
ATOM     13  N   UNL     1       7.831   4.553  16.432  0.00  0.00    +0.000 NA
ATOM     14  H   UNL     1       7.497   3.629  16.152  0.00  0.00    +0.000 HD
ATOM     15  H   UNL     1       8.159   4.606  17.398  0.00  0.00    +0.000 HD
ENDBRANCH  10  13
ENDBRANCH   1  10
BRANCH   6  16
ATOM     16  S   UNL     1       1.654   3.593  19.364  0.00  0.00    +0.000 S 
ATOM     17  O   UNL     1       1.216   4.562  20.360  0.00  0.00    +0.000 OA
ATOM     18  O   UNL     1       0.744   3.182  18.315  0.00  0.00    +0.000 OA
BRANCH  16  19
ATOM     19  C   UNL     1       2.231   2.141  20.224  0.00  0.00    +0.000 C 
BRANCH  19  20
ATOM     20  C   UNL     1       3.386   2.477  21.146  0.00  0.00    +0.000 C 
BRANCH  20  21
ATOM     21  O   UNL     1       4.607   1.998  20.582  0.00  0.00    +0.000 OA
ATOM     22  H   UNL     1       4.693   2.369  19.685  0.00  0.00    +0.000 HD
ENDBRANCH  20  21
ENDBRANCH  19  20
ENDBRANCH  16  19
ENDBRANCH   6  16
BRANCH   7  23
ATOM     23  N   UNL     1       3.082   6.418  19.784  0.00  0.00    +0.000 N 
ATOM     24  H   UNL     1       3.196   6.074  20.748  0.00  0.00    +0.000 HD
BRANCH  23  25
ATOM     25  C   UNL     1       1.792   7.137  19.585  0.00  0.00    +0.000 C 
ATOM     26  C   UNL     1       1.546   8.099  20.755  0.00  0.00    +0.000 C 
ATOM     27  C   UNL     1       0.243   8.898  20.720  0.00  0.00    +0.000 C 
ATOM     28  C   UNL     1       0.102   9.978  19.651  0.00  0.00    +0.000 C 
ATOM     29  C   UNL     1       1.392  10.714  19.294  0.00  0.00    +0.000 C 
ATOM     30  C   UNL     1       1.956  10.312  17.935  0.00  0.00    +0.000 C 
ATOM     31  C   UNL     1       2.578   8.919  17.791  0.00  0.00    +0.000 C 
ATOM     32  C   UNL     1       1.720   7.707  18.153  0.00  0.00    +0.000 C 
ENDBRANCH  23  25
ENDBRANCH   7  23
TORSDOF 8
ENDMDL
