MODEL 1
REMARK VINA RESULT:      -8.1      0.000      0.000
REMARK  Name = 
REMARK  12 active torsions:
REMARK  status: ('A' for Active; 'I' for Inactive)
REMARK    1  A    between atoms: C_1  and  C_2
REMARK    2  A    between atoms: C_2  and  C_3
REMARK    3  A    between atoms: C_3  and  C_4
REMARK    4  A    between atoms: C_7  and  C_8
REMARK    5  A    between atoms: N_13  and  C_14
REMARK    6  A    between atoms: C_14  and  C_15
REMARK    7  A    between atoms: C_18  and  C_19
REMARK    8  A    between atoms: C_19  and  C_20
REMARK    9  A    between atoms: C_20  and  C_21
REMARK   10  A    between atoms: C_21  and  O_23
REMARK   11  A    between atoms: O_23  and  C_24
REMARK   12  A    between atoms: C_24  and  C_25
REMARK                            x       y       z     vdW  Elec       q    Type
REMARK                         _______ _______ _______ _____ _____    ______ ____
ROOT
ATOM      1  C   UNL     1       3.174   5.450  19.956  0.00  0.00    +0.000 C 
ENDROOT
BRANCH   1  11
ATOM      2  C   UNL     1       2.986   4.217  17.752  0.00  0.00    +0.000 A 
ATOM      3  N   UNL     1       3.752   3.953  16.715  0.00  0.00    +0.000 NA
ATOM      4  C   UNL     1       5.011   4.378  17.042  0.00  0.00    +0.000 A 
ATOM      5  C   UNL     1       6.183   4.345  16.261  0.00  0.00    +0.000 A 
ATOM      6  C   UNL     1       6.221   3.780  14.872  0.00  0.00    +0.000 C 
ATOM      7  C   UNL     1       7.354   4.877  16.830  0.00  0.00    +0.000 A 
ATOM      8  C   UNL     1       7.358   5.410  18.119  0.00  0.00    +0.000 A 
ATOM      9  C   UNL     1       6.194   5.446  18.894  0.00  0.00    +0.000 A 
ATOM     10  C   UNL     1       5.027   4.915  18.325  0.00  0.00    +0.000 A 
ATOM     11  N   UNL     1       3.719   4.810  18.766  0.00  0.00    +0.000 N 
BRANCH   2  12
ATOM     12  C   UNL     1       1.513   3.971  17.794  0.00  0.00    +0.000 C 
BRANCH  12  14
ATOM     13  C   UNL     1       0.792   3.000  20.003  0.00  0.00    +0.000 C 
ATOM     14  C   UNL     1       1.174   2.694  18.564  0.00  0.00    +0.000 C 
ENDBRANCH  12  14
ENDBRANCH   2  12
ENDBRANCH   1  11
BRANCH   1  15
ATOM     15  C   UNL     1       2.529   6.796  19.714  0.00  0.00    +0.000 A 
ATOM     16  C   UNL     1       2.614   7.417  18.460  0.00  0.00    +0.000 A 
ATOM     17  C   UNL     1       1.911   8.595  18.192  0.00  0.00    +0.000 A 
ATOM     18  C   UNL     1       1.105   9.184  19.173  0.00  0.00    +0.000 A 
ATOM     19  C   UNL     1       1.055   8.599  20.441  0.00  0.00    +0.000 A 
ATOM     20  C   UNL     1       1.753   7.416  20.704  0.00  0.00    +0.000 A 
BRANCH  18  21
ATOM     21  C   UNL     1       0.276  10.407  18.862  0.00  0.00    +0.000 C 
BRANCH  21  22
ATOM     22  C   UNL     1      -0.675  10.160  17.693  0.00  0.00    +0.000 C 
BRANCH  22  23
ATOM     23  C   UNL     1      -2.056  10.674  17.993  0.00  0.00    +0.000 C 
ATOM     24  O   UNL     1      -2.352  11.423  18.914  0.00  0.00    +0.000 OA
BRANCH  23  25
ATOM     25  O   UNL     1      -2.938  10.098  17.128  0.00  0.00    +0.000 OA
BRANCH  25  26
ATOM     26  C   UNL     1      -3.375  10.940  16.053  0.00  0.00    +0.000 C 
ATOM     27  C   UNL     1      -3.182  10.173  14.757  0.00  0.00    +0.000 C 
ENDBRANCH  25  26
ENDBRANCH  23  25
ENDBRANCH  22  23
ENDBRANCH  21  22
ENDBRANCH  18  21
ENDBRANCH   1  15
TORSDOF 9
ENDMDL
MODEL 2
REMARK VINA RESULT:      -8.0      0.881      1.384
REMARK  Name = 
REMARK  12 active torsions:
REMARK  status: ('A' for Active; 'I' for Inactive)
REMARK    1  A    between atoms: C_1  and  C_2
REMARK    2  A    between atoms: C_2  and  C_3
REMARK    3  A    between atoms: C_3  and  C_4
REMARK    4  A    between atoms: C_7  and  C_8
REMARK    5  A    between atoms: N_13  and  C_14
REMARK    6  A    between atoms: C_14  and  C_15
REMARK    7  A    between atoms: C_18  and  C_19
REMARK    8  A    between atoms: C_19  and  C_20
REMARK    9  A    between atoms: C_20  and  C_21
REMARK   10  A    between atoms: C_21  and  O_23
REMARK   11  A    between atoms: O_23  and  C_24
REMARK   12  A    between atoms: C_24  and  C_25
REMARK                            x       y       z     vdW  Elec       q    Type
REMARK                         _______ _______ _______ _____ _____    ______ ____
ROOT
ATOM      1  C   UNL     1       3.174   5.624  19.878  0.00  0.00    +0.000 C 
ENDROOT
BRANCH   1  11
ATOM      2  C   UNL     1       2.965   4.295  17.731  0.00  0.00    +0.000 A 
ATOM      3  N   UNL     1       3.724   3.979  16.703  0.00  0.00    +0.000 NA
ATOM      4  C   UNL     1       4.987   4.407  17.006  0.00  0.00    +0.000 A 
ATOM      5  C   UNL     1       6.155   4.330  16.221  0.00  0.00    +0.000 A 
ATOM      6  C   UNL     1       6.182   3.703  14.858  0.00  0.00    +0.000 C 
ATOM      7  C   UNL     1       7.334   4.876  16.760  0.00  0.00    +0.000 A 
ATOM      8  C   UNL     1       7.349   5.467  18.025  0.00  0.00    +0.000 A 
ATOM      9  C   UNL     1       6.189   5.547  18.803  0.00  0.00    +0.000 A 
ATOM     10  C   UNL     1       5.014   5.001  18.263  0.00  0.00    +0.000 A 
ATOM     11  N   UNL     1       3.707   4.926  18.714  0.00  0.00    +0.000 N 
BRANCH   2  12
ATOM     12  C   UNL     1       1.490   4.064  17.791  0.00  0.00    +0.000 C 
BRANCH  12  14
ATOM     13  C   UNL     1       0.915   2.998  19.999  0.00  0.00    +0.000 C 
ATOM     14  C   UNL     1       1.150   2.762  18.517  0.00  0.00    +0.000 C 
ENDBRANCH  12  14
ENDBRANCH   2  12
ENDBRANCH   1  11
BRANCH   1  15
ATOM     15  C   UNL     1       2.559   6.973  19.581  0.00  0.00    +0.000 A 
ATOM     16  C   UNL     1       2.653   7.539  18.302  0.00  0.00    +0.000 A 
ATOM     17  C   UNL     1       1.976   8.721  17.988  0.00  0.00    +0.000 A 
ATOM     18  C   UNL     1       1.187   9.369  18.946  0.00  0.00    +0.000 A 
ATOM     19  C   UNL     1       1.130   8.839  20.238  0.00  0.00    +0.000 A 
ATOM     20  C   UNL     1       1.801   7.652  20.547  0.00  0.00    +0.000 A 
BRANCH  18  21
ATOM     21  C   UNL     1       0.385  10.597  18.587  0.00  0.00    +0.000 C 
BRANCH  21  22
ATOM     22  C   UNL     1      -1.084  10.441  18.972  0.00  0.00    +0.000 C 
BRANCH  22  23
ATOM     23  C   UNL     1      -1.974  10.468  17.759  0.00  0.00    +0.000 C 
ATOM     24  O   UNL     1      -1.897   9.708  16.804  0.00  0.00    +0.000 OA
BRANCH  23  25
ATOM     25  O   UNL     1      -2.819  11.533  17.857  0.00  0.00    +0.000 OA
BRANCH  25  26
ATOM     26  C   UNL     1      -2.992  12.054  19.181  0.00  0.00    +0.000 C 
ATOM     27  C   UNL     1      -4.480  12.257  19.409  0.00  0.00    +0.000 C 
ENDBRANCH  25  26
ENDBRANCH  23  25
ENDBRANCH  22  23
ENDBRANCH  21  22
ENDBRANCH  18  21
ENDBRANCH   1  15
TORSDOF 9
ENDMDL
MODEL 3
REMARK VINA RESULT:      -7.9      0.439      1.042
REMARK  Name = 
REMARK  12 active torsions:
REMARK  status: ('A' for Active; 'I' for Inactive)
REMARK    1  A    between atoms: C_1  and  C_2
REMARK    2  A    between atoms: C_2  and  C_3
REMARK    3  A    between atoms: C_3  and  C_4
REMARK    4  A    between atoms: C_7  and  C_8
REMARK    5  A    between atoms: N_13  and  C_14
REMARK    6  A    between atoms: C_14  and  C_15
REMARK    7  A    between atoms: C_18  and  C_19
REMARK    8  A    between atoms: C_19  and  C_20
REMARK    9  A    between atoms: C_20  and  C_21
REMARK   10  A    between atoms: C_21  and  O_23
REMARK   11  A    between atoms: O_23  and  C_24
REMARK   12  A    between atoms: C_24  and  C_25
REMARK                            x       y       z     vdW  Elec       q    Type
REMARK                         _______ _______ _______ _____ _____    ______ ____
ROOT
ATOM      1  C   UNL     1       3.339   5.465  19.913  0.00  0.00    +0.000 C 
ENDROOT
BRANCH   1  11
ATOM      2  C   UNL     1       3.014   4.263  17.707  0.00  0.00    +0.000 A 
ATOM      3  N   UNL     1       3.722   3.991  16.632  0.00  0.00    +0.000 NA
ATOM      4  C   UNL     1       5.006   4.377  16.904  0.00  0.00    +0.000 A 
ATOM      5  C   UNL     1       6.139   4.322  16.068  0.00  0.00    +0.000 A 
ATOM      6  C   UNL     1       6.096   3.773  14.672  0.00  0.00    +0.000 C 
ATOM      7  C   UNL     1       7.350   4.815  16.586  0.00  0.00    +0.000 A 
ATOM      8  C   UNL     1       7.429   5.332  17.880  0.00  0.00    +0.000 A 
ATOM      9  C   UNL     1       6.304   5.391  18.710  0.00  0.00    +0.000 A 
ATOM     10  C   UNL     1       5.097   4.899  18.191  0.00  0.00    +0.000 A 
ATOM     11  N   UNL     1       3.809   4.824  18.691  0.00  0.00    +0.000 N 
BRANCH   2  12
ATOM     12  C   UNL     1       1.538   4.058  17.816  0.00  0.00    +0.000 C 
BRANCH  12  14
ATOM     13  C   UNL     1       0.784   3.024  19.985  0.00  0.00    +0.000 C 
ATOM     14  C   UNL     1       1.199   2.759  18.547  0.00  0.00    +0.000 C 
ENDBRANCH  12  14
ENDBRANCH   2  12
ENDBRANCH   1  11
BRANCH   1  15
ATOM     15  C   UNL     1       2.514   6.713  19.697  0.00  0.00    +0.000 A 
ATOM     16  C   UNL     1       1.687   7.211  20.714  0.00  0.00    +0.000 A 
ATOM     17  C   UNL     1       1.025   8.434  20.567  0.00  0.00    +0.000 A 
ATOM     18  C   UNL     1       1.172   9.190  19.399  0.00  0.00    +0.000 A 
ATOM     19  C   UNL     1       1.954   8.676  18.361  0.00  0.00    +0.000 A 
ATOM     20  C   UNL     1       2.622   7.458  18.514  0.00  0.00    +0.000 A 
BRANCH  18  21
ATOM     21  C   UNL     1       0.529  10.550  19.271  0.00  0.00    +0.000 C 
BRANCH  21  22
ATOM     22  C   UNL     1      -0.445  10.604  18.096  0.00  0.00    +0.000 C 
BRANCH  22  23
ATOM     23  C   UNL     1      -1.844  10.907  18.558  0.00  0.00    +0.000 C 
ATOM     24  O   UNL     1      -2.144  11.686  19.452  0.00  0.00    +0.000 OA
BRANCH  23  25
ATOM     25  O   UNL     1      -2.715  10.106  17.882  0.00  0.00    +0.000 OA
BRANCH  25  26
ATOM     26  C   UNL     1      -2.384   9.872  16.506  0.00  0.00    +0.000 C 
ATOM     27  C   UNL     1      -3.177  10.856  15.665  0.00  0.00    +0.000 C 
ENDBRANCH  25  26
ENDBRANCH  23  25
ENDBRANCH  22  23
ENDBRANCH  21  22
ENDBRANCH  18  21
ENDBRANCH   1  15
TORSDOF 9
ENDMDL
MODEL 4
REMARK VINA RESULT:      -7.9      1.478      2.519
REMARK  Name = 
REMARK  12 active torsions:
REMARK  status: ('A' for Active; 'I' for Inactive)
REMARK    1  A    between atoms: C_1  and  C_2
REMARK    2  A    between atoms: C_2  and  C_3
REMARK    3  A    between atoms: C_3  and  C_4
REMARK    4  A    between atoms: C_7  and  C_8
REMARK    5  A    between atoms: N_13  and  C_14
REMARK    6  A    between atoms: C_14  and  C_15
REMARK    7  A    between atoms: C_18  and  C_19
REMARK    8  A    between atoms: C_19  and  C_20
REMARK    9  A    between atoms: C_20  and  C_21
REMARK   10  A    between atoms: C_21  and  O_23
REMARK   11  A    between atoms: O_23  and  C_24
REMARK   12  A    between atoms: C_24  and  C_25
REMARK                            x       y       z     vdW  Elec       q    Type
REMARK                         _______ _______ _______ _____ _____    ______ ____
ROOT
ATOM      1  C   UNL     1       3.325   5.652  19.749  0.00  0.00    +0.000 C 
ENDROOT
BRANCH   1  11
ATOM      2  C   UNL     1       3.052   4.259  17.651  0.00  0.00    +0.000 A 
ATOM      3  N   UNL     1       3.759   3.957  16.583  0.00  0.00    +0.000 NA
ATOM      4  C   UNL     1       5.014   4.457  16.794  0.00  0.00    +0.000 A 
ATOM      5  C   UNL     1       6.133   4.421  15.937  0.00  0.00    +0.000 A 
ATOM      6  C   UNL     1       6.106   3.762  14.589  0.00  0.00    +0.000 C 
ATOM      7  C   UNL     1       7.312   5.042  16.386  0.00  0.00    +0.000 A 
ATOM      8  C   UNL     1       7.376   5.664  17.633  0.00  0.00    +0.000 A 
ATOM      9  C   UNL     1       6.265   5.704  18.483  0.00  0.00    +0.000 A 
ATOM     10  C   UNL     1       5.090   5.084  18.033  0.00  0.00    +0.000 A 
ATOM     11  N   UNL     1       3.820   4.953  18.570  0.00  0.00    +0.000 N 
BRANCH   2  12
ATOM     12  C   UNL     1       1.598   3.953  17.812  0.00  0.00    +0.000 C 
BRANCH  12  14
ATOM     13  C   UNL     1       0.954   2.811  19.962  0.00  0.00    +0.000 C 
ATOM     14  C   UNL     1       1.376   2.614  18.515  0.00  0.00    +0.000 C 
ENDBRANCH  12  14
ENDBRANCH   2  12
ENDBRANCH   1  11
BRANCH   1  15
ATOM     15  C   UNL     1       2.559   6.922  19.459  0.00  0.00    +0.000 A 
ATOM     16  C   UNL     1       1.785   7.536  20.454  0.00  0.00    +0.000 A 
ATOM     17  C   UNL     1       1.182   8.777  20.231  0.00  0.00    +0.000 A 
ATOM     18  C   UNL     1       1.336   9.437  19.006  0.00  0.00    +0.000 A 
ATOM     19  C   UNL     1       2.063   8.807  17.992  0.00  0.00    +0.000 A 
ATOM     20  C   UNL     1       2.672   7.570  18.221  0.00  0.00    +0.000 A 
BRANCH  18  21
ATOM     21  C   UNL     1       0.759  10.815  18.791  0.00  0.00    +0.000 C 
BRANCH  21  22
ATOM     22  C   UNL     1      -0.767  10.802  18.854  0.00  0.00    +0.000 C 
BRANCH  22  23
ATOM     23  C   UNL     1      -1.286  11.865  19.783  0.00  0.00    +0.000 C 
ATOM     24  O   UNL     1      -2.206  12.633  19.541  0.00  0.00    +0.000 OA
BRANCH  23  25
ATOM     25  O   UNL     1      -0.505  11.893  20.900  0.00  0.00    +0.000 OA
BRANCH  25  26
ATOM     26  C   UNL     1      -1.211  11.753  22.140  0.00  0.00    +0.000 C 
ATOM     27  C   UNL     1      -0.720  10.484  22.813  0.00  0.00    +0.000 C 
ENDBRANCH  25  26
ENDBRANCH  23  25
ENDBRANCH  22  23
ENDBRANCH  21  22
ENDBRANCH  18  21
ENDBRANCH   1  15
TORSDOF 9
ENDMDL
MODEL 5
REMARK VINA RESULT:      -7.9      2.187      2.949
REMARK  Name = 
REMARK  12 active torsions:
REMARK  status: ('A' for Active; 'I' for Inactive)
REMARK    1  A    between atoms: C_1  and  C_2
REMARK    2  A    between atoms: C_2  and  C_3
REMARK    3  A    between atoms: C_3  and  C_4
REMARK    4  A    between atoms: C_7  and  C_8
REMARK    5  A    between atoms: N_13  and  C_14
REMARK    6  A    between atoms: C_14  and  C_15
REMARK    7  A    between atoms: C_18  and  C_19
REMARK    8  A    between atoms: C_19  and  C_20
REMARK    9  A    between atoms: C_20  and  C_21
REMARK   10  A    between atoms: C_21  and  O_23
REMARK   11  A    between atoms: O_23  and  C_24
REMARK   12  A    between atoms: C_24  and  C_25
REMARK                            x       y       z     vdW  Elec       q    Type
REMARK                         _______ _______ _______ _____ _____    ______ ____
ROOT
ATOM      1  C   UNL     1       3.085   5.602  20.064  0.00  0.00    +0.000 C 
ENDROOT
BRANCH   1  11
ATOM      2  C   UNL     1       2.906   4.293  17.902  0.00  0.00    +0.000 A 
ATOM      3  N   UNL     1       3.679   3.984  16.883  0.00  0.00    +0.000 NA
ATOM      4  C   UNL     1       4.939   4.406  17.210  0.00  0.00    +0.000 A 
ATOM      5  C   UNL     1       6.119   4.332  16.443  0.00  0.00    +0.000 A 
ATOM      6  C   UNL     1       6.166   3.718  15.075  0.00  0.00    +0.000 C 
ATOM      7  C   UNL     1       7.291   4.871  17.005  0.00  0.00    +0.000 A 
ATOM      8  C   UNL     1       7.287   5.449  18.275  0.00  0.00    +0.000 A 
ATOM      9  C   UNL     1       6.115   5.526  19.036  0.00  0.00    +0.000 A 
ATOM     10  C   UNL     1       4.948   4.988  18.473  0.00  0.00    +0.000 A 
ATOM     11  N   UNL     1       3.634   4.913  18.902  0.00  0.00    +0.000 N 
BRANCH   2  12
ATOM     12  C   UNL     1       1.430   4.066  17.936  0.00  0.00    +0.000 C 
BRANCH  12  14
ATOM     13  C   UNL     1       0.905   2.924  20.120  0.00  0.00    +0.000 C 
ATOM     14  C   UNL     1       1.076   2.745  18.620  0.00  0.00    +0.000 C 
ENDBRANCH  12  14
ENDBRANCH   2  12
ENDBRANCH   1  11
BRANCH   1  15
ATOM     15  C   UNL     1       2.361   6.892  19.752  0.00  0.00    +0.000 A 
ATOM     16  C   UNL     1       1.573   7.525  20.724  0.00  0.00    +0.000 A 
ATOM     17  C   UNL     1       1.009   8.781  20.484  0.00  0.00    +0.000 A 
ATOM     18  C   UNL     1       1.219   9.438  19.266  0.00  0.00    +0.000 A 
ATOM     19  C   UNL     1       1.960   8.791  18.274  0.00  0.00    +0.000 A 
ATOM     20  C   UNL     1       2.530   7.538  18.519  0.00  0.00    +0.000 A 
BRANCH  18  21
ATOM     21  C   UNL     1       0.685  10.832  19.036  0.00  0.00    +0.000 C 
BRANCH  21  22
ATOM     22  C   UNL     1      -0.196  11.295  20.194  0.00  0.00    +0.000 C 
BRANCH  22  23
ATOM     23  C   UNL     1       0.568  12.177  21.143  0.00  0.00    +0.000 C 
ATOM     24  O   UNL     1       1.698  12.607  20.961  0.00  0.00    +0.000 OA
BRANCH  23  25
ATOM     25  O   UNL     1      -0.169  12.344  22.278  0.00  0.00    +0.000 OA
BRANCH  25  26
ATOM     26  C   UNL     1      -1.079  11.277  22.576  0.00  0.00    +0.000 C 
ATOM     27  C   UNL     1      -2.333  11.891  23.172  0.00  0.00    +0.000 C 
ENDBRANCH  25  26
ENDBRANCH  23  25
ENDBRANCH  22  23
ENDBRANCH  21  22
ENDBRANCH  18  21
ENDBRANCH   1  15
TORSDOF 9
ENDMDL
MODEL 6
REMARK VINA RESULT:      -7.7      4.178      8.877
REMARK  Name = 
REMARK  12 active torsions:
REMARK  status: ('A' for Active; 'I' for Inactive)
REMARK    1  A    between atoms: C_1  and  C_2
REMARK    2  A    between atoms: C_2  and  C_3
REMARK    3  A    between atoms: C_3  and  C_4
REMARK    4  A    between atoms: C_7  and  C_8
REMARK    5  A    between atoms: N_13  and  C_14
REMARK    6  A    between atoms: C_14  and  C_15
REMARK    7  A    between atoms: C_18  and  C_19
REMARK    8  A    between atoms: C_19  and  C_20
REMARK    9  A    between atoms: C_20  and  C_21
REMARK   10  A    between atoms: C_21  and  O_23
REMARK   11  A    between atoms: O_23  and  C_24
REMARK   12  A    between atoms: C_24  and  C_25
REMARK                            x       y       z     vdW  Elec       q    Type
REMARK                         _______ _______ _______ _____ _____    ______ ____
ROOT
ATOM      1  C   UNL     1       0.759  10.983  19.080  0.00  0.00    +0.000 C 
ENDROOT
BRANCH   1  11
ATOM      2  C   UNL     1      -1.241  12.015  20.243  0.00  0.00    +0.000 A 
ATOM      3  N   UNL     1      -2.516  12.220  19.990  0.00  0.00    +0.000 NA
ATOM      4  C   UNL     1      -2.794  11.556  18.827  0.00  0.00    +0.000 A 
ATOM      5  C   UNL     1      -4.011  11.488  18.120  0.00  0.00    +0.000 A 
ATOM      6  C   UNL     1      -5.266  12.163  18.590  0.00  0.00    +0.000 C 
ATOM      7  C   UNL     1      -4.023  10.752  16.921  0.00  0.00    +0.000 A 
ATOM      8  C   UNL     1      -2.876  10.109  16.453  0.00  0.00    +0.000 A 
ATOM      9  C   UNL     1      -1.666  10.180  17.152  0.00  0.00    +0.000 A 
ATOM     10  C   UNL     1      -1.657  10.914  18.347  0.00  0.00    +0.000 A 
ATOM     11  N   UNL     1      -0.667  11.223  19.264  0.00  0.00    +0.000 N 
BRANCH   2  12
ATOM     12  C   UNL     1      -0.504  12.619  21.393  0.00  0.00    +0.000 C 
BRANCH  12  14
ATOM     13  C   UNL     1      -1.001  10.764  23.023  0.00  0.00    +0.000 C 
ATOM     14  C   UNL     1      -1.144  12.249  22.732  0.00  0.00    +0.000 C 
ENDBRANCH  12  14
ENDBRANCH   2  12
ENDBRANCH   1  11
BRANCH   1  15
ATOM     15  C   UNL     1       1.188   9.544  19.251  0.00  0.00    +0.000 A 
ATOM     16  C   UNL     1       1.810   8.851  18.203  0.00  0.00    +0.000 A 
ATOM     17  C   UNL     1       2.325   7.567  18.397  0.00  0.00    +0.000 A 
ATOM     18  C   UNL     1       2.232   6.940  19.645  0.00  0.00    +0.000 A 
ATOM     19  C   UNL     1       1.569   7.604  20.681  0.00  0.00    +0.000 A 
ATOM     20  C   UNL     1       1.062   8.892  20.486  0.00  0.00    +0.000 A 
BRANCH  18  21
ATOM     21  C   UNL     1       2.864   5.590  19.883  0.00  0.00    +0.000 C 
BRANCH  21  22
ATOM     22  C   UNL     1       2.151   4.823  20.995  0.00  0.00    +0.000 C 
BRANCH  22  23
ATOM     23  C   UNL     1       2.160   3.343  20.731  0.00  0.00    +0.000 C 
ATOM     24  O   UNL     1       1.490   2.511  21.327  0.00  0.00    +0.000 OA
BRANCH  23  25
ATOM     25  O   UNL     1       3.100   3.069  19.784  0.00  0.00    +0.000 OA
BRANCH  25  26
ATOM     26  C   UNL     1       2.761   2.014  18.875  0.00  0.00    +0.000 C 
ATOM     27  C   UNL     1       2.534   2.635  17.508  0.00  0.00    +0.000 C 
ENDBRANCH  25  26
ENDBRANCH  23  25
ENDBRANCH  22  23
ENDBRANCH  21  22
ENDBRANCH  18  21
ENDBRANCH   1  15
TORSDOF 9
ENDMDL
MODEL 7
REMARK VINA RESULT:      -7.7      1.824      2.608
REMARK  Name = 
REMARK  12 active torsions:
REMARK  status: ('A' for Active; 'I' for Inactive)
REMARK    1  A    between atoms: C_1  and  C_2
REMARK    2  A    between atoms: C_2  and  C_3
REMARK    3  A    between atoms: C_3  and  C_4
REMARK    4  A    between atoms: C_7  and  C_8
REMARK    5  A    between atoms: N_13  and  C_14
REMARK    6  A    between atoms: C_14  and  C_15
REMARK    7  A    between atoms: C_18  and  C_19
REMARK    8  A    between atoms: C_19  and  C_20
REMARK    9  A    between atoms: C_20  and  C_21
REMARK   10  A    between atoms: C_21  and  O_23
REMARK   11  A    between atoms: O_23  and  C_24
REMARK   12  A    between atoms: C_24  and  C_25
REMARK                            x       y       z     vdW  Elec       q    Type
REMARK                         _______ _______ _______ _____ _____    ______ ____
ROOT
ATOM      1  C   UNL     1       3.274   5.633  19.739  0.00  0.00    +0.000 C 
ENDROOT
BRANCH   1  11
ATOM      2  C   UNL     1       2.997   4.273  17.621  0.00  0.00    +0.000 A 
ATOM      3  N   UNL     1       3.699   3.994  16.543  0.00  0.00    +0.000 NA
ATOM      4  C   UNL     1       4.951   4.502  16.753  0.00  0.00    +0.000 A 
ATOM      5  C   UNL     1       6.064   4.489  15.887  0.00  0.00    +0.000 A 
ATOM      6  C   UNL     1       6.033   3.851  14.529  0.00  0.00    +0.000 C 
ATOM      7  C   UNL     1       7.241   5.112  16.338  0.00  0.00    +0.000 A 
ATOM      8  C   UNL     1       7.309   5.715  17.595  0.00  0.00    +0.000 A 
ATOM      9  C   UNL     1       6.204   5.731  18.453  0.00  0.00    +0.000 A 
ATOM     10  C   UNL     1       5.031   5.108  18.002  0.00  0.00    +0.000 A 
ATOM     11  N   UNL     1       3.766   4.958  18.545  0.00  0.00    +0.000 N 
BRANCH   2  12
ATOM     12  C   UNL     1       1.547   3.952  17.786  0.00  0.00    +0.000 C 
BRANCH  12  14
ATOM     13  C   UNL     1       0.834   3.018  20.014  0.00  0.00    +0.000 C 
ATOM     14  C   UNL     1       1.338   2.687  18.619  0.00  0.00    +0.000 C 
ENDBRANCH  12  14
ENDBRANCH   2  12
ENDBRANCH   1  11
BRANCH   1  15
ATOM     15  C   UNL     1       2.623   6.974  19.487  0.00  0.00    +0.000 A 
ATOM     16  C   UNL     1       2.722   7.596  18.235  0.00  0.00    +0.000 A 
ATOM     17  C   UNL     1       2.015   8.769  17.957  0.00  0.00    +0.000 A 
ATOM     18  C   UNL     1       1.190   9.352  18.926  0.00  0.00    +0.000 A 
ATOM     19  C   UNL     1       1.126   8.767  20.193  0.00  0.00    +0.000 A 
ATOM     20  C   UNL     1       1.828   7.589  20.466  0.00  0.00    +0.000 A 
BRANCH  18  21
ATOM     21  C   UNL     1       0.357  10.570  18.603  0.00  0.00    +0.000 C 
BRANCH  21  22
ATOM     22  C   UNL     1       1.116  11.863  18.893  0.00  0.00    +0.000 C 
BRANCH  22  23
ATOM     23  C   UNL     1       0.952  12.283  20.328  0.00  0.00    +0.000 C 
ATOM     24  O   UNL     1       1.848  12.682  21.058  0.00  0.00    +0.000 OA
BRANCH  23  25
ATOM     25  O   UNL     1      -0.338  12.062  20.707  0.00  0.00    +0.000 OA
BRANCH  25  26
ATOM     26  C   UNL     1      -0.507  11.604  22.055  0.00  0.00    +0.000 C 
ATOM     27  C   UNL     1      -1.918  11.955  22.491  0.00  0.00    +0.000 C 
ENDBRANCH  25  26
ENDBRANCH  23  25
ENDBRANCH  22  23
ENDBRANCH  21  22
ENDBRANCH  18  21
ENDBRANCH   1  15
TORSDOF 9
ENDMDL
MODEL 8
REMARK VINA RESULT:      -7.6      2.067      2.881
REMARK  Name = 
REMARK  12 active torsions:
REMARK  status: ('A' for Active; 'I' for Inactive)
REMARK    1  A    between atoms: C_1  and  C_2
REMARK    2  A    between atoms: C_2  and  C_3
REMARK    3  A    between atoms: C_3  and  C_4
REMARK    4  A    between atoms: C_7  and  C_8
REMARK    5  A    between atoms: N_13  and  C_14
REMARK    6  A    between atoms: C_14  and  C_15
REMARK    7  A    between atoms: C_18  and  C_19
REMARK    8  A    between atoms: C_19  and  C_20
REMARK    9  A    between atoms: C_20  and  C_21
REMARK   10  A    between atoms: C_21  and  O_23
REMARK   11  A    between atoms: O_23  and  C_24
REMARK   12  A    between atoms: C_24  and  C_25
REMARK                            x       y       z     vdW  Elec       q    Type
REMARK                         _______ _______ _______ _____ _____    ______ ____
ROOT
ATOM      1  C   UNL     1       3.199   5.493  19.948  0.00  0.00    +0.000 C 
ENDROOT
BRANCH   1  11
ATOM      2  C   UNL     1       2.993   4.258  17.746  0.00  0.00    +0.000 A 
ATOM      3  N   UNL     1       3.753   3.989  16.705  0.00  0.00    +0.000 NA
ATOM      4  C   UNL     1       5.015   4.405  17.027  0.00  0.00    +0.000 A 
ATOM      5  C   UNL     1       6.184   4.364  16.240  0.00  0.00    +0.000 A 
ATOM      6  C   UNL     1       6.213   3.798  14.851  0.00  0.00    +0.000 C 
ATOM      7  C   UNL     1       7.361   4.889  16.803  0.00  0.00    +0.000 A 
ATOM      8  C   UNL     1       7.375   5.423  18.093  0.00  0.00    +0.000 A 
ATOM      9  C   UNL     1       6.214   5.468  18.873  0.00  0.00    +0.000 A 
ATOM     10  C   UNL     1       5.041   4.944  18.309  0.00  0.00    +0.000 A 
ATOM     11  N   UNL     1       3.734   4.847  18.755  0.00  0.00    +0.000 N 
BRANCH   2  12
ATOM     12  C   UNL     1       1.519   4.022  17.794  0.00  0.00    +0.000 C 
BRANCH  12  14
ATOM     13  C   UNL     1       0.750   2.986  19.957  0.00  0.00    +0.000 C 
ATOM     14  C   UNL     1       1.177   2.722  18.523  0.00  0.00    +0.000 C 
ENDBRANCH  12  14
ENDBRANCH   2  12
ENDBRANCH   1  11
BRANCH   1  15
ATOM     15  C   UNL     1       2.579   6.850  19.710  0.00  0.00    +0.000 A 
ATOM     16  C   UNL     1       2.666   7.469  18.455  0.00  0.00    +0.000 A 
ATOM     17  C   UNL     1       1.984   8.661  18.193  0.00  0.00    +0.000 A 
ATOM     18  C   UNL     1       1.196   9.266  19.180  0.00  0.00    +0.000 A 
ATOM     19  C   UNL     1       1.145   8.682  20.448  0.00  0.00    +0.000 A 
ATOM     20  C   UNL     1       1.822   7.486  20.705  0.00  0.00    +0.000 A 
BRANCH  18  21
ATOM     21  C   UNL     1       0.389  10.505  18.874  0.00  0.00    +0.000 C 
BRANCH  21  22
ATOM     22  C   UNL     1       1.288  11.713  18.622  0.00  0.00    +0.000 C 
BRANCH  22  23
ATOM     23  C   UNL     1       1.691  12.375  19.911  0.00  0.00    +0.000 C 
ATOM     24  O   UNL     1       1.179  12.174  21.004  0.00  0.00    +0.000 OA
BRANCH  23  25
ATOM     25  O   UNL     1       2.658  13.299  19.649  0.00  0.00    +0.000 OA
BRANCH  25  26
ATOM     26  C   UNL     1       2.522  13.983  18.396  0.00  0.00    +0.000 C 
ATOM     27  C   UNL     1       3.795  14.777  18.161  0.00  0.00    +0.000 C 
ENDBRANCH  25  26
ENDBRANCH  23  25
ENDBRANCH  22  23
ENDBRANCH  21  22
ENDBRANCH  18  21
ENDBRANCH   1  15
TORSDOF 9
ENDMDL
MODEL 9
REMARK VINA RESULT:      -7.6      1.054      1.875
REMARK  Name = 
REMARK  12 active torsions:
REMARK  status: ('A' for Active; 'I' for Inactive)
REMARK    1  A    between atoms: C_1  and  C_2
REMARK    2  A    between atoms: C_2  and  C_3
REMARK    3  A    between atoms: C_3  and  C_4
REMARK    4  A    between atoms: C_7  and  C_8
REMARK    5  A    between atoms: N_13  and  C_14
REMARK    6  A    between atoms: C_14  and  C_15
REMARK    7  A    between atoms: C_18  and  C_19
REMARK    8  A    between atoms: C_19  and  C_20
REMARK    9  A    between atoms: C_20  and  C_21
REMARK   10  A    between atoms: C_21  and  O_23
REMARK   11  A    between atoms: O_23  and  C_24
REMARK   12  A    between atoms: C_24  and  C_25
REMARK                            x       y       z     vdW  Elec       q    Type
REMARK                         _______ _______ _______ _____ _____    ______ ____
ROOT
ATOM      1  C   UNL     1       3.271   5.661  19.754  0.00  0.00    +0.000 C 
ENDROOT
BRANCH   1  11
ATOM      2  C   UNL     1       3.027   4.279  17.645  0.00  0.00    +0.000 A 
ATOM      3  N   UNL     1       3.759   3.961  16.599  0.00  0.00    +0.000 NA
ATOM      4  C   UNL     1       5.019   4.430  16.848  0.00  0.00    +0.000 A 
ATOM      5  C   UNL     1       6.161   4.368  16.025  0.00  0.00    +0.000 A 
ATOM      6  C   UNL     1       6.159   3.712  14.676  0.00  0.00    +0.000 C 
ATOM      7  C   UNL     1       7.342   4.959  16.511  0.00  0.00    +0.000 A 
ATOM      8  C   UNL     1       7.383   5.577  17.762  0.00  0.00    +0.000 A 
ATOM      9  C   UNL     1       6.248   5.643  18.578  0.00  0.00    +0.000 A 
ATOM     10  C   UNL     1       5.072   5.053  18.091  0.00  0.00    +0.000 A 
ATOM     11  N   UNL     1       3.784   4.952  18.588  0.00  0.00    +0.000 N 
BRANCH   2  12
ATOM     12  C   UNL     1       1.562   4.009  17.761  0.00  0.00    +0.000 C 
BRANCH  12  14
ATOM     13  C   UNL     1       2.417   1.836  18.705  0.00  0.00    +0.000 C 
ATOM     14  C   UNL     1       1.275   2.838  18.701  0.00  0.00    +0.000 C 
ENDBRANCH  12  14
ENDBRANCH   2  12
ENDBRANCH   1  11
BRANCH   1  15
ATOM     15  C   UNL     1       2.505   6.926  19.442  0.00  0.00    +0.000 A 
ATOM     16  C   UNL     1       1.787   7.596  20.442  0.00  0.00    +0.000 A 
ATOM     17  C   UNL     1       1.187   8.833  20.190  0.00  0.00    +0.000 A 
ATOM     18  C   UNL     1       1.289   9.433  18.929  0.00  0.00    +0.000 A 
ATOM     19  C   UNL     1       1.960   8.748  17.913  0.00  0.00    +0.000 A 
ATOM     20  C   UNL     1       2.567   7.514  18.170  0.00  0.00    +0.000 A 
BRANCH  18  21
ATOM     21  C   UNL     1       0.717  10.807  18.677  0.00  0.00    +0.000 C 
BRANCH  21  22
ATOM     22  C   UNL     1      -0.680  10.953  19.275  0.00  0.00    +0.000 C 
BRANCH  22  23
ATOM     23  C   UNL     1      -1.746  10.714  18.242  0.00  0.00    +0.000 C 
ATOM     24  O   UNL     1      -1.586  10.135  17.176  0.00  0.00    +0.000 OA
BRANCH  23  25
ATOM     25  O   UNL     1      -2.896  11.324  18.646  0.00  0.00    +0.000 OA
BRANCH  25  26
ATOM     26  C   UNL     1      -2.735  12.304  19.680  0.00  0.00    +0.000 C 
ATOM     27  C   UNL     1      -4.119  12.708  20.155  0.00  0.00    +0.000 C 
ENDBRANCH  25  26
ENDBRANCH  23  25
ENDBRANCH  22  23
ENDBRANCH  21  22
ENDBRANCH  18  21
ENDBRANCH   1  15
TORSDOF 9
ENDMDL
