MODEL 1
REMARK VINA RESULT:      -6.8      0.000      0.000
REMARK  Name = 
REMARK  9 active torsions:
REMARK  status: ('A' for Active; 'I' for Inactive)
REMARK    1  A    between atoms: C_1  and  S_2
REMARK    2  A    between atoms: S_2  and  C_3
REMARK    3  A    between atoms: C_3  and  C_4
REMARK    4  A    between atoms: C_7  and  C_8
REMARK    5  A    between atoms: C_8  and  N_9
REMARK    6  A    between atoms: C_11  and  C_12
REMARK    7  A    between atoms: C_11  and  C_13
REMARK    8  A    between atoms: C_14  and  C_15
REMARK    9  A    between atoms: C_14  and  O_16
REMARK                            x       y       z     vdW  Elec       q    Type
REMARK                         _______ _______ _______ _____ _____    ______ ____
ROOT
ATOM      1  N   UNL     1       4.300   4.371  19.517  0.00  0.00    +0.000 NA
ATOM      2  C   UNL     1       3.121   4.999  20.112  0.00  0.00    +0.000 C 
ATOM      3  C   UNL     1       2.102   3.846  20.161  0.00  0.00    +0.000 C 
ATOM      4  C   UNL     1       0.681   4.401  20.340  0.00  0.00    +0.000 C 
ATOM      5  C   UNL     1       2.414   2.920  21.356  0.00  0.00    +0.000 C 
ATOM      6  C   UNL     1       2.349   3.163  18.784  0.00  0.00    +0.000 C 
ATOM      7  C   UNL     1       2.059   1.665  18.726  0.00  0.00    +0.000 C 
ATOM      8  C   UNL     1       3.832   3.471  18.452  0.00  0.00    +0.000 C 
ENDROOT
BRANCH   6   9
ATOM      9  O   UNL     1       1.511   3.763  17.780  0.00  0.00    +0.000 OA
ATOM     10  H   UNL     1       0.581   3.681  18.058  0.00  0.00    +0.000 HD
ENDBRANCH   6   9
BRANCH   1  11
ATOM     11  C   UNL     1       5.370   5.302  19.124  0.00  0.00    +0.000 C 
BRANCH  11  15
ATOM     12  C   UNL     1       6.975   4.716  16.000  0.00  0.00    +0.000 A 
ATOM     13  N   UNL     1       7.954   4.293  16.811  0.00  0.00    +0.000 NA
ATOM     14  O   UNL     1       7.397   4.434  18.084  0.00  0.00    +0.000 OA
ATOM     15  C   UNL     1       6.134   4.920  17.901  0.00  0.00    +0.000 A 
ATOM     16  N   UNL     1       5.811   5.064  16.636  0.00  0.00    +0.000 NA
BRANCH  12  17
ATOM     17  C   UNL     1       7.140   4.863  14.532  0.00  0.00    +0.000 C 
BRANCH  17  19
ATOM     18  C   UNL     1       6.753   3.575  12.125  0.00  0.00    +0.000 C 
ATOM     19  S   UNL     1       5.849   3.909  13.651  0.00  0.00    +0.000 S 
ENDBRANCH  17  19
ENDBRANCH  12  17
ENDBRANCH  11  15
ENDBRANCH   1  11
TORSDOF 5
ENDMDL
MODEL 2
REMARK VINA RESULT:      -6.6      1.664      2.046
REMARK  Name = 
REMARK  9 active torsions:
REMARK  status: ('A' for Active; 'I' for Inactive)
REMARK    1  A    between atoms: C_1  and  S_2
REMARK    2  A    between atoms: S_2  and  C_3
REMARK    3  A    between atoms: C_3  and  C_4
REMARK    4  A    between atoms: C_7  and  C_8
REMARK    5  A    between atoms: C_8  and  N_9
REMARK    6  A    between atoms: C_11  and  C_12
REMARK    7  A    between atoms: C_11  and  C_13
REMARK    8  A    between atoms: C_14  and  C_15
REMARK    9  A    between atoms: C_14  and  O_16
REMARK                            x       y       z     vdW  Elec       q    Type
REMARK                         _______ _______ _______ _____ _____    ______ ____
ROOT
ATOM      1  N   UNL     1       4.277   5.371  18.147  0.00  0.00    +0.000 NA
ATOM      2  C   UNL     1       2.935   4.937  17.761  0.00  0.00    +0.000 C 
ATOM      3  C   UNL     1       2.633   3.810  18.764  0.00  0.00    +0.000 C 
ATOM      4  C   UNL     1       1.473   2.942  18.254  0.00  0.00    +0.000 C 
ATOM      5  C   UNL     1       2.225   4.413  20.125  0.00  0.00    +0.000 C 
ATOM      6  C   UNL     1       4.004   3.072  18.814  0.00  0.00    +0.000 C 
ATOM      7  C   UNL     1       4.327   2.363  20.128  0.00  0.00    +0.000 C 
ATOM      8  C   UNL     1       5.051   4.166  18.483  0.00  0.00    +0.000 C 
ENDROOT
BRANCH   6   9
ATOM      9  O   UNL     1       4.052   2.055  17.798  0.00  0.00    +0.000 OA
ATOM     10  H   UNL     1       4.548   2.397  17.035  0.00  0.00    +0.000 HD
ENDBRANCH   6   9
BRANCH   1  11
ATOM     11  C   UNL     1       4.931   6.290  17.202  0.00  0.00    +0.000 C 
BRANCH  11  15
ATOM     12  C   UNL     1       6.582   4.787  14.428  0.00  0.00    +0.000 A 
ATOM     13  N   UNL     1       7.655   5.293  15.050  0.00  0.00    +0.000 NA
ATOM     14  O   UNL     1       7.114   5.870  16.201  0.00  0.00    +0.000 OA
ATOM     15  C   UNL     1       5.769   5.641  16.152  0.00  0.00    +0.000 A 
ATOM     16  N   UNL     1       5.399   4.937  15.106  0.00  0.00    +0.000 NA
BRANCH  12  17
ATOM     17  C   UNL     1       6.638   4.166  13.081  0.00  0.00    +0.000 C 
BRANCH  17  19
ATOM     18  C   UNL     1       5.579   2.174  11.496  0.00  0.00    +0.000 C 
ATOM     19  S   UNL     1       5.013   3.441  12.650  0.00  0.00    +0.000 S 
ENDBRANCH  17  19
ENDBRANCH  12  17
ENDBRANCH  11  15
ENDBRANCH   1  11
TORSDOF 5
ENDMDL
MODEL 3
REMARK VINA RESULT:      -6.6      1.519      1.840
REMARK  Name = 
REMARK  9 active torsions:
REMARK  status: ('A' for Active; 'I' for Inactive)
REMARK    1  A    between atoms: C_1  and  S_2
REMARK    2  A    between atoms: S_2  and  C_3
REMARK    3  A    between atoms: C_3  and  C_4
REMARK    4  A    between atoms: C_7  and  C_8
REMARK    5  A    between atoms: C_8  and  N_9
REMARK    6  A    between atoms: C_11  and  C_12
REMARK    7  A    between atoms: C_11  and  C_13
REMARK    8  A    between atoms: C_14  and  C_15
REMARK    9  A    between atoms: C_14  and  O_16
REMARK                            x       y       z     vdW  Elec       q    Type
REMARK                         _______ _______ _______ _____ _____    ______ ____
ROOT
ATOM      1  N   UNL     1       3.272   5.375  18.759  0.00  0.00    +0.000 NA
ATOM      2  C   UNL     1       2.145   4.636  18.191  0.00  0.00    +0.000 C 
ATOM      3  C   UNL     1       1.961   3.471  19.180  0.00  0.00    +0.000 C 
ATOM      4  C   UNL     1       1.128   2.354  18.535  0.00  0.00    +0.000 C 
ATOM      5  C   UNL     1       1.217   3.965  20.440  0.00  0.00    +0.000 C 
ATOM      6  C   UNL     1       3.441   3.078  19.466  0.00  0.00    +0.000 C 
ATOM      7  C   UNL     1       3.711   2.468  20.840  0.00  0.00    +0.000 C 
ATOM      8  C   UNL     1       4.243   4.387  19.254  0.00  0.00    +0.000 C 
ENDROOT
BRANCH   6   9
ATOM      9  O   UNL     1       3.882   2.098  18.509  0.00  0.00    +0.000 OA
ATOM     10  H   UNL     1       4.805   1.862  18.705  0.00  0.00    +0.000 HD
ENDBRANCH   6   9
BRANCH   1  11
ATOM     11  C   UNL     1       3.834   6.420  17.888  0.00  0.00    +0.000 C 
BRANCH  11  15
ATOM     12  C   UNL     1       6.534   5.418  15.793  0.00  0.00    +0.000 A 
ATOM     13  N   UNL     1       7.184   6.321  16.541  0.00  0.00    +0.000 NA
ATOM     14  O   UNL     1       6.209   6.745  17.448  0.00  0.00    +0.000 OA
ATOM     15  C   UNL     1       5.076   6.043  17.153  0.00  0.00    +0.000 A 
ATOM     16  N   UNL     1       5.238   5.181  16.175  0.00  0.00    +0.000 NA
BRANCH  12  17
ATOM     17  C   UNL     1       7.132   4.765  14.602  0.00  0.00    +0.000 C 
BRANCH  17  19
ATOM     18  C   UNL     1       6.769   3.615  12.123  0.00  0.00    +0.000 C 
ATOM     19  S   UNL     1       5.839   3.891  13.645  0.00  0.00    +0.000 S 
ENDBRANCH  17  19
ENDBRANCH  12  17
ENDBRANCH  11  15
ENDBRANCH   1  11
TORSDOF 5
ENDMDL
MODEL 4
REMARK VINA RESULT:      -6.6      2.041      2.865
REMARK  Name = 
REMARK  9 active torsions:
REMARK  status: ('A' for Active; 'I' for Inactive)
REMARK    1  A    between atoms: C_1  and  S_2
REMARK    2  A    between atoms: S_2  and  C_3
REMARK    3  A    between atoms: C_3  and  C_4
REMARK    4  A    between atoms: C_7  and  C_8
REMARK    5  A    between atoms: C_8  and  N_9
REMARK    6  A    between atoms: C_11  and  C_12
REMARK    7  A    between atoms: C_11  and  C_13
REMARK    8  A    between atoms: C_14  and  C_15
REMARK    9  A    between atoms: C_14  and  O_16
REMARK                            x       y       z     vdW  Elec       q    Type
REMARK                         _______ _______ _______ _____ _____    ______ ____
ROOT
ATOM      1  N   UNL     1       4.621   4.547  17.386  0.00  0.00    +0.000 NA
ATOM      2  C   UNL     1       3.902   3.757  18.385  0.00  0.00    +0.000 C 
ATOM      3  C   UNL     1       2.596   4.549  18.578  0.00  0.00    +0.000 C 
ATOM      4  C   UNL     1       1.912   4.132  19.888  0.00  0.00    +0.000 C 
ATOM      5  C   UNL     1       1.628   4.257  17.411  0.00  0.00    +0.000 C 
ATOM      6  C   UNL     1       3.125   6.014  18.575  0.00  0.00    +0.000 C 
ATOM      7  C   UNL     1       2.145   7.071  18.072  0.00  0.00    +0.000 C 
ATOM      8  C   UNL     1       4.410   5.966  17.709  0.00  0.00    +0.000 C 
ENDROOT
BRANCH   6   9
ATOM      9  O   UNL     1       3.477   6.411  19.912  0.00  0.00    +0.000 OA
ATOM     10  H   UNL     1       3.636   5.613  20.446  0.00  0.00    +0.000 HD
ENDBRANCH   6   9
BRANCH   1  11
ATOM     11  C   UNL     1       6.024   4.156  17.175  0.00  0.00    +0.000 C 
BRANCH  11  15
ATOM     12  C   UNL     1       6.879   4.456  13.731  0.00  0.00    +0.000 A 
ATOM     13  N   UNL     1       7.604   5.478  14.208  0.00  0.00    +0.000 NA
ATOM     14  O   UNL     1       7.377   5.415  15.585  0.00  0.00    +0.000 OA
ATOM     15  C   UNL     1       6.544   4.353  15.791  0.00  0.00    +0.000 A 
ATOM     16  N   UNL     1       6.248   3.703  14.688  0.00  0.00    +0.000 NA
BRANCH  12  17
ATOM     17  C   UNL     1       6.709   4.184  12.282  0.00  0.00    +0.000 C 
BRANCH  17  19
ATOM     18  C   UNL     1       4.234   3.308  11.438  0.00  0.00    +0.000 C 
ATOM     19  S   UNL     1       5.792   2.619  12.036  0.00  0.00    +0.000 S 
ENDBRANCH  17  19
ENDBRANCH  12  17
ENDBRANCH  11  15
ENDBRANCH   1  11
TORSDOF 5
ENDMDL
MODEL 5
REMARK VINA RESULT:      -6.6      1.756      2.427
REMARK  Name = 
REMARK  9 active torsions:
REMARK  status: ('A' for Active; 'I' for Inactive)
REMARK    1  A    between atoms: C_1  and  S_2
REMARK    2  A    between atoms: S_2  and  C_3
REMARK    3  A    between atoms: C_3  and  C_4
REMARK    4  A    between atoms: C_7  and  C_8
REMARK    5  A    between atoms: C_8  and  N_9
REMARK    6  A    between atoms: C_11  and  C_12
REMARK    7  A    between atoms: C_11  and  C_13
REMARK    8  A    between atoms: C_14  and  C_15
REMARK    9  A    between atoms: C_14  and  O_16
REMARK                            x       y       z     vdW  Elec       q    Type
REMARK                         _______ _______ _______ _____ _____    ______ ____
ROOT
ATOM      1  N   UNL     1       4.991   4.094  17.526  0.00  0.00    +0.000 NA
ATOM      2  C   UNL     1       4.842   3.458  18.833  0.00  0.00    +0.000 C 
ATOM      3  C   UNL     1       3.332   3.164  18.904  0.00  0.00    +0.000 C 
ATOM      4  C   UNL     1       2.911   2.902  20.358  0.00  0.00    +0.000 C 
ATOM      5  C   UNL     1       3.002   1.907  18.071  0.00  0.00    +0.000 C 
ATOM      6  C   UNL     1       2.739   4.468  18.295  0.00  0.00    +0.000 C 
ATOM      7  C   UNL     1       1.397   4.316  17.583  0.00  0.00    +0.000 C 
ATOM      8  C   UNL     1       3.840   4.989  17.336  0.00  0.00    +0.000 C 
ENDROOT
BRANCH   6   9
ATOM      9  O   UNL     1       2.523   5.441  19.332  0.00  0.00    +0.000 OA
ATOM     10  H   UNL     1       2.626   6.332  18.954  0.00  0.00    +0.000 HD
ENDBRANCH   6   9
BRANCH   1  11
ATOM     11  C   UNL     1       6.306   4.708  17.279  0.00  0.00    +0.000 C 
BRANCH  11  15
ATOM     12  C   UNL     1       6.960   4.607  13.780  0.00  0.00    +0.000 A 
ATOM     13  N   UNL     1       7.883   5.514  14.131  0.00  0.00    +0.000 NA
ATOM     14  O   UNL     1       7.744   5.589  15.518  0.00  0.00    +0.000 OA
ATOM     15  C   UNL     1       6.755   4.711  15.856  0.00  0.00    +0.000 A 
ATOM     16  N   UNL     1       6.275   4.048  14.828  0.00  0.00    +0.000 NA
BRANCH  12  17
ATOM     17  C   UNL     1       6.645   4.270  12.369  0.00  0.00    +0.000 C 
BRANCH  17  19
ATOM     18  C   UNL     1       4.250   3.265  11.442  0.00  0.00    +0.000 C 
ATOM     19  S   UNL     1       5.735   2.683  12.287  0.00  0.00    +0.000 S 
ENDBRANCH  17  19
ENDBRANCH  12  17
ENDBRANCH  11  15
ENDBRANCH   1  11
TORSDOF 5
ENDMDL
MODEL 6
REMARK VINA RESULT:      -6.4      1.603      1.832
REMARK  Name = 
REMARK  9 active torsions:
REMARK  status: ('A' for Active; 'I' for Inactive)
REMARK    1  A    between atoms: C_1  and  S_2
REMARK    2  A    between atoms: S_2  and  C_3
REMARK    3  A    between atoms: C_3  and  C_4
REMARK    4  A    between atoms: C_7  and  C_8
REMARK    5  A    between atoms: C_8  and  N_9
REMARK    6  A    between atoms: C_11  and  C_12
REMARK    7  A    between atoms: C_11  and  C_13
REMARK    8  A    between atoms: C_14  and  C_15
REMARK    9  A    between atoms: C_14  and  O_16
REMARK                            x       y       z     vdW  Elec       q    Type
REMARK                         _______ _______ _______ _____ _____    ______ ____
ROOT
ATOM      1  N   UNL     1       4.359   4.893  17.664  0.00  0.00    +0.000 NA
ATOM      2  C   UNL     1       3.567   5.420  18.775  0.00  0.00    +0.000 C 
ATOM      3  C   UNL     1       2.820   4.177  19.289  0.00  0.00    +0.000 C 
ATOM      4  C   UNL     1       1.623   4.598  20.154  0.00  0.00    +0.000 C 
ATOM      5  C   UNL     1       3.765   3.317  20.156  0.00  0.00    +0.000 C 
ATOM      6  C   UNL     1       2.425   3.484  17.952  0.00  0.00    +0.000 C 
ATOM      7  C   UNL     1       2.291   1.964  18.007  0.00  0.00    +0.000 C 
ATOM      8  C   UNL     1       3.519   3.924  16.944  0.00  0.00    +0.000 C 
ENDROOT
BRANCH   6   9
ATOM      9  O   UNL     1       1.150   3.974  17.502  0.00  0.00    +0.000 OA
ATOM     10  H   UNL     1       1.258   4.370  16.620  0.00  0.00    +0.000 HD
ENDBRANCH   6   9
BRANCH   1  11
ATOM     11  C   UNL     1       5.003   5.911  16.819  0.00  0.00    +0.000 C 
BRANCH  11  15
ATOM     12  C   UNL     1       6.768   4.618  14.010  0.00  0.00    +0.000 A 
ATOM     13  N   UNL     1       7.755   5.346  14.550  0.00  0.00    +0.000 NA
ATOM     14  O   UNL     1       7.173   5.864  15.709  0.00  0.00    +0.000 OA
ATOM     15  C   UNL     1       5.896   5.383  15.747  0.00  0.00    +0.000 A 
ATOM     16  N   UNL     1       5.614   4.575  14.750  0.00  0.00    +0.000 NA
BRANCH  12  17
ATOM     17  C   UNL     1       6.874   3.957  12.685  0.00  0.00    +0.000 C 
BRANCH  17  19
ATOM     18  C   UNL     1       5.795   1.776  11.389  0.00  0.00    +0.000 C 
ATOM     19  S   UNL     1       5.242   3.306  12.171  0.00  0.00    +0.000 S 
ENDBRANCH  17  19
ENDBRANCH  12  17
ENDBRANCH  11  15
ENDBRANCH   1  11
TORSDOF 5
ENDMDL
MODEL 7
REMARK VINA RESULT:      -6.4      3.258      4.127
REMARK  Name = 
REMARK  9 active torsions:
REMARK  status: ('A' for Active; 'I' for Inactive)
REMARK    1  A    between atoms: C_1  and  S_2
REMARK    2  A    between atoms: S_2  and  C_3
REMARK    3  A    between atoms: C_3  and  C_4
REMARK    4  A    between atoms: C_7  and  C_8
REMARK    5  A    between atoms: C_8  and  N_9
REMARK    6  A    between atoms: C_11  and  C_12
REMARK    7  A    between atoms: C_11  and  C_13
REMARK    8  A    between atoms: C_14  and  C_15
REMARK    9  A    between atoms: C_14  and  O_16
REMARK                            x       y       z     vdW  Elec       q    Type
REMARK                         _______ _______ _______ _____ _____    ______ ____
ROOT
ATOM      1  N   UNL     1       4.633   4.482  17.899  0.00  0.00    +0.000 NA
ATOM      2  C   UNL     1       3.779   3.350  17.541  0.00  0.00    +0.000 C 
ATOM      3  C   UNL     1       2.519   3.584  18.394  0.00  0.00    +0.000 C 
ATOM      4  C   UNL     1       1.698   2.289  18.493  0.00  0.00    +0.000 C 
ATOM      5  C   UNL     1       1.636   4.668  17.740  0.00  0.00    +0.000 C 
ATOM      6  C   UNL     1       3.146   4.044  19.743  0.00  0.00    +0.000 C 
ATOM      7  C   UNL     1       2.287   4.985  20.585  0.00  0.00    +0.000 C 
ATOM      8  C   UNL     1       4.493   4.700  19.346  0.00  0.00    +0.000 C 
ENDROOT
BRANCH   6   9
ATOM      9  O   UNL     1       3.409   2.902  20.577  0.00  0.00    +0.000 OA
ATOM     10  H   UNL     1       3.350   3.175  21.510  0.00  0.00    +0.000 HD
ENDBRANCH   6   9
BRANCH   1  11
ATOM     11  C   UNL     1       6.019   4.395  17.411  0.00  0.00    +0.000 C 
BRANCH  11  15
ATOM     12  C   UNL     1       7.672   7.523  17.814  0.00  0.00    +0.000 A 
ATOM     13  N   UNL     1       8.299   6.838  18.781  0.00  0.00    +0.000 NA
ATOM     14  O   UNL     1       7.752   5.558  18.672  0.00  0.00    +0.000 OA
ATOM     15  C   UNL     1       6.857   5.607  17.641  0.00  0.00    +0.000 A 
ATOM     16  N   UNL     1       6.807   6.780  17.051  0.00  0.00    +0.000 NA
BRANCH  12  17
ATOM     17  C   UNL     1       7.839   8.984  17.611  0.00  0.00    +0.000 C 
BRANCH  17  19
ATOM     18  C   UNL     1       9.181  11.321  18.196  0.00  0.00    +0.000 C 
ATOM     19  S   UNL     1       8.922   9.683  18.911  0.00  0.00    +0.000 S 
ENDBRANCH  17  19
ENDBRANCH  12  17
ENDBRANCH  11  15
ENDBRANCH   1  11
TORSDOF 5
ENDMDL
MODEL 8
REMARK VINA RESULT:      -6.3      1.582      2.384
REMARK  Name = 
REMARK  9 active torsions:
REMARK  status: ('A' for Active; 'I' for Inactive)
REMARK    1  A    between atoms: C_1  and  S_2
REMARK    2  A    between atoms: S_2  and  C_3
REMARK    3  A    between atoms: C_3  and  C_4
REMARK    4  A    between atoms: C_7  and  C_8
REMARK    5  A    between atoms: C_8  and  N_9
REMARK    6  A    between atoms: C_11  and  C_12
REMARK    7  A    between atoms: C_11  and  C_13
REMARK    8  A    between atoms: C_14  and  C_15
REMARK    9  A    between atoms: C_14  and  O_16
REMARK                            x       y       z     vdW  Elec       q    Type
REMARK                         _______ _______ _______ _____ _____    ______ ____
ROOT
ATOM      1  N   UNL     1       4.626   4.266  18.159  0.00  0.00    +0.000 NA
ATOM      2  C   UNL     1       3.792   3.085  17.943  0.00  0.00    +0.000 C 
ATOM      3  C   UNL     1       2.431   3.511  18.520  0.00  0.00    +0.000 C 
ATOM      4  C   UNL     1       1.556   2.277  18.786  0.00  0.00    +0.000 C 
ATOM      5  C   UNL     1       1.694   4.419  17.512  0.00  0.00    +0.000 C 
ATOM      6  C   UNL     1       2.870   4.268  19.809  0.00  0.00    +0.000 C 
ATOM      7  C   UNL     1       1.934   5.380  20.276  0.00  0.00    +0.000 C 
ATOM      8  C   UNL     1       4.285   4.812  19.481  0.00  0.00    +0.000 C 
ENDROOT
BRANCH   6   9
ATOM      9  O   UNL     1       2.966   3.348  20.910  0.00  0.00    +0.000 OA
ATOM     10  H   UNL     1       2.297   3.584  21.576  0.00  0.00    +0.000 HD
ENDBRANCH   6   9
BRANCH   1  11
ATOM     11  C   UNL     1       6.064   4.065  17.918  0.00  0.00    +0.000 C 
BRANCH  11  15
ATOM     12  C   UNL     1       6.775   4.730  14.493  0.00  0.00    +0.000 A 
ATOM     13  N   UNL     1       7.650   5.580  15.048  0.00  0.00    +0.000 NA
ATOM     14  O   UNL     1       7.486   5.357  16.417  0.00  0.00    +0.000 OA
ATOM     15  C   UNL     1       6.534   4.386  16.539  0.00  0.00    +0.000 A 
ATOM     16  N   UNL     1       6.101   3.934  15.384  0.00  0.00    +0.000 NA
BRANCH  12  17
ATOM     17  C   UNL     1       6.498   4.683  13.035  0.00  0.00    +0.000 C 
BRANCH  17  19
ATOM     18  C   UNL     1       4.585   3.292  11.617  0.00  0.00    +0.000 C 
ATOM     19  S   UNL     1       6.115   2.969  12.519  0.00  0.00    +0.000 S 
ENDBRANCH  17  19
ENDBRANCH  12  17
ENDBRANCH  11  15
ENDBRANCH   1  11
TORSDOF 5
ENDMDL
MODEL 9
REMARK VINA RESULT:      -6.3      4.241      6.196
REMARK  Name = 
REMARK  9 active torsions:
REMARK  status: ('A' for Active; 'I' for Inactive)
REMARK    1  A    between atoms: C_1  and  S_2
REMARK    2  A    between atoms: S_2  and  C_3
REMARK    3  A    between atoms: C_3  and  C_4
REMARK    4  A    between atoms: C_7  and  C_8
REMARK    5  A    between atoms: C_8  and  N_9
REMARK    6  A    between atoms: C_11  and  C_12
REMARK    7  A    between atoms: C_11  and  C_13
REMARK    8  A    between atoms: C_14  and  C_15
REMARK    9  A    between atoms: C_14  and  O_16
REMARK                            x       y       z     vdW  Elec       q    Type
REMARK                         _______ _______ _______ _____ _____    ______ ____
ROOT
ATOM      1  N   UNL     1       3.241   5.310  18.845  0.00  0.00    +0.000 NA
ATOM      2  C   UNL     1       2.053   4.537  18.484  0.00  0.00    +0.000 C 
ATOM      3  C   UNL     1       2.245   3.223  19.262  0.00  0.00    +0.000 C 
ATOM      4  C   UNL     1       1.342   2.125  18.679  0.00  0.00    +0.000 C 
ATOM      5  C   UNL     1       1.863   3.428  20.743  0.00  0.00    +0.000 C 
ATOM      6  C   UNL     1       3.768   2.968  19.058  0.00  0.00    +0.000 C 
ATOM      7  C   UNL     1       4.465   2.194  20.174  0.00  0.00    +0.000 C 
ATOM      8  C   UNL     1       4.380   4.381  18.873  0.00  0.00    +0.000 C 
ENDROOT
BRANCH   6   9
ATOM      9  O   UNL     1       3.982   2.204  17.858  0.00  0.00    +0.000 OA
ATOM     10  H   UNL     1       3.120   2.018  17.446  0.00  0.00    +0.000 HD
ENDBRANCH   6   9
BRANCH   1  11
ATOM     11  C   UNL     1       3.452   6.534  18.056  0.00  0.00    +0.000 C 
BRANCH  11  15
ATOM     12  C   UNL     1       1.376   9.184  19.217  0.00  0.00    +0.000 A 
ATOM     13  N   UNL     1       1.584   9.624  17.968  0.00  0.00    +0.000 NA
ATOM     14  O   UNL     1       2.359   8.612  17.398  0.00  0.00    +0.000 OA
ATOM     15  C   UNL     1       2.528   7.663  18.365  0.00  0.00    +0.000 A 
ATOM     16  N   UNL     1       1.902   7.946  19.486  0.00  0.00    +0.000 NA
BRANCH  12  17
ATOM     17  C   UNL     1       0.689   9.987  20.259  0.00  0.00    +0.000 C 
BRANCH  17  19
ATOM     18  C   UNL     1      -0.481   9.447  22.698  0.00  0.00    +0.000 C 
ATOM     19  S   UNL     1       1.150   9.386  21.926  0.00  0.00    +0.000 S 
ENDBRANCH  17  19
ENDBRANCH  12  17
ENDBRANCH  11  15
ENDBRANCH   1  11
TORSDOF 5
ENDMDL
