MODEL 1
REMARK VINA RESULT:      -7.2      0.000      0.000
REMARK  Name = 
REMARK  2 active torsions:
REMARK  status: ('A' for Active; 'I' for Inactive)
REMARK    1  A    between atoms: C_1  and  C_2
REMARK    2  A    between atoms: C_18  and  C_19
REMARK                            x       y       z     vdW  Elec       q    Type
REMARK                         _______ _______ _______ _____ _____    ______ ____
ROOT
ATOM      1  C   UNL     1       0.704  11.457  18.961  0.00  0.00    +0.000 C 
ATOM      2  C   UNL     1       0.812  10.184  19.716  0.00  0.00    +0.000 A 
ATOM      3  C   UNL     1       0.328   9.870  20.974  0.00  0.00    +0.000 A 
ATOM      4  O   UNL     1       0.652   8.587  21.323  0.00  0.00    +0.000 OA
ATOM      5  C   UNL     1       1.364   8.086  20.283  0.00  0.00    +0.000 A 
ATOM      6  C   UNL     1       1.480   9.015  19.282  0.00  0.00    +0.000 A 
ATOM      7  C   UNL     1       2.199   8.668  18.086  0.00  0.00    +0.000 C 
ATOM      8  O   UNL     1       2.142   9.320  17.053  0.00  0.00    +0.000 OA
ATOM      9  C   UNL     1       3.068   7.410  18.166  0.00  0.00    +0.000 C 
ATOM     10  O   UNL     1       4.075   7.337  17.475  0.00  0.00    +0.000 OA
ATOM     11  C   UNL     1       2.697   6.356  19.178  0.00  0.00    +0.000 A 
ATOM     12  C   UNL     1       1.888   6.732  20.281  0.00  0.00    +0.000 A 
ATOM     13  C   UNL     1       1.605   5.801  21.275  0.00  0.00    +0.000 A 
ATOM     14  C   UNL     1       2.143   4.513  21.191  0.00  0.00    +0.000 A 
ATOM     15  C   UNL     1       2.935   4.122  20.095  0.00  0.00    +0.000 A 
ATOM     16  C   UNL     1       3.169   5.032  19.048  0.00  0.00    +0.000 A 
ATOM     17  C   UNL     1       3.897   4.591  17.794  0.00  0.00    +0.000 C 
ATOM     18  C   UNL     1       3.912   3.073  17.581  0.00  0.00    +0.000 C 
ATOM     19  C   UNL     1       2.555   2.557  17.092  0.00  0.00    +0.000 C 
ATOM     20  C   UNL     1       4.374   2.393  18.867  0.00  0.00    +0.000 C 
ATOM     21  C   UNL     1       3.465   2.706  20.057  0.00  0.00    +0.000 C 
ENDROOT
TORSDOF 0
ENDMDL
MODEL 2
REMARK VINA RESULT:      -7.1      1.303      6.144
REMARK  Name = 
REMARK  2 active torsions:
REMARK  status: ('A' for Active; 'I' for Inactive)
REMARK    1  A    between atoms: C_1  and  C_2
REMARK    2  A    between atoms: C_18  and  C_19
REMARK                            x       y       z     vdW  Elec       q    Type
REMARK                         _______ _______ _______ _____ _____    ______ ____
ROOT
ATOM      1  C   UNL     1       4.408   4.312  18.092  0.00  0.00    +0.000 C 
ATOM      2  C   UNL     1       3.487   4.956  19.061  0.00  0.00    +0.000 A 
ATOM      3  C   UNL     1       2.906   4.425  20.200  0.00  0.00    +0.000 A 
ATOM      4  O   UNL     1       2.100   5.343  20.817  0.00  0.00    +0.000 OA
ATOM      5  C   UNL     1       2.155   6.462  20.054  0.00  0.00    +0.000 A 
ATOM      6  C   UNL     1       2.989   6.278  18.982  0.00  0.00    +0.000 A 
ATOM      7  C   UNL     1       3.185   7.359  18.054  0.00  0.00    +0.000 C 
ATOM      8  O   UNL     1       4.086   7.382  17.227  0.00  0.00    +0.000 OA
ATOM      9  C   UNL     1       2.183   8.513  18.147  0.00  0.00    +0.000 C 
ATOM     10  O   UNL     1       1.917   9.153  17.139  0.00  0.00    +0.000 OA
ATOM     11  C   UNL     1       1.486   8.741  19.463  0.00  0.00    +0.000 A 
ATOM     12  C   UNL     1       1.422   7.669  20.390  0.00  0.00    +0.000 A 
ATOM     13  C   UNL     1       0.709   7.825  21.575  0.00  0.00    +0.000 A 
ATOM     14  C   UNL     1       0.038   9.027  21.826  0.00  0.00    +0.000 A 
ATOM     15  C   UNL     1       0.105  10.104  20.921  0.00  0.00    +0.000 A 
ATOM     16  C   UNL     1       0.882   9.984  19.755  0.00  0.00    +0.000 A 
ATOM     17  C   UNL     1       1.084  11.174  18.840  0.00  0.00    +0.000 C 
ATOM     18  C   UNL     1       0.802  12.527  19.502  0.00  0.00    +0.000 C 
ATOM     19  C   UNL     1       1.933  12.940  20.450  0.00  0.00    +0.000 C 
ATOM     20  C   UNL     1      -0.557  12.470  20.195  0.00  0.00    +0.000 C 
ATOM     21  C   UNL     1      -0.626  11.382  21.268  0.00  0.00    +0.000 C 
ENDROOT
TORSDOF 0
ENDMDL
MODEL 3
REMARK VINA RESULT:      -7.1      2.422      7.139
REMARK  Name = 
REMARK  2 active torsions:
REMARK  status: ('A' for Active; 'I' for Inactive)
REMARK    1  A    between atoms: C_1  and  C_2
REMARK    2  A    between atoms: C_18  and  C_19
REMARK                            x       y       z     vdW  Elec       q    Type
REMARK                         _______ _______ _______ _____ _____    ______ ____
ROOT
ATOM      1  C   UNL     1       3.296   7.144  17.481  0.00  0.00    +0.000 C 
ATOM      2  C   UNL     1       2.585   7.368  18.764  0.00  0.00    +0.000 A 
ATOM      3  C   UNL     1       2.477   6.533  19.862  0.00  0.00    +0.000 A 
ATOM      4  O   UNL     1       1.718   7.105  20.846  0.00  0.00    +0.000 OA
ATOM      5  C   UNL     1       1.325   8.309  20.362  0.00  0.00    +0.000 A 
ATOM      6  C   UNL     1       1.833   8.516  19.106  0.00  0.00    +0.000 A 
ATOM      7  C   UNL     1       1.531   9.746  18.425  0.00  0.00    +0.000 C 
ATOM      8  O   UNL     1       2.131  10.129  17.430  0.00  0.00    +0.000 OA
ATOM      9  C   UNL     1       0.390  10.578  19.015  0.00  0.00    +0.000 C 
ATOM     10  O   UNL     1      -0.279  11.283  18.271  0.00  0.00    +0.000 OA
ATOM     11  C   UNL     1       0.072  10.409  20.478  0.00  0.00    +0.000 A 
ATOM     12  C   UNL     1       0.495   9.221  21.129  0.00  0.00    +0.000 A 
ATOM     13  C   UNL     1       0.139   8.999  22.455  0.00  0.00    +0.000 A 
ATOM     14  C   UNL     1      -0.657   9.935  23.125  0.00  0.00    +0.000 A 
ATOM     15  C   UNL     1      -1.071  11.125  22.495  0.00  0.00    +0.000 A 
ATOM     16  C   UNL     1      -0.657  11.394  21.178  0.00  0.00    +0.000 A 
ATOM     17  C   UNL     1      -0.971  12.728  20.532  0.00  0.00    +0.000 C 
ATOM     18  C   UNL     1      -1.314  13.841  21.527  0.00  0.00    +0.000 C 
ATOM     19  C   UNL     1      -0.063  14.369  22.238  0.00  0.00    +0.000 C 
ATOM     20  C   UNL     1      -2.374  13.331  22.500  0.00  0.00    +0.000 C 
ATOM     21  C   UNL     1      -1.910  12.104  23.287  0.00  0.00    +0.000 C 
ENDROOT
TORSDOF 0
ENDMDL
MODEL 4
REMARK VINA RESULT:      -6.4      2.542      7.979
REMARK  Name = 
REMARK  2 active torsions:
REMARK  status: ('A' for Active; 'I' for Inactive)
REMARK    1  A    between atoms: C_1  and  C_2
REMARK    2  A    between atoms: C_18  and  C_19
REMARK                            x       y       z     vdW  Elec       q    Type
REMARK                         _______ _______ _______ _____ _____    ______ ____
ROOT
ATOM      1  C   UNL     1       2.615   6.463  19.113  0.00  0.00    +0.000 C 
ATOM      2  C   UNL     1       2.167   7.846  18.818  0.00  0.00    +0.000 A 
ATOM      3  C   UNL     1       2.333   8.591  17.664  0.00  0.00    +0.000 A 
ATOM      4  O   UNL     1       1.785   9.838  17.797  0.00  0.00    +0.000 OA
ATOM      5  C   UNL     1       1.281   9.892  19.055  0.00  0.00    +0.000 A 
ATOM      6  C   UNL     1       1.482   8.705  19.710  0.00  0.00    +0.000 A 
ATOM      7  C   UNL     1       1.009   8.563  21.061  0.00  0.00    +0.000 C 
ATOM      8  O   UNL     1       0.913   7.485  21.630  0.00  0.00    +0.000 OA
ATOM      9  C   UNL     1       0.624   9.860  21.777  0.00  0.00    +0.000 C 
ATOM     10  O   UNL     1       0.745   9.926  22.993  0.00  0.00    +0.000 OA
ATOM     11  C   UNL     1       0.211  11.039  20.934  0.00  0.00    +0.000 A 
ATOM     12  C   UNL     1       0.610  11.071  19.574  0.00  0.00    +0.000 A 
ATOM     13  C   UNL     1       0.318  12.188  18.797  0.00  0.00    +0.000 A 
ATOM     14  C   UNL     1      -0.341  13.279  19.373  0.00  0.00    +0.000 A 
ATOM     15  C   UNL     1      -0.756  13.254  20.719  0.00  0.00    +0.000 A 
ATOM     16  C   UNL     1      -0.530  12.102  21.494  0.00  0.00    +0.000 A 
ATOM     17  C   UNL     1      -1.092  11.998  22.897  0.00  0.00    +0.000 C 
ATOM     18  C   UNL     1      -2.244  12.966  23.184  0.00  0.00    +0.000 C 
ATOM     19  C   UNL     1      -3.548  12.506  22.523  0.00  0.00    +0.000 C 
ATOM     20  C   UNL     1      -1.832  14.373  22.757  0.00  0.00    +0.000 C 
ATOM     21  C   UNL     1      -1.484  14.460  21.270  0.00  0.00    +0.000 C 
ENDROOT
TORSDOF 0
ENDMDL
MODEL 5
REMARK VINA RESULT:      -6.3      9.439     11.159
REMARK  Name = 
REMARK  2 active torsions:
REMARK  status: ('A' for Active; 'I' for Inactive)
REMARK    1  A    between atoms: C_1  and  C_2
REMARK    2  A    between atoms: C_18  and  C_19
REMARK                            x       y       z     vdW  Elec       q    Type
REMARK                         _______ _______ _______ _____ _____    ______ ____
ROOT
ATOM      1  C   UNL     1      11.753  13.390  16.389  0.00  0.00    +0.000 C 
ATOM      2  C   UNL     1      11.514  14.053  17.694  0.00  0.00    +0.000 A 
ATOM      3  C   UNL     1      11.960  15.284  18.144  0.00  0.00    +0.000 A 
ATOM      4  O   UNL     1      11.533  15.528  19.421  0.00  0.00    +0.000 OA
ATOM      5  C   UNL     1      10.824  14.435  19.793  0.00  0.00    +0.000 A 
ATOM      6  C   UNL     1      10.778  13.516  18.776  0.00  0.00    +0.000 A 
ATOM      7  C   UNL     1      10.062  12.285  18.977  0.00  0.00    +0.000 C 
ATOM      8  O   UNL     1       9.753  11.531  18.066  0.00  0.00    +0.000 OA
ATOM      9  C   UNL     1       9.697  11.950  20.426  0.00  0.00    +0.000 C 
ATOM     10  O   UNL     1       9.608  10.777  20.760  0.00  0.00    +0.000 OA
ATOM     11  C   UNL     1       9.567  13.088  21.405  0.00  0.00    +0.000 A 
ATOM     12  C   UNL     1      10.202  14.319  21.100  0.00  0.00    +0.000 A 
ATOM     13  C   UNL     1      10.172  15.357  22.026  0.00  0.00    +0.000 A 
ATOM     14  C   UNL     1       9.542  15.166  23.260  0.00  0.00    +0.000 A 
ATOM     15  C   UNL     1       8.896  13.954  23.570  0.00  0.00    +0.000 A 
ATOM     16  C   UNL     1       8.856  12.923  22.614  0.00  0.00    +0.000 A 
ATOM     17  C   UNL     1       8.048  11.667  22.869  0.00  0.00    +0.000 C 
ATOM     18  C   UNL     1       6.973  11.824  23.950  0.00  0.00    +0.000 C 
ATOM     19  C   UNL     1       5.765  12.615  23.436  0.00  0.00    +0.000 C 
ATOM     20  C   UNL     1       7.602  12.450  25.192  0.00  0.00    +0.000 C 
ATOM     21  C   UNL     1       8.214  13.824  24.915  0.00  0.00    +0.000 C 
ENDROOT
TORSDOF 0
ENDMDL
MODEL 6
REMARK VINA RESULT:      -6.3      5.141      9.325
REMARK  Name = 
REMARK  2 active torsions:
REMARK  status: ('A' for Active; 'I' for Inactive)
REMARK    1  A    between atoms: C_1  and  C_2
REMARK    2  A    between atoms: C_18  and  C_19
REMARK                            x       y       z     vdW  Elec       q    Type
REMARK                         _______ _______ _______ _____ _____    ______ ____
ROOT
ATOM      1  C   UNL     1       1.559   9.809  18.117  0.00  0.00    +0.000 C 
ATOM      2  C   UNL     1       0.653  10.710  18.871  0.00  0.00    +0.000 A 
ATOM      3  C   UNL     1       0.940  11.546  19.936  0.00  0.00    +0.000 A 
ATOM      4  O   UNL     1      -0.181  12.205  20.364  0.00  0.00    +0.000 OA
ATOM      5  C   UNL     1      -1.194  11.770  19.574  0.00  0.00    +0.000 A 
ATOM      6  C   UNL     1      -0.735  10.869  18.649  0.00  0.00    +0.000 A 
ATOM      7  C   UNL     1      -1.662  10.296  17.711  0.00  0.00    +0.000 C 
ATOM      8  O   UNL     1      -1.316   9.692  16.705  0.00  0.00    +0.000 OA
ATOM      9  C   UNL     1      -3.147  10.478  18.038  0.00  0.00    +0.000 C 
ATOM     10  O   UNL     1      -3.946   9.629  17.667  0.00  0.00    +0.000 OA
ATOM     11  C   UNL     1      -3.544  11.649  18.900  0.00  0.00    +0.000 A 
ATOM     12  C   UNL     1      -2.556  12.249  19.723  0.00  0.00    +0.000 A 
ATOM     13  C   UNL     1      -2.916  13.274  20.593  0.00  0.00    +0.000 A 
ATOM     14  C   UNL     1      -4.251  13.682  20.668  0.00  0.00    +0.000 A 
ATOM     15  C   UNL     1      -5.239  13.105  19.846  0.00  0.00    +0.000 A 
ATOM     16  C   UNL     1      -4.875  12.119  18.911  0.00  0.00    +0.000 A 
ATOM     17  C   UNL     1      -5.891  11.586  17.921  0.00  0.00    +0.000 C 
ATOM     18  C   UNL     1      -7.107  12.497  17.721  0.00  0.00    +0.000 C 
ATOM     19  C   UNL     1      -6.763  13.719  16.861  0.00  0.00    +0.000 C 
ATOM     20  C   UNL     1      -7.675  12.878  19.086  0.00  0.00    +0.000 C 
ATOM     21  C   UNL     1      -6.660  13.611  19.963  0.00  0.00    +0.000 C 
ENDROOT
TORSDOF 0
ENDMDL
MODEL 7
REMARK VINA RESULT:      -6.2      1.769      3.395
REMARK  Name = 
REMARK  2 active torsions:
REMARK  status: ('A' for Active; 'I' for Inactive)
REMARK    1  A    between atoms: C_1  and  C_2
REMARK    2  A    between atoms: C_18  and  C_19
REMARK                            x       y       z     vdW  Elec       q    Type
REMARK                         _______ _______ _______ _____ _____    ______ ____
ROOT
ATOM      1  C   UNL     1      -0.686  10.992  21.575  0.00  0.00    +0.000 C 
ATOM      2  C   UNL     1       0.064  10.572  20.366  0.00  0.00    +0.000 A 
ATOM      3  C   UNL     1       0.143  11.187  19.128  0.00  0.00    +0.000 A 
ATOM      4  O   UNL     1       0.930  10.470  18.269  0.00  0.00    +0.000 OA
ATOM      5  C   UNL     1       1.342   9.380  18.961  0.00  0.00    +0.000 A 
ATOM      6  C   UNL     1       0.848   9.402  20.240  0.00  0.00    +0.000 A 
ATOM      7  C   UNL     1       1.181   8.327  21.136  0.00  0.00    +0.000 C 
ATOM      8  O   UNL     1       1.006   8.381  22.345  0.00  0.00    +0.000 OA
ATOM      9  C   UNL     1       1.778   7.074  20.490  0.00  0.00    +0.000 C 
ATOM     10  O   UNL     1       1.586   5.986  21.014  0.00  0.00    +0.000 OA
ATOM     11  C   UNL     1       2.491   7.228  19.171  0.00  0.00    +0.000 A 
ATOM     12  C   UNL     1       2.206   8.369  18.378  0.00  0.00    +0.000 A 
ATOM     13  C   UNL     1       2.783   8.492  17.117  0.00  0.00    +0.000 A 
ATOM     14  C   UNL     1       3.614   7.476  16.634  0.00  0.00    +0.000 A 
ATOM     15  C   UNL     1       3.915   6.345  17.417  0.00  0.00    +0.000 A 
ATOM     16  C   UNL     1       3.397   6.244  18.720  0.00  0.00    +0.000 A 
ATOM     17  C   UNL     1       3.820   5.109  19.630  0.00  0.00    +0.000 C 
ATOM     18  C   UNL     1       5.127   4.427  19.213  0.00  0.00    +0.000 C 
ATOM     19  C   UNL     1       6.349   5.287  19.554  0.00  0.00    +0.000 C 
ATOM     20  C   UNL     1       5.052   4.070  17.731  0.00  0.00    +0.000 C 
ATOM     21  C   UNL     1       4.840   5.295  16.840  0.00  0.00    +0.000 C 
ENDROOT
TORSDOF 0
ENDMDL
MODEL 8
REMARK VINA RESULT:      -6.2      1.505      6.436
REMARK  Name = 
REMARK  2 active torsions:
REMARK  status: ('A' for Active; 'I' for Inactive)
REMARK    1  A    between atoms: C_1  and  C_2
REMARK    2  A    between atoms: C_18  and  C_19
REMARK                            x       y       z     vdW  Elec       q    Type
REMARK                         _______ _______ _______ _____ _____    ______ ____
ROOT
ATOM      1  C   UNL     1       3.166   2.235  19.406  0.00  0.00    +0.000 C 
ATOM      2  C   UNL     1       3.330   3.560  18.758  0.00  0.00    +0.000 A 
ATOM      3  C   UNL     1       4.125   3.914  17.682  0.00  0.00    +0.000 A 
ATOM      4  O   UNL     1       4.007   5.248  17.398  0.00  0.00    +0.000 OA
ATOM      5  C   UNL     1       3.141   5.749  18.313  0.00  0.00    +0.000 A 
ATOM      6  C   UNL     1       2.698   4.762  19.154  0.00  0.00    +0.000 A 
ATOM      7  C   UNL     1       1.763   5.097  20.194  0.00  0.00    +0.000 C 
ATOM      8  O   UNL     1       1.125   4.262  20.820  0.00  0.00    +0.000 OA
ATOM      9  C   UNL     1       1.599   6.589  20.494  0.00  0.00    +0.000 C 
ATOM     10  O   UNL     1       1.300   6.938  21.628  0.00  0.00    +0.000 OA
ATOM     11  C   UNL     1       1.918   7.572  19.397  0.00  0.00    +0.000 A 
ATOM     12  C   UNL     1       2.757   7.149  18.334  0.00  0.00    +0.000 A 
ATOM     13  C   UNL     1       3.140   8.062  17.355  0.00  0.00    +0.000 A 
ATOM     14  C   UNL     1       2.717   9.392  17.446  0.00  0.00    +0.000 A 
ATOM     15  C   UNL     1       1.873   9.821  18.488  0.00  0.00    +0.000 A 
ATOM     16  C   UNL     1       1.421   8.892  19.442  0.00  0.00    +0.000 A 
ATOM     17  C   UNL     1       0.401   9.298  20.487  0.00  0.00    +0.000 C 
ATOM     18  C   UNL     1      -0.393  10.559  20.130  0.00  0.00    +0.000 C 
ATOM     19  C   UNL     1      -1.455  10.276  19.062  0.00  0.00    +0.000 C 
ATOM     20  C   UNL     1       0.580  11.661  19.717  0.00  0.00    +0.000 C 
ATOM     21  C   UNL     1       1.435  11.269  18.511  0.00  0.00    +0.000 C 
ENDROOT
TORSDOF 0
ENDMDL
MODEL 9
REMARK VINA RESULT:      -6.2      4.568      9.373
REMARK  Name = 
REMARK  2 active torsions:
REMARK  status: ('A' for Active; 'I' for Inactive)
REMARK    1  A    between atoms: C_1  and  C_2
REMARK    2  A    between atoms: C_18  and  C_19
REMARK                            x       y       z     vdW  Elec       q    Type
REMARK                         _______ _______ _______ _____ _____    ______ ____
ROOT
ATOM      1  C   UNL     1       1.489   9.371  18.427  0.00  0.00    +0.000 C 
ATOM      2  C   UNL     1       0.153  10.016  18.460  0.00  0.00    +0.000 A 
ATOM      3  C   UNL     1      -0.817  10.070  17.474  0.00  0.00    +0.000 A 
ATOM      4  O   UNL     1      -1.910  10.779  17.893  0.00  0.00    +0.000 OA
ATOM      5  C   UNL     1      -1.625  11.194  19.151  0.00  0.00    +0.000 A 
ATOM      6  C   UNL     1      -0.388  10.750  19.541  0.00  0.00    +0.000 A 
ATOM      7  C   UNL     1       0.093  11.085  20.855  0.00  0.00    +0.000 C 
ATOM      8  O   UNL     1       1.051  10.535  21.381  0.00  0.00    +0.000 OA
ATOM      9  C   UNL     1      -0.667  12.195  21.585  0.00  0.00    +0.000 C 
ATOM     10  O   UNL     1      -0.067  12.899  22.385  0.00  0.00    +0.000 OA
ATOM     11  C   UNL     1      -2.104  12.439  21.204  0.00  0.00    +0.000 A 
ATOM     12  C   UNL     1      -2.555  11.984  19.938  0.00  0.00    +0.000 A 
ATOM     13  C   UNL     1      -3.852  12.274  19.525  0.00  0.00    +0.000 A 
ATOM     14  C   UNL     1      -4.688  13.034  20.349  0.00  0.00    +0.000 A 
ATOM     15  C   UNL     1      -4.258  13.479  21.614  0.00  0.00    +0.000 A 
ATOM     16  C   UNL     1      -2.975  13.131  22.074  0.00  0.00    +0.000 A 
ATOM     17  C   UNL     1      -2.543  13.477  23.484  0.00  0.00    +0.000 C 
ATOM     18  C   UNL     1      -3.705  13.768  24.440  0.00  0.00    +0.000 C 
ATOM     19  C   UNL     1      -4.422  12.483  24.869  0.00  0.00    +0.000 C 
ATOM     20  C   UNL     1      -4.646  14.779  23.788  0.00  0.00    +0.000 C 
ATOM     21  C   UNL     1      -5.223  14.277  22.464  0.00  0.00    +0.000 C 
ENDROOT
TORSDOF 0
ENDMDL
