MODEL 1
REMARK VINA RESULT:      -8.7      0.000      0.000
REMARK  Name = 
REMARK  4 active torsions:
REMARK  status: ('A' for Active; 'I' for Inactive)
REMARK    1  A    between atoms: O_1  and  C_2
REMARK    2  A    between atoms: C_5  and  C_6
REMARK    3  A    between atoms: C_12  and  C_13
REMARK    4  A    between atoms: C_13  and  C_14
REMARK                            x       y       z     vdW  Elec       q    Type
REMARK                         _______ _______ _______ _____ _____    ______ ____
ROOT
ATOM      1  C   UNL     1       1.407   3.619  19.127  0.00  0.00    +0.000 A 
ATOM      2  O   UNL     1       1.289   2.683  18.153  0.00  0.00    +0.000 OA
ATOM      3  N   UNL     1       2.410   2.781  17.293  0.00  0.00    +0.000 NA
ATOM      4  C   UNL     1       3.187   3.748  17.813  0.00  0.00    +0.000 A 
ATOM      5  C   UNL     1       2.584   4.297  18.978  0.00  0.00    +0.000 A 
ENDROOT
BRANCH   4   6
ATOM      6  C   UNL     1       4.497   4.173  17.280  0.00  0.00    +0.000 A 
ATOM      7  C   UNL     1       5.648   4.260  18.064  0.00  0.00    +0.000 A 
ATOM      8  C   UNL     1       6.867   4.632  17.480  0.00  0.00    +0.000 A 
ATOM      9  C   UNL     1       6.966   4.809  16.102  0.00  0.00    +0.000 A 
ATOM     10  C   UNL     1       5.846   4.613  15.309  0.00  0.00    +0.000 A 
ATOM     11  C   UNL     1       4.624   4.350  15.895  0.00  0.00    +0.000 A 
ENDBRANCH   4   6
BRANCH   1  12
ATOM     12  O   UNL     1       0.462   3.789  20.037  0.00  0.00    +0.000 OA
ATOM     13  H   UNL     1       0.647   4.307  20.829  0.00  0.00    +0.000 HD
ENDBRANCH   1  12
BRANCH   5  14
ATOM     14  C   UNL     1       3.156   5.377  19.802  0.00  0.00    +0.000 C 
BRANCH  14  15
ATOM     15  C   UNL     1       2.468   6.704  19.533  0.00  0.00    +0.000 A 
ATOM     16  C   UNL     1       2.673   7.298  18.314  0.00  0.00    +0.000 A 
ATOM     17  C   UNL     1       2.156   8.587  18.087  0.00  0.00    +0.000 A 
ATOM     18  C   UNL     1       1.291   9.236  18.970  0.00  0.00    +0.000 A 
ATOM     19  C   UNL     1       0.581  10.375  18.544  0.00  0.00    +0.000 A 
ATOM     20  C   UNL     1      -0.432  10.932  19.351  0.00  0.00    +0.000 A 
ATOM     21  C   UNL     1      -0.164  11.110  20.691  0.00  0.00    +0.000 A 
ATOM     22  C   UNL     1       0.361   9.821  21.019  0.00  0.00    +0.000 A 
ATOM     23  C   UNL     1       1.172   8.831  20.219  0.00  0.00    +0.000 A 
ATOM     24  C   UNL     1       1.701   7.456  20.493  0.00  0.00    +0.000 A 
ENDBRANCH  14  15
ENDBRANCH   5  14
TORSDOF 4
ENDMDL
MODEL 2
REMARK VINA RESULT:      -8.7      1.451      1.966
REMARK  Name = 
REMARK  4 active torsions:
REMARK  status: ('A' for Active; 'I' for Inactive)
REMARK    1  A    between atoms: O_1  and  C_2
REMARK    2  A    between atoms: C_5  and  C_6
REMARK    3  A    between atoms: C_12  and  C_13
REMARK    4  A    between atoms: C_13  and  C_14
REMARK                            x       y       z     vdW  Elec       q    Type
REMARK                         _______ _______ _______ _____ _____    ______ ____
ROOT
ATOM      1  C   UNL     1       2.481   4.098  17.914  0.00  0.00    +0.000 A 
ATOM      2  O   UNL     1       3.001   3.497  16.816  0.00  0.00    +0.000 OA
ATOM      3  N   UNL     1       4.301   4.015  16.589  0.00  0.00    +0.000 NA
ATOM      4  C   UNL     1       4.530   4.880  17.593  0.00  0.00    +0.000 A 
ATOM      5  C   UNL     1       3.401   4.953  18.454  0.00  0.00    +0.000 A 
ENDROOT
BRANCH   4   6
ATOM      6  C   UNL     1       5.782   5.634  17.803  0.00  0.00    +0.000 A 
ATOM      7  C   UNL     1       6.036   6.873  17.214  0.00  0.00    +0.000 A 
ATOM      8  C   UNL     1       7.231   7.550  17.492  0.00  0.00    +0.000 A 
ATOM      9  C   UNL     1       8.122   7.051  18.440  0.00  0.00    +0.000 A 
ATOM     10  C   UNL     1       7.816   5.877  19.108  0.00  0.00    +0.000 A 
ATOM     11  C   UNL     1       6.692   5.156  18.758  0.00  0.00    +0.000 A 
ENDBRANCH   4   6
BRANCH   1  12
ATOM     12  O   UNL     1       1.249   3.843  18.320  0.00  0.00    +0.000 OA
ATOM     13  H   UNL     1       0.549   4.490  18.166  0.00  0.00    +0.000 HD
ENDBRANCH   1  12
BRANCH   5  14
ATOM     14  C   UNL     1       3.302   5.803  19.654  0.00  0.00    +0.000 C 
BRANCH  14  15
ATOM     15  C   UNL     1       2.456   7.037  19.393  0.00  0.00    +0.000 A 
ATOM     16  C   UNL     1       2.496   7.588  18.138  0.00  0.00    +0.000 A 
ATOM     17  C   UNL     1       1.828   8.805  17.905  0.00  0.00    +0.000 A 
ATOM     18  C   UNL     1       0.974   9.404  18.833  0.00  0.00    +0.000 A 
ATOM     19  C   UNL     1       0.114  10.442  18.425  0.00  0.00    +0.000 A 
ATOM     20  C   UNL     1      -0.883  10.931  19.295  0.00  0.00    +0.000 A 
ATOM     21  C   UNL     1      -0.526  11.201  20.598  0.00  0.00    +0.000 A 
ATOM     22  C   UNL     1       0.159   9.990  20.931  0.00  0.00    +0.000 A 
ATOM     23  C   UNL     1       1.002   9.051  20.103  0.00  0.00    +0.000 A 
ATOM     24  C   UNL     1       1.695   7.753  20.385  0.00  0.00    +0.000 A 
ENDBRANCH  14  15
ENDBRANCH   5  14
TORSDOF 4
ENDMDL
MODEL 3
REMARK VINA RESULT:      -8.7      0.140      1.006
REMARK  Name = 
REMARK  4 active torsions:
REMARK  status: ('A' for Active; 'I' for Inactive)
REMARK    1  A    between atoms: O_1  and  C_2
REMARK    2  A    between atoms: C_5  and  C_6
REMARK    3  A    between atoms: C_12  and  C_13
REMARK    4  A    between atoms: C_13  and  C_14
REMARK                            x       y       z     vdW  Elec       q    Type
REMARK                         _______ _______ _______ _____ _____    ______ ____
ROOT
ATOM      1  C   UNL     1       1.383   3.616  19.141  0.00  0.00    +0.000 A 
ATOM      2  O   UNL     1       1.241   2.672  18.178  0.00  0.00    +0.000 OA
ATOM      3  N   UNL     1       2.351   2.748  17.302  0.00  0.00    +0.000 NA
ATOM      4  C   UNL     1       3.147   3.711  17.801  0.00  0.00    +0.000 A 
ATOM      5  C   UNL     1       2.567   4.278  18.969  0.00  0.00    +0.000 A 
ENDROOT
BRANCH   4   6
ATOM      6  C   UNL     1       4.453   4.116  17.245  0.00  0.00    +0.000 A 
ATOM      7  C   UNL     1       4.619   4.569  15.936  0.00  0.00    +0.000 A 
ATOM      8  C   UNL     1       5.884   4.975  15.490  0.00  0.00    +0.000 A 
ATOM      9  C   UNL     1       6.959   5.036  16.373  0.00  0.00    +0.000 A 
ATOM     10  C   UNL     1       6.768   4.693  17.702  0.00  0.00    +0.000 A 
ATOM     11  C   UNL     1       5.549   4.192  18.116  0.00  0.00    +0.000 A 
ENDBRANCH   4   6
BRANCH   1  12
ATOM     12  O   UNL     1       0.454   3.806  20.063  0.00  0.00    +0.000 OA
ATOM     13  H   UNL     1      -0.379   3.321  20.010  0.00  0.00    +0.000 HD
ENDBRANCH   1  12
BRANCH   5  14
ATOM     14  C   UNL     1       3.162   5.360  19.774  0.00  0.00    +0.000 C 
BRANCH  14  15
ATOM     15  C   UNL     1       2.480   6.691  19.508  0.00  0.00    +0.000 A 
ATOM     16  C   UNL     1       2.699   7.294  18.296  0.00  0.00    +0.000 A 
ATOM     17  C   UNL     1       2.187   8.586  18.074  0.00  0.00    +0.000 A 
ATOM     18  C   UNL     1       1.313   9.229  18.953  0.00  0.00    +0.000 A 
ATOM     19  C   UNL     1       0.610  10.373  18.528  0.00  0.00    +0.000 A 
ATOM     20  C   UNL     1      -0.411  10.925  19.329  0.00  0.00    +0.000 A 
ATOM     21  C   UNL     1      -0.158  11.091  20.673  0.00  0.00    +0.000 A 
ATOM     22  C   UNL     1       0.362   9.799  20.996  0.00  0.00    +0.000 A 
ATOM     23  C   UNL     1       1.180   8.814  20.197  0.00  0.00    +0.000 A 
ATOM     24  C   UNL     1       1.703   7.436  20.465  0.00  0.00    +0.000 A 
ENDBRANCH  14  15
ENDBRANCH   5  14
TORSDOF 4
ENDMDL
MODEL 4
REMARK VINA RESULT:      -8.6      1.385      1.661
REMARK  Name = 
REMARK  4 active torsions:
REMARK  status: ('A' for Active; 'I' for Inactive)
REMARK    1  A    between atoms: O_1  and  C_2
REMARK    2  A    between atoms: C_5  and  C_6
REMARK    3  A    between atoms: C_12  and  C_13
REMARK    4  A    between atoms: C_13  and  C_14
REMARK                            x       y       z     vdW  Elec       q    Type
REMARK                         _______ _______ _______ _____ _____    ______ ____
ROOT
ATOM      1  C   UNL     1       2.353   3.970  18.057  0.00  0.00    +0.000 A 
ATOM      2  O   UNL     1       2.908   3.409  16.954  0.00  0.00    +0.000 OA
ATOM      3  N   UNL     1       4.198   3.965  16.765  0.00  0.00    +0.000 NA
ATOM      4  C   UNL     1       4.387   4.811  17.793  0.00  0.00    +0.000 A 
ATOM      5  C   UNL     1       3.240   4.835  18.634  0.00  0.00    +0.000 A 
ENDROOT
BRANCH   4   6
ATOM      6  C   UNL     1       5.615   5.590  18.045  0.00  0.00    +0.000 A 
ATOM      7  C   UNL     1       6.581   5.212  18.979  0.00  0.00    +0.000 A 
ATOM      8  C   UNL     1       7.743   5.980  19.137  0.00  0.00    +0.000 A 
ATOM      9  C   UNL     1       7.997   7.058  18.291  0.00  0.00    +0.000 A 
ATOM     10  C   UNL     1       7.091   7.365  17.289  0.00  0.00    +0.000 A 
ATOM     11  C   UNL     1       5.898   6.675  17.203  0.00  0.00    +0.000 A 
ENDBRANCH   4   6
BRANCH   1  12
ATOM     12  O   UNL     1       1.120   3.674  18.433  0.00  0.00    +0.000 OA
ATOM     13  H   UNL     1       0.524   3.233  17.817  0.00  0.00    +0.000 HD
ENDBRANCH   1  12
BRANCH   5  14
ATOM     14  C   UNL     1       3.098   5.652  19.853  0.00  0.00    +0.000 C 
BRANCH  14  15
ATOM     15  C   UNL     1       2.346   6.941  19.572  0.00  0.00    +0.000 A 
ATOM     16  C   UNL     1       2.438   7.476  18.313  0.00  0.00    +0.000 A 
ATOM     17  C   UNL     1       1.861   8.735  18.062  0.00  0.00    +0.000 A 
ATOM     18  C   UNL     1       1.043   9.403  18.976  0.00  0.00    +0.000 A 
ATOM     19  C   UNL     1       0.264  10.496  18.550  0.00  0.00    +0.000 A 
ATOM     20  C   UNL     1      -0.704  11.063  19.405  0.00  0.00    +0.000 A 
ATOM     21  C   UNL     1      -0.342  11.319  20.709  0.00  0.00    +0.000 A 
ATOM     22  C   UNL     1       0.251  10.065  21.060  0.00  0.00    +0.000 A 
ATOM     23  C   UNL     1       1.033   9.060  20.250  0.00  0.00    +0.000 A 
ATOM     24  C   UNL     1       1.628   7.719  20.550  0.00  0.00    +0.000 A 
ENDBRANCH  14  15
ENDBRANCH   5  14
TORSDOF 4
ENDMDL
MODEL 5
REMARK VINA RESULT:      -8.6      1.744      6.584
REMARK  Name = 
REMARK  4 active torsions:
REMARK  status: ('A' for Active; 'I' for Inactive)
REMARK    1  A    between atoms: O_1  and  C_2
REMARK    2  A    between atoms: C_5  and  C_6
REMARK    3  A    between atoms: C_12  and  C_13
REMARK    4  A    between atoms: C_13  and  C_14
REMARK                            x       y       z     vdW  Elec       q    Type
REMARK                         _______ _______ _______ _____ _____    ______ ____
ROOT
ATOM      1  C   UNL     1       4.067   2.579  19.610  0.00  0.00    +0.000 A 
ATOM      2  O   UNL     1       2.747   2.285  19.698  0.00  0.00    +0.000 OA
ATOM      3  N   UNL     1       2.008   3.493  19.625  0.00  0.00    +0.000 NA
ATOM      4  C   UNL     1       2.917   4.468  19.449  0.00  0.00    +0.000 A 
ATOM      5  C   UNL     1       4.232   3.924  19.429  0.00  0.00    +0.000 A 
ENDROOT
BRANCH   4   6
ATOM      6  C   UNL     1       2.612   5.901  19.271  0.00  0.00    +0.000 A 
ATOM      7  C   UNL     1       2.682   6.549  18.036  0.00  0.00    +0.000 A 
ATOM      8  C   UNL     1       2.337   7.904  17.935  0.00  0.00    +0.000 A 
ATOM      9  C   UNL     1       1.818   8.585  19.034  0.00  0.00    +0.000 A 
ATOM     10  C   UNL     1       1.643   7.910  20.231  0.00  0.00    +0.000 A 
ATOM     11  C   UNL     1       2.080   6.607  20.359  0.00  0.00    +0.000 A 
ENDBRANCH   4   6
BRANCH   1  12
ATOM     12  O   UNL     1       4.991   1.638  19.710  0.00  0.00    +0.000 OA
ATOM     13  H   UNL     1       5.920   1.885  19.794  0.00  0.00    +0.000 HD
ENDBRANCH   1  12
BRANCH   5  14
ATOM     14  C   UNL     1       5.471   4.704  19.257  0.00  0.00    +0.000 C 
BRANCH  14  15
ATOM     15  C   UNL     1       5.904   4.744  17.802  0.00  0.00    +0.000 A 
ATOM     16  C   UNL     1       6.897   5.623  17.452  0.00  0.00    +0.000 A 
ATOM     17  C   UNL     1       7.227   5.775  16.093  0.00  0.00    +0.000 A 
ATOM     18  C   UNL     1       6.723   4.954  15.082  0.00  0.00    +0.000 A 
ATOM     19  C   UNL     1       7.321   4.965  13.807  0.00  0.00    +0.000 A 
ATOM     20  C   UNL     1       6.952   4.015  12.834  0.00  0.00    +0.000 A 
ATOM     21  C   UNL     1       5.608   3.779  12.639  0.00  0.00    +0.000 A 
ATOM     22  C   UNL     1       5.183   3.594  13.992  0.00  0.00    +0.000 A 
ATOM     23  C   UNL     1       5.655   4.207  15.287  0.00  0.00    +0.000 A 
ATOM     24  C   UNL     1       5.284   4.014  16.726  0.00  0.00    +0.000 A 
ENDBRANCH  14  15
ENDBRANCH   5  14
TORSDOF 4
ENDMDL
MODEL 6
REMARK VINA RESULT:      -8.5      1.821      6.513
REMARK  Name = 
REMARK  4 active torsions:
REMARK  status: ('A' for Active; 'I' for Inactive)
REMARK    1  A    between atoms: O_1  and  C_2
REMARK    2  A    between atoms: C_5  and  C_6
REMARK    3  A    between atoms: C_12  and  C_13
REMARK    4  A    between atoms: C_13  and  C_14
REMARK                            x       y       z     vdW  Elec       q    Type
REMARK                         _______ _______ _______ _____ _____    ______ ____
ROOT
ATOM      1  C   UNL     1       3.338   1.879  18.605  0.00  0.00    +0.000 A 
ATOM      2  O   UNL     1       1.996   1.709  18.507  0.00  0.00    +0.000 OA
ATOM      3  N   UNL     1       1.365   2.962  18.705  0.00  0.00    +0.000 NA
ATOM      4  C   UNL     1       2.361   3.851  18.869  0.00  0.00    +0.000 A 
ATOM      5  C   UNL     1       3.624   3.201  18.806  0.00  0.00    +0.000 A 
ENDROOT
BRANCH   4   6
ATOM      6  C   UNL     1       2.187   5.305  19.060  0.00  0.00    +0.000 A 
ATOM      7  C   UNL     1       1.931   5.887  20.302  0.00  0.00    +0.000 A 
ATOM      8  C   UNL     1       1.818   7.280  20.414  0.00  0.00    +0.000 A 
ATOM      9  C   UNL     1       2.069   8.099  19.317  0.00  0.00    +0.000 A 
ATOM     10  C   UNL     1       2.434   7.526  18.109  0.00  0.00    +0.000 A 
ATOM     11  C   UNL     1       2.442   6.152  17.972  0.00  0.00    +0.000 A 
ENDBRANCH   4   6
BRANCH   1  12
ATOM     12  O   UNL     1       4.170   0.855  18.520  0.00  0.00    +0.000 OA
ATOM     13  H   UNL     1       4.962   0.834  19.071  0.00  0.00    +0.000 HD
ENDBRANCH   1  12
BRANCH   5  14
ATOM     14  C   UNL     1       4.931   3.867  18.948  0.00  0.00    +0.000 C 
BRANCH  14  15
ATOM     15  C   UNL     1       5.542   4.186  17.595  0.00  0.00    +0.000 A 
ATOM     16  C   UNL     1       6.442   5.217  17.524  0.00  0.00    +0.000 A 
ATOM     17  C   UNL     1       6.924   5.619  16.264  0.00  0.00    +0.000 A 
ATOM     18  C   UNL     1       6.673   4.915  15.084  0.00  0.00    +0.000 A 
ATOM     19  C   UNL     1       7.426   5.195  13.928  0.00  0.00    +0.000 A 
ATOM     20  C   UNL     1       7.319   4.375  12.786  0.00  0.00    +0.000 A 
ATOM     21  C   UNL     1       6.058   4.020  12.361  0.00  0.00    +0.000 A 
ATOM     22  C   UNL     1       5.488   3.577  13.596  0.00  0.00    +0.000 A 
ATOM     23  C   UNL     1       5.699   4.028  15.021  0.00  0.00    +0.000 A 
ATOM     24  C   UNL     1       5.173   3.569  16.346  0.00  0.00    +0.000 A 
ENDBRANCH  14  15
ENDBRANCH   5  14
TORSDOF 4
ENDMDL
MODEL 7
REMARK VINA RESULT:      -8.4      2.527      3.879
REMARK  Name = 
REMARK  4 active torsions:
REMARK  status: ('A' for Active; 'I' for Inactive)
REMARK    1  A    between atoms: O_1  and  C_2
REMARK    2  A    between atoms: C_5  and  C_6
REMARK    3  A    between atoms: C_12  and  C_13
REMARK    4  A    between atoms: C_13  and  C_14
REMARK                            x       y       z     vdW  Elec       q    Type
REMARK                         _______ _______ _______ _____ _____    ______ ____
ROOT
ATOM      1  C   UNL     1       5.841   6.187  18.209  0.00  0.00    +0.000 A 
ATOM      2  O   UNL     1       6.583   5.440  19.062  0.00  0.00    +0.000 OA
ATOM      3  N   UNL     1       5.731   4.508  19.706  0.00  0.00    +0.000 NA
ATOM      4  C   UNL     1       4.510   4.703  19.176  0.00  0.00    +0.000 A 
ATOM      5  C   UNL     1       4.545   5.755  18.220  0.00  0.00    +0.000 A 
ENDROOT
BRANCH   4   6
ATOM      6  C   UNL     1       3.300   3.924  19.506  0.00  0.00    +0.000 A 
ATOM      7  C   UNL     1       2.619   4.048  20.719  0.00  0.00    +0.000 A 
ATOM      8  C   UNL     1       1.452   3.306  20.947  0.00  0.00    +0.000 A 
ATOM      9  C   UNL     1       0.901   2.527  19.932  0.00  0.00    +0.000 A 
ATOM     10  C   UNL     1       1.515   2.493  18.691  0.00  0.00    +0.000 A 
ATOM     11  C   UNL     1       2.721   3.139  18.500  0.00  0.00    +0.000 A 
ENDBRANCH   4   6
BRANCH   1  12
ATOM     12  O   UNL     1       6.378   7.179  17.517  0.00  0.00    +0.000 OA
ATOM     13  H   UNL     1       6.189   8.093  17.764  0.00  0.00    +0.000 HD
ENDBRANCH   1  12
BRANCH   5  14
ATOM     14  C   UNL     1       3.387   6.239  17.447  0.00  0.00    +0.000 C 
BRANCH  14  15
ATOM     15  C   UNL     1       2.604   7.288  18.217  0.00  0.00    +0.000 A 
ATOM     16  C   UNL     1       2.323   8.472  17.586  0.00  0.00    +0.000 A 
ATOM     17  C   UNL     1       1.716   9.509  18.317  0.00  0.00    +0.000 A 
ATOM     18  C   UNL     1       1.217   9.348  19.612  0.00  0.00    +0.000 A 
ATOM     19  C   UNL     1       0.361  10.324  20.158  0.00  0.00    +0.000 A 
ATOM     20  C   UNL     1      -0.299  10.093  21.382  0.00  0.00    +0.000 A 
ATOM     21  C   UNL     1       0.438   9.582  22.428  0.00  0.00    +0.000 A 
ATOM     22  C   UNL     1       1.091   8.493  21.770  0.00  0.00    +0.000 A 
ATOM     23  C   UNL     1       1.582   8.321  20.353  0.00  0.00    +0.000 A 
ATOM     24  C   UNL     1       2.221   7.192  19.603  0.00  0.00    +0.000 A 
ENDBRANCH  14  15
ENDBRANCH   5  14
TORSDOF 4
ENDMDL
MODEL 8
REMARK VINA RESULT:      -8.4      2.485      3.988
REMARK  Name = 
REMARK  4 active torsions:
REMARK  status: ('A' for Active; 'I' for Inactive)
REMARK    1  A    between atoms: O_1  and  C_2
REMARK    2  A    between atoms: C_5  and  C_6
REMARK    3  A    between atoms: C_12  and  C_13
REMARK    4  A    between atoms: C_13  and  C_14
REMARK                            x       y       z     vdW  Elec       q    Type
REMARK                         _______ _______ _______ _____ _____    ______ ____
ROOT
ATOM      1  C   UNL     1       6.008   5.901  18.418  0.00  0.00    +0.000 A 
ATOM      2  O   UNL     1       6.583   5.073  19.325  0.00  0.00    +0.000 OA
ATOM      3  N   UNL     1       5.588   4.205  19.840  0.00  0.00    +0.000 NA
ATOM      4  C   UNL     1       4.456   4.516  19.184  0.00  0.00    +0.000 A 
ATOM      5  C   UNL     1       4.687   5.582  18.272  0.00  0.00    +0.000 A 
ENDROOT
BRANCH   4   6
ATOM      6  C   UNL     1       3.156   3.838  19.353  0.00  0.00    +0.000 A 
ATOM      7  C   UNL     1       2.615   2.974  18.400  0.00  0.00    +0.000 A 
ATOM      8  C   UNL     1       1.393   2.334  18.646  0.00  0.00    +0.000 A 
ATOM      9  C   UNL     1       0.765   2.463  19.883  0.00  0.00    +0.000 A 
ATOM     10  C   UNL     1       1.359   3.231  20.871  0.00  0.00    +0.000 A 
ATOM     11  C   UNL     1       2.507   3.946  20.592  0.00  0.00    +0.000 A 
ENDBRANCH   4   6
BRANCH   1  12
ATOM     12  O   UNL     1       6.700   6.857  17.822  0.00  0.00    +0.000 OA
ATOM     13  H   UNL     1       7.118   6.686  16.969  0.00  0.00    +0.000 HD
ENDBRANCH   1  12
BRANCH   5  14
ATOM     14  C   UNL     1       3.669   6.180  17.390  0.00  0.00    +0.000 C 
BRANCH  14  15
ATOM     15  C   UNL     1       2.823   7.202  18.131  0.00  0.00    +0.000 A 
ATOM     16  C   UNL     1       2.516   8.371  17.485  0.00  0.00    +0.000 A 
ATOM     17  C   UNL     1       1.848   9.388  18.192  0.00  0.00    +0.000 A 
ATOM     18  C   UNL     1       1.319   9.215  19.473  0.00  0.00    +0.000 A 
ATOM     19  C   UNL     1       0.411  10.159  19.989  0.00  0.00    +0.000 A 
ATOM     20  C   UNL     1      -0.275   9.909  21.195  0.00  0.00    +0.000 A 
ATOM     21  C   UNL     1       0.451   9.432  22.264  0.00  0.00    +0.000 A 
ATOM     22  C   UNL     1       1.164   8.365  21.632  0.00  0.00    +0.000 A 
ATOM     23  C   UNL     1       1.702   8.206  20.231  0.00  0.00    +0.000 A 
ATOM     24  C   UNL     1       2.405   7.099  19.506  0.00  0.00    +0.000 A 
ENDBRANCH  14  15
ENDBRANCH   5  14
TORSDOF 4
ENDMDL
MODEL 9
REMARK VINA RESULT:      -8.3      4.091      7.557
REMARK  Name = 
REMARK  4 active torsions:
REMARK  status: ('A' for Active; 'I' for Inactive)
REMARK    1  A    between atoms: O_1  and  C_2
REMARK    2  A    between atoms: C_5  and  C_6
REMARK    3  A    between atoms: C_12  and  C_13
REMARK    4  A    between atoms: C_13  and  C_14
REMARK                            x       y       z     vdW  Elec       q    Type
REMARK                         _______ _______ _______ _____ _____    ______ ____
ROOT
ATOM      1  C   UNL     1       7.183   6.154  18.469  0.00  0.00    +0.000 A 
ATOM      2  O   UNL     1       7.328   5.387  19.578  0.00  0.00    +0.000 OA
ATOM      3  N   UNL     1       6.176   4.574  19.720  0.00  0.00    +0.000 NA
ATOM      4  C   UNL     1       5.399   4.852  18.658  0.00  0.00    +0.000 A 
ATOM      5  C   UNL     1       6.009   5.845  17.842  0.00  0.00    +0.000 A 
ENDROOT
BRANCH   4   6
ATOM      6  C   UNL     1       4.106   4.208  18.351  0.00  0.00    +0.000 A 
ATOM      7  C   UNL     1       4.002   2.921  17.821  0.00  0.00    +0.000 A 
ATOM      8  C   UNL     1       2.739   2.358  17.593  0.00  0.00    +0.000 A 
ATOM      9  C   UNL     1       1.584   3.026  17.993  0.00  0.00    +0.000 A 
ATOM     10  C   UNL     1       1.693   4.256  18.622  0.00  0.00    +0.000 A 
ATOM     11  C   UNL     1       2.930   4.857  18.751  0.00  0.00    +0.000 A 
ENDBRANCH   4   6
BRANCH   1  12
ATOM     12  O   UNL     1       8.092   7.053  18.131  0.00  0.00    +0.000 OA
ATOM     13  H   UNL     1       8.356   7.143  17.207  0.00  0.00    +0.000 HD
ENDBRANCH   1  12
BRANCH   5  14
ATOM     14  C   UNL     1       5.437   6.392  16.599  0.00  0.00    +0.000 C 
BRANCH  14  15
ATOM     15  C   UNL     1       5.774   5.520  15.402  0.00  0.00    +0.000 A 
ATOM     16  C   UNL     1       7.076   5.496  14.972  0.00  0.00    +0.000 A 
ATOM     17  C   UNL     1       7.392   4.803  13.789  0.00  0.00    +0.000 A 
ATOM     18  C   UNL     1       6.487   3.985  13.110  0.00  0.00    +0.000 A 
ATOM     19  C   UNL     1       6.951   3.094  12.123  0.00  0.00    +0.000 A 
ATOM     20  C   UNL     1       6.087   2.132  11.562  0.00  0.00    +0.000 A 
ATOM     21  C   UNL     1       4.833   2.544  11.167  0.00  0.00    +0.000 A 
ATOM     22  C   UNL     1       4.419   3.258  12.335  0.00  0.00    +0.000 A 
ATOM     23  C   UNL     1       5.191   4.075  13.341  0.00  0.00    +0.000 A 
ATOM     24  C   UNL     1       4.820   4.795  14.601  0.00  0.00    +0.000 A 
ENDBRANCH  14  15
ENDBRANCH   5  14
TORSDOF 4
ENDMDL
