MODEL 1
REMARK VINA RESULT:      -6.7      0.000      0.000
REMARK  Name = 
REMARK  5 active torsions:
REMARK  status: ('A' for Active; 'I' for Inactive)
REMARK    1  A    between atoms: C_1  and  C_2
REMARK    2  A    between atoms: C_3  and  C_4
REMARK    3  A    between atoms: C_4  and  O_5
REMARK    4  A    between atoms: C_6  and  C_7
REMARK    5  A    between atoms: C_7  and  O_8
REMARK                            x       y       z     vdW  Elec       q    Type
REMARK                         _______ _______ _______ _____ _____    ______ ____
ROOT
ATOM      1  C   UNL     1       1.178   9.415  21.818  0.00  0.00    +0.000 C 
ATOM      2  C   UNL     1       0.645  10.562  21.054  0.00  0.00    +0.000 A 
ATOM      3  C   UNL     1       1.301  11.024  19.868  0.00  0.00    +0.000 A 
ATOM      4  C   UNL     1       1.177  12.395  20.138  0.00  0.00    +0.000 A 
ATOM      5  C   UNL     1      -0.222  12.383  20.198  0.00  0.00    +0.000 A 
ATOM      6  C   UNL     1      -1.341  12.117  19.312  0.00  0.00    +0.000 A 
ATOM      7  C   UNL     1      -1.411  10.972  18.548  0.00  0.00    +0.000 A 
ATOM      8  C   UNL     1      -2.378  10.797  17.605  0.00  0.00    +0.000 A 
ATOM      9  C   UNL     1      -2.157   9.815  16.643  0.00  0.00    +0.000 A 
ATOM     10  C   UNL     1      -3.011   9.731  15.581  0.00  0.00    +0.000 A 
ATOM     11  C   UNL     1      -4.142  10.552  15.567  0.00  0.00    +0.000 A 
ATOM     12  C   UNL     1      -4.429  11.429  16.643  0.00  0.00    +0.000 A 
ATOM     13  C   UNL     1      -3.530  11.587  17.718  0.00  0.00    +0.000 A 
ATOM     14  C   UNL     1      -3.680  12.348  18.931  0.00  0.00    +0.000 A 
ATOM     15  C   UNL     1      -2.562  12.495  19.780  0.00  0.00    +0.000 A 
ATOM     16  C   UNL     1      -2.571  12.474  21.338  0.00  0.00    +0.000 A 
ATOM     17  N   UNL     1      -3.556  13.259  21.958  0.00  0.00    +0.000 N 
ATOM     18  C   UNL     1      -3.950  14.582  21.413  0.00  0.00    +0.000 C 
ATOM     19  C   UNL     1      -4.252  15.572  22.548  0.00  0.00    +0.000 C 
ATOM     20  O   UNL     1      -5.283  15.065  23.407  0.00  0.00    +0.000 OA
ATOM     21  C   UNL     1      -4.865  13.812  23.987  0.00  0.00    +0.000 C 
ATOM     22  C   UNL     1      -4.558  12.751  22.903  0.00  0.00    +0.000 C 
ATOM     23  N   UNL     1      -1.647  11.734  22.015  0.00  0.00    +0.000 NA
ATOM     24  N   UNL     1      -0.415  11.551  21.289  0.00  0.00    +0.000 N 
ENDROOT
BRANCH   3  25
ATOM     25  C   UNL     1       1.495  10.343  18.527  0.00  0.00    +0.000 C 
BRANCH  25  26
ATOM     26  O   UNL     1       2.220  11.072  17.567  0.00  0.00    +0.000 OA
ATOM     27  H   UNL     1       1.854  11.974  17.626  0.00  0.00    +0.000 HD
ENDBRANCH  25  26
ENDBRANCH   3  25
BRANCH   4  28
ATOM     28  C   UNL     1       2.105  12.986  21.209  0.00  0.00    +0.000 C 
BRANCH  28  29
ATOM     29  O   UNL     1       1.541  14.100  21.873  0.00  0.00    +0.000 OA
ATOM     30  H   UNL     1       1.618  13.900  22.819  0.00  0.00    +0.000 HD
ENDBRANCH  28  29
ENDBRANCH   4  28
TORSDOF 4
ENDMDL
MODEL 2
REMARK VINA RESULT:      -6.7      1.571      1.765
REMARK  Name = 
REMARK  5 active torsions:
REMARK  status: ('A' for Active; 'I' for Inactive)
REMARK    1  A    between atoms: C_1  and  C_2
REMARK    2  A    between atoms: C_3  and  C_4
REMARK    3  A    between atoms: C_4  and  O_5
REMARK    4  A    between atoms: C_6  and  C_7
REMARK    5  A    between atoms: C_7  and  O_8
REMARK                            x       y       z     vdW  Elec       q    Type
REMARK                         _______ _______ _______ _____ _____    ______ ____
ROOT
ATOM      1  C   UNL     1      -0.307  10.478  22.919  0.00  0.00    +0.000 C 
ATOM      2  C   UNL     1      -0.816  11.472  21.951  0.00  0.00    +0.000 A 
ATOM      3  C   UNL     1       0.043  12.032  20.952  0.00  0.00    +0.000 A 
ATOM      4  C   UNL     1      -0.412  13.353  21.069  0.00  0.00    +0.000 A 
ATOM      5  C   UNL     1      -1.743  13.054  20.752  0.00  0.00    +0.000 A 
ATOM      6  C   UNL     1      -2.497  12.542  19.622  0.00  0.00    +0.000 A 
ATOM      7  C   UNL     1      -2.130  11.389  18.961  0.00  0.00    +0.000 A 
ATOM      8  C   UNL     1      -2.743  10.996  17.811  0.00  0.00    +0.000 A 
ATOM      9  C   UNL     1      -2.077  10.058  17.024  0.00  0.00    +0.000 A 
ATOM     10  C   UNL     1      -2.568   9.775  15.783  0.00  0.00    +0.000 A 
ATOM     11  C   UNL     1      -3.787  10.343  15.400  0.00  0.00    +0.000 A 
ATOM     12  C   UNL     1      -4.525  11.167  16.286  0.00  0.00    +0.000 A 
ATOM     13  C   UNL     1      -4.010  11.533  17.546  0.00  0.00    +0.000 A 
ATOM     14  C   UNL     1      -4.636  12.275  18.610  0.00  0.00    +0.000 A 
ATOM     15  C   UNL     1      -3.850  12.670  19.714  0.00  0.00    +0.000 A 
ATOM     16  C   UNL     1      -4.288  12.683  21.208  0.00  0.00    +0.000 A 
ATOM     17  N   UNL     1      -5.539  13.262  21.477  0.00  0.00    +0.000 N 
ATOM     18  C   UNL     1      -6.012  14.462  20.742  0.00  0.00    +0.000 C 
ATOM     19  C   UNL     1      -6.804  15.395  21.671  0.00  0.00    +0.000 C 
ATOM     20  O   UNL     1      -7.916  14.705  22.260  0.00  0.00    +0.000 OA
ATOM     21  C   UNL     1      -7.443  13.580  23.029  0.00  0.00    +0.000 C 
ATOM     22  C   UNL     1      -6.648  12.580  22.155  0.00  0.00    +0.000 C 
ATOM     23  N   UNL     1      -3.466  12.167  22.165  0.00  0.00    +0.000 NA
ATOM     24  N   UNL     1      -2.069  12.226  21.814  0.00  0.00    +0.000 N 
ENDROOT
BRANCH   3  25
ATOM     25  C   UNL     1       0.731  11.374  19.771  0.00  0.00    +0.000 C 
BRANCH  25  26
ATOM     26  O   UNL     1       1.323  12.248  18.841  0.00  0.00    +0.000 OA
ATOM     27  H   UNL     1       1.220  11.792  17.985  0.00  0.00    +0.000 HD
ENDBRANCH  25  26
ENDBRANCH   3  25
BRANCH   4  28
ATOM     28  C   UNL     1       0.049  14.149  22.299  0.00  0.00    +0.000 C 
BRANCH  28  29
ATOM     29  O   UNL     1       1.435  14.432  22.284  0.00  0.00    +0.000 OA
ATOM     30  H   UNL     1       1.522  15.258  21.782  0.00  0.00    +0.000 HD
ENDBRANCH  28  29
ENDBRANCH   4  28
TORSDOF 4
ENDMDL
MODEL 3
REMARK VINA RESULT:      -6.2      2.920      5.946
REMARK  Name = 
REMARK  5 active torsions:
REMARK  status: ('A' for Active; 'I' for Inactive)
REMARK    1  A    between atoms: C_1  and  C_2
REMARK    2  A    between atoms: C_3  and  C_4
REMARK    3  A    between atoms: C_4  and  O_5
REMARK    4  A    between atoms: C_6  and  C_7
REMARK    5  A    between atoms: C_7  and  O_8
REMARK                            x       y       z     vdW  Elec       q    Type
REMARK                         _______ _______ _______ _____ _____    ______ ____
ROOT
ATOM      1  C   UNL     1      -7.682  15.388  19.886  0.00  0.00    +0.000 C 
ATOM      2  C   UNL     1      -6.803  14.427  20.585  0.00  0.00    +0.000 A 
ATOM      3  C   UNL     1      -7.165  13.046  20.696  0.00  0.00    +0.000 A 
ATOM      4  C   UNL     1      -6.778  12.885  22.034  0.00  0.00    +0.000 A 
ATOM      5  C   UNL     1      -5.440  13.237  21.819  0.00  0.00    +0.000 A 
ATOM      6  C   UNL     1      -4.295  12.736  21.079  0.00  0.00    +0.000 A 
ATOM      7  C   UNL     1      -4.375  12.410  19.742  0.00  0.00    +0.000 A 
ATOM      8  C   UNL     1      -3.349  11.797  19.090  0.00  0.00    +0.000 A 
ATOM      9  C   UNL     1      -3.646  11.175  17.880  0.00  0.00    +0.000 A 
ATOM     10  C   UNL     1      -2.691  10.399  17.289  0.00  0.00    +0.000 A 
ATOM     11  C   UNL     1      -1.414  10.360  17.857  0.00  0.00    +0.000 A 
ATOM     12  C   UNL     1      -1.094  11.135  19.000  0.00  0.00    +0.000 A 
ATOM     13  C   UNL     1      -2.077  11.890  19.672  0.00  0.00    +0.000 A 
ATOM     14  C   UNL     1      -1.933  12.800  20.779  0.00  0.00    +0.000 A 
ATOM     15  C   UNL     1      -3.098  13.304  21.396  0.00  0.00    +0.000 A 
ATOM     16  C   UNL     1      -3.315  14.753  21.927  0.00  0.00    +0.000 A 
ATOM     17  N   UNL     1      -2.277  15.281  22.711  0.00  0.00    +0.000 N 
ATOM     18  C   UNL     1      -1.524  14.437  23.672  0.00  0.00    +0.000 C 
ATOM     19  C   UNL     1      -1.171  15.234  24.938  0.00  0.00    +0.000 C 
ATOM     20  O   UNL     1      -0.412  16.406  24.609  0.00  0.00    +0.000 OA
ATOM     21  C   UNL     1      -1.177  17.254  23.729  0.00  0.00    +0.000 C 
ATOM     22  C   UNL     1      -1.557  16.526  22.416  0.00  0.00    +0.000 C 
ATOM     23  N   UNL     1      -4.466  15.421  21.635  0.00  0.00    +0.000 NA
ATOM     24  N   UNL     1      -5.593  14.551  21.408  0.00  0.00    +0.000 N 
ENDROOT
BRANCH   3  25
ATOM     25  C   UNL     1      -7.315  11.984  19.625  0.00  0.00    +0.000 C 
BRANCH  25  26
ATOM     26  O   UNL     1      -7.823  10.744  20.056  0.00  0.00    +0.000 OA
ATOM     27  H   UNL     1      -7.030  10.186  20.164  0.00  0.00    +0.000 HD
ENDBRANCH  25  26
ENDBRANCH   3  25
BRANCH   4  28
ATOM     28  C   UNL     1      -7.692  13.491  23.109  0.00  0.00    +0.000 C 
BRANCH  28  29
ATOM     29  O   UNL     1      -7.170  13.355  24.416  0.00  0.00    +0.000 OA
ATOM     30  H   UNL     1      -6.642  12.541  24.398  0.00  0.00    +0.000 HD
ENDBRANCH  28  29
ENDBRANCH   4  28
TORSDOF 4
ENDMDL
MODEL 4
REMARK VINA RESULT:      -6.2      2.152      3.026
REMARK  Name = 
REMARK  5 active torsions:
REMARK  status: ('A' for Active; 'I' for Inactive)
REMARK    1  A    between atoms: C_1  and  C_2
REMARK    2  A    between atoms: C_3  and  C_4
REMARK    3  A    between atoms: C_4  and  O_5
REMARK    4  A    between atoms: C_6  and  C_7
REMARK    5  A    between atoms: C_7  and  O_8
REMARK                            x       y       z     vdW  Elec       q    Type
REMARK                         _______ _______ _______ _____ _____    ______ ____
ROOT
ATOM      1  C   UNL     1      -0.051   9.539  20.512  0.00  0.00    +0.000 C 
ATOM      2  C   UNL     1      -0.610  10.845  20.105  0.00  0.00    +0.000 A 
ATOM      3  C   UNL     1      -0.740  11.191  18.722  0.00  0.00    +0.000 A 
ATOM      4  C   UNL     1      -0.294  12.515  18.843  0.00  0.00    +0.000 A 
ATOM      5  C   UNL     1      -1.290  12.898  19.751  0.00  0.00    +0.000 A 
ATOM      6  C   UNL     1      -2.736  13.029  19.778  0.00  0.00    +0.000 A 
ATOM      7  C   UNL     1      -3.570  12.013  19.364  0.00  0.00    +0.000 A 
ATOM      8  C   UNL     1      -4.914  12.193  19.243  0.00  0.00    +0.000 A 
ATOM      9  C   UNL     1      -5.613  11.264  18.475  0.00  0.00    +0.000 A 
ATOM     10  C   UNL     1      -6.924  11.508  18.181  0.00  0.00    +0.000 A 
ATOM     11  C   UNL     1      -7.545  12.616  18.766  0.00  0.00    +0.000 A 
ATOM     12  C   UNL     1      -6.852  13.453  19.676  0.00  0.00    +0.000 A 
ATOM     13  C   UNL     1      -5.480  13.267  19.943  0.00  0.00    +0.000 A 
ATOM     14  C   UNL     1      -4.633  13.944  20.890  0.00  0.00    +0.000 A 
ATOM     15  C   UNL     1      -3.242  13.702  20.848  0.00  0.00    +0.000 A 
ATOM     16  C   UNL     1      -2.287  13.565  22.071  0.00  0.00    +0.000 A 
ATOM     17  N   UNL     1      -2.416  14.549  23.065  0.00  0.00    +0.000 N 
ATOM     18  C   UNL     1      -2.689  15.967  22.722  0.00  0.00    +0.000 C 
ATOM     19  C   UNL     1      -1.941  16.912  23.674  0.00  0.00    +0.000 C 
ATOM     20  O   UNL     1      -2.302  16.655  25.039  0.00  0.00    +0.000 OA
ATOM     21  C   UNL     1      -1.971  15.295  25.385  0.00  0.00    +0.000 C 
ATOM     22  C   UNL     1      -2.704  14.276  24.479  0.00  0.00    +0.000 C 
ATOM     23  N   UNL     1      -1.386  12.544  22.121  0.00  0.00    +0.000 NA
ATOM     24  N   UNL     1      -0.979  12.074  20.821  0.00  0.00    +0.000 N 
ENDROOT
BRANCH   3  25
ATOM     25  C   UNL     1      -1.613  10.587  17.639  0.00  0.00    +0.000 C 
BRANCH  25  26
ATOM     26  O   UNL     1      -1.919  11.430  16.555  0.00  0.00    +0.000 OA
ATOM     27  H   UNL     1      -2.652  10.976  16.099  0.00  0.00    +0.000 HD
ENDBRANCH  25  26
ENDBRANCH   3  25
BRANCH   4  28
ATOM     28  C   UNL     1       1.213  12.735  19.037  0.00  0.00    +0.000 C 
BRANCH  28  29
ATOM     29  O   UNL     1       1.985  12.236  17.962  0.00  0.00    +0.000 OA
ATOM     30  H   UNL     1       1.408  11.605  17.503  0.00  0.00    +0.000 HD
ENDBRANCH  28  29
ENDBRANCH   4  28
TORSDOF 4
ENDMDL
MODEL 5
REMARK VINA RESULT:      -6.2      2.365      4.573
REMARK  Name = 
REMARK  5 active torsions:
REMARK  status: ('A' for Active; 'I' for Inactive)
REMARK    1  A    between atoms: C_1  and  C_2
REMARK    2  A    between atoms: C_3  and  C_4
REMARK    3  A    between atoms: C_4  and  O_5
REMARK    4  A    between atoms: C_6  and  C_7
REMARK    5  A    between atoms: C_7  and  O_8
REMARK                            x       y       z     vdW  Elec       q    Type
REMARK                         _______ _______ _______ _____ _____    ______ ____
ROOT
ATOM      1  C   UNL     1      -1.798  10.006  18.248  0.00  0.00    +0.000 C 
ATOM      2  C   UNL     1      -0.975  10.612  19.315  0.00  0.00    +0.000 A 
ATOM      3  C   UNL     1       0.380  10.198  19.522  0.00  0.00    +0.000 A 
ATOM      4  C   UNL     1       0.328  10.166  20.923  0.00  0.00    +0.000 A 
ATOM      5  C   UNL     1      -0.016  11.516  21.065  0.00  0.00    +0.000 A 
ATOM      6  C   UNL     1       0.567  12.816  20.784  0.00  0.00    +0.000 A 
ATOM      7  C   UNL     1       1.096  13.129  19.550  0.00  0.00    +0.000 A 
ATOM      8  C   UNL     1       1.779  14.287  19.334  0.00  0.00    +0.000 A 
ATOM      9  C   UNL     1       2.585  14.347  18.200  0.00  0.00    +0.000 A 
ATOM     10  C   UNL     1       3.422  15.414  18.045  0.00  0.00    +0.000 A 
ATOM     11  C   UNL     1       3.346  16.463  18.966  0.00  0.00    +0.000 A 
ATOM     12  C   UNL     1       2.399  16.448  20.021  0.00  0.00    +0.000 A 
ATOM     13  C   UNL     1       1.572  15.330  20.247  0.00  0.00    +0.000 A 
ATOM     14  C   UNL     1       0.501  15.161  21.194  0.00  0.00    +0.000 A 
ATOM     15  C   UNL     1      -0.067  13.878  21.353  0.00  0.00    +0.000 A 
ATOM     16  C   UNL     1      -1.575  13.551  21.568  0.00  0.00    +0.000 A 
ATOM     17  N   UNL     1      -2.239  14.322  22.536  0.00  0.00    +0.000 N 
ATOM     18  C   UNL     1      -1.568  14.733  23.794  0.00  0.00    +0.000 C 
ATOM     19  C   UNL     1      -2.556  14.714  24.971  0.00  0.00    +0.000 C 
ATOM     20  O   UNL     1      -3.680  15.567  24.708  0.00  0.00    +0.000 OA
ATOM     21  C   UNL     1      -4.367  15.120  23.522  0.00  0.00    +0.000 C 
ATOM     22  C   UNL     1      -3.440  15.129  22.283  0.00  0.00    +0.000 C 
ATOM     23  N   UNL     1      -2.167  12.556  20.849  0.00  0.00    +0.000 NA
ATOM     24  N   UNL     1      -1.248  11.526  20.432  0.00  0.00    +0.000 N 
ENDROOT
BRANCH   3  25
ATOM     25  C   UNL     1       1.597  10.346  18.629  0.00  0.00    +0.000 C 
BRANCH  25  26
ATOM     26  O   UNL     1       1.591   9.579  17.450  0.00  0.00    +0.000 OA
ATOM     27  H   UNL     1       1.262   8.706  17.735  0.00  0.00    +0.000 HD
ENDBRANCH  25  26
ENDBRANCH   3  25
BRANCH   4  28
ATOM     28  C   UNL     1      -0.417   8.990  21.571  0.00  0.00    +0.000 C 
BRANCH  28  29
ATOM     29  O   UNL     1      -0.744   9.225  22.927  0.00  0.00    +0.000 OA
ATOM     30  H   UNL     1      -0.211   8.592  23.433  0.00  0.00    +0.000 HD
ENDBRANCH  28  29
ENDBRANCH   4  28
TORSDOF 4
ENDMDL
MODEL 6
REMARK VINA RESULT:      -6.1      3.743      6.920
REMARK  Name = 
REMARK  5 active torsions:
REMARK  status: ('A' for Active; 'I' for Inactive)
REMARK    1  A    between atoms: C_1  and  C_2
REMARK    2  A    between atoms: C_3  and  C_4
REMARK    3  A    between atoms: C_4  and  O_5
REMARK    4  A    between atoms: C_6  and  C_7
REMARK    5  A    between atoms: C_7  and  O_8
REMARK                            x       y       z     vdW  Elec       q    Type
REMARK                         _______ _______ _______ _____ _____    ______ ____
ROOT
ATOM      1  C   UNL     1      -0.003  11.167  22.033  0.00  0.00    +0.000 C 
ATOM      2  C   UNL     1       0.244  11.854  20.747  0.00  0.00    +0.000 A 
ATOM      3  C   UNL     1      -0.712  11.788  19.683  0.00  0.00    +0.000 A 
ATOM      4  C   UNL     1       0.214  11.599  18.646  0.00  0.00    +0.000 A 
ATOM      5  C   UNL     1       0.910  12.791  18.883  0.00  0.00    +0.000 A 
ATOM      6  C   UNL     1       0.652  14.220  18.843  0.00  0.00    +0.000 A 
ATOM      7  C   UNL     1      -0.436  14.784  19.473  0.00  0.00    +0.000 A 
ATOM      8  C   UNL     1      -0.761  16.096  19.306  0.00  0.00    +0.000 A 
ATOM      9  C   UNL     1      -2.053  16.480  19.659  0.00  0.00    +0.000 A 
ATOM     10  C   UNL     1      -2.474  17.739  19.339  0.00  0.00    +0.000 A 
ATOM     11  C   UNL     1      -1.553  18.631  18.782  0.00  0.00    +0.000 A 
ATOM     12  C   UNL     1      -0.199  18.262  18.585  0.00  0.00    +0.000 A 
ATOM     13  C   UNL     1       0.248  16.950  18.840  0.00  0.00    +0.000 A 
ATOM     14  C   UNL     1       1.582  16.412  18.789  0.00  0.00    +0.000 A 
ATOM     15  C   UNL     1       1.755  15.016  18.914  0.00  0.00    +0.000 A 
ATOM     16  C   UNL     1       2.895  14.287  19.686  0.00  0.00    +0.000 A 
ATOM     17  N   UNL     1       4.197  14.755  19.445  0.00  0.00    +0.000 N 
ATOM     18  C   UNL     1       4.625  15.195  18.094  0.00  0.00    +0.000 C 
ATOM     19  C   UNL     1       6.086  14.798  17.829  0.00  0.00    +0.000 C 
ATOM     20  O   UNL     1       6.955  15.351  18.828  0.00  0.00    +0.000 OA
ATOM     21  C   UNL     1       6.575  14.866  20.131  0.00  0.00    +0.000 C 
ATOM     22  C   UNL     1       5.115  15.243  20.482  0.00  0.00    +0.000 C 
ATOM     23  N   UNL     1       2.599  13.252  20.522  0.00  0.00    +0.000 NA
ATOM     24  N   UNL     1       1.397  12.545  20.156  0.00  0.00    +0.000 N 
ENDROOT
BRANCH   3  25
ATOM     25  C   UNL     1      -2.122  12.338  19.597  0.00  0.00    +0.000 C 
BRANCH  25  26
ATOM     26  O   UNL     1      -2.737  12.258  18.334  0.00  0.00    +0.000 OA
ATOM     27  H   UNL     1      -3.636  12.606  18.484  0.00  0.00    +0.000 HD
ENDBRANCH  25  26
ENDBRANCH   3  25
BRANCH   4  28
ATOM     28  C   UNL     1       0.855  10.209  18.521  0.00  0.00    +0.000 C 
BRANCH  28  29
ATOM     29  O   UNL     1       1.779  10.123  17.453  0.00  0.00    +0.000 OA
ATOM     30  H   UNL     1       2.544   9.648  17.814  0.00  0.00    +0.000 HD
ENDBRANCH  28  29
ENDBRANCH   4  28
TORSDOF 4
ENDMDL
MODEL 7
REMARK VINA RESULT:      -6.0      2.123      5.633
REMARK  Name = 
REMARK  5 active torsions:
REMARK  status: ('A' for Active; 'I' for Inactive)
REMARK    1  A    between atoms: C_1  and  C_2
REMARK    2  A    between atoms: C_3  and  C_4
REMARK    3  A    between atoms: C_4  and  O_5
REMARK    4  A    between atoms: C_6  and  C_7
REMARK    5  A    between atoms: C_7  and  O_8
REMARK                            x       y       z     vdW  Elec       q    Type
REMARK                         _______ _______ _______ _____ _____    ______ ____
ROOT
ATOM      1  C   UNL     1      -4.570  16.139  21.596  0.00  0.00    +0.000 C 
ATOM      2  C   UNL     1      -3.700  14.948  21.681  0.00  0.00    +0.000 A 
ATOM      3  C   UNL     1      -4.196  13.711  22.206  0.00  0.00    +0.000 A 
ATOM      4  C   UNL     1      -3.062  13.392  22.967  0.00  0.00    +0.000 A 
ATOM      5  C   UNL     1      -2.181  13.382  21.879  0.00  0.00    +0.000 A 
ATOM      6  C   UNL     1      -1.983  12.626  20.655  0.00  0.00    +0.000 A 
ATOM      7  C   UNL     1      -3.009  12.393  19.765  0.00  0.00    +0.000 A 
ATOM      8  C   UNL     1      -2.861  11.557  18.701  0.00  0.00    +0.000 A 
ATOM      9  C   UNL     1      -4.024  11.092  18.092  0.00  0.00    +0.000 A 
ATOM     10  C   UNL     1      -3.923  10.115  17.143  0.00  0.00    +0.000 A 
ATOM     11  C   UNL     1      -2.649   9.710  16.733  0.00  0.00    +0.000 A 
ATOM     12  C   UNL     1      -1.480  10.320  17.255  0.00  0.00    +0.000 A 
ATOM     13  C   UNL     1      -1.552  11.279  18.285  0.00  0.00    +0.000 A 
ATOM     14  C   UNL     1      -0.502  12.067  18.875  0.00  0.00    +0.000 A 
ATOM     15  C   UNL     1      -0.795  12.838  20.021  0.00  0.00    +0.000 A 
ATOM     16  C   UNL     1      -0.262  14.266  20.341  0.00  0.00    +0.000 A 
ATOM     17  N   UNL     1       1.117  14.462  20.164  0.00  0.00    +0.000 N 
ATOM     18  C   UNL     1       2.100  13.405  20.508  0.00  0.00    +0.000 C 
ATOM     19  C   UNL     1       3.379  14.021  21.096  0.00  0.00    +0.000 C 
ATOM     20  O   UNL     1       3.962  14.960  20.181  0.00  0.00    +0.000 OA
ATOM     21  C   UNL     1       3.025  16.020  19.904  0.00  0.00    +0.000 C 
ATOM     22  C   UNL     1       1.711  15.480  19.289  0.00  0.00    +0.000 C 
ATOM     23  N   UNL     1      -1.119  15.231  20.781  0.00  0.00    +0.000 NA
ATOM     24  N   UNL     1      -2.265  14.706  21.480  0.00  0.00    +0.000 N 
ENDROOT
BRANCH   3  25
ATOM     25  C   UNL     1      -5.262  12.776  21.668  0.00  0.00    +0.000 C 
BRANCH  25  26
ATOM     26  O   UNL     1      -6.212  12.326  22.603  0.00  0.00    +0.000 OA
ATOM     27  H   UNL     1      -6.023  12.848  23.406  0.00  0.00    +0.000 HD
ENDBRANCH  25  26
ENDBRANCH   3  25
BRANCH   4  28
ATOM     28  C   UNL     1      -2.849  14.173  24.272  0.00  0.00    +0.000 C 
BRANCH  28  29
ATOM     29  O   UNL     1      -4.002  14.202  25.091  0.00  0.00    +0.000 OA
ATOM     30  H   UNL     1      -4.316  15.120  25.058  0.00  0.00    +0.000 HD
ENDBRANCH  28  29
ENDBRANCH   4  28
TORSDOF 4
ENDMDL
MODEL 8
REMARK VINA RESULT:      -6.0      3.719      4.812
REMARK  Name = 
REMARK  5 active torsions:
REMARK  status: ('A' for Active; 'I' for Inactive)
REMARK    1  A    between atoms: C_1  and  C_2
REMARK    2  A    between atoms: C_3  and  C_4
REMARK    3  A    between atoms: C_4  and  O_5
REMARK    4  A    between atoms: C_6  and  C_7
REMARK    5  A    between atoms: C_7  and  O_8
REMARK                            x       y       z     vdW  Elec       q    Type
REMARK                         _______ _______ _______ _____ _____    ______ ____
ROOT
ATOM      1  C   UNL     1       3.174  15.869  19.623  0.00  0.00    +0.000 C 
ATOM      2  C   UNL     1       1.792  15.371  19.784  0.00  0.00    +0.000 A 
ATOM      3  C   UNL     1       1.170  14.588  18.760  0.00  0.00    +0.000 A 
ATOM      4  C   UNL     1      -0.085  15.212  18.819  0.00  0.00    +0.000 A 
ATOM      5  C   UNL     1      -0.314  14.904  20.166  0.00  0.00    +0.000 A 
ATOM      6  C   UNL     1      -0.492  13.721  20.989  0.00  0.00    +0.000 A 
ATOM      7  C   UNL     1       0.386  12.659  20.944  0.00  0.00    +0.000 A 
ATOM      8  C   UNL     1       0.135  11.491  21.597  0.00  0.00    +0.000 A 
ATOM      9  C   UNL     1       0.861  10.372  21.198  0.00  0.00    +0.000 A 
ATOM     10  C   UNL     1       0.513   9.150  21.700  0.00  0.00    +0.000 A 
ATOM     11  C   UNL     1      -0.476   9.090  22.686  0.00  0.00    +0.000 A 
ATOM     12  C   UNL     1      -1.084  10.266  23.191  0.00  0.00    +0.000 A 
ATOM     13  C   UNL     1      -0.796  11.533  22.644  0.00  0.00    +0.000 A 
ATOM     14  C   UNL     1      -1.235  12.835  23.072  0.00  0.00    +0.000 A 
ATOM     15  C   UNL     1      -0.953  13.949  22.250  0.00  0.00    +0.000 A 
ATOM     16  C   UNL     1      -0.535  15.372  22.727  0.00  0.00    +0.000 A 
ATOM     17  N   UNL     1      -1.301  15.922  23.767  0.00  0.00    +0.000 N 
ATOM     18  C   UNL     1      -2.768  15.712  23.843  0.00  0.00    +0.000 C 
ATOM     19  C   UNL     1      -3.472  16.973  24.370  0.00  0.00    +0.000 C 
ATOM     20  O   UNL     1      -2.958  17.346  25.656  0.00  0.00    +0.000 OA
ATOM     21  C   UNL     1      -1.545  17.613  25.560  0.00  0.00    +0.000 C 
ATOM     22  C   UNL     1      -0.759  16.380  25.052  0.00  0.00    +0.000 C 
ATOM     23  N   UNL     1       0.509  16.012  22.127  0.00  0.00    +0.000 NA
ATOM     24  N   UNL     1       0.721  15.608  20.760  0.00  0.00    +0.000 N 
ENDROOT
BRANCH   3  25
ATOM     25  C   UNL     1       1.508  13.202  18.244  0.00  0.00    +0.000 C 
BRANCH  25  26
ATOM     26  O   UNL     1       2.607  13.124  17.369  0.00  0.00    +0.000 OA
ATOM     27  H   UNL     1       2.666  12.177  17.145  0.00  0.00    +0.000 HD
ENDBRANCH  25  26
ENDBRANCH   3  25
BRANCH   4  28
ATOM     28  C   UNL     1      -0.203  16.612  18.199  0.00  0.00    +0.000 C 
BRANCH  28  29
ATOM     29  O   UNL     1      -1.443  17.233  18.474  0.00  0.00    +0.000 OA
ATOM     30  H   UNL     1      -1.670  17.722  17.667  0.00  0.00    +0.000 HD
ENDBRANCH  28  29
ENDBRANCH   4  28
TORSDOF 4
ENDMDL
MODEL 9
REMARK VINA RESULT:      -6.0      1.091      1.290
REMARK  Name = 
REMARK  5 active torsions:
REMARK  status: ('A' for Active; 'I' for Inactive)
REMARK    1  A    between atoms: C_1  and  C_2
REMARK    2  A    between atoms: C_3  and  C_4
REMARK    3  A    between atoms: C_4  and  O_5
REMARK    4  A    between atoms: C_6  and  C_7
REMARK    5  A    between atoms: C_7  and  O_8
REMARK                            x       y       z     vdW  Elec       q    Type
REMARK                         _______ _______ _______ _____ _____    ______ ____
ROOT
ATOM      1  C   UNL     1       1.297   9.488  21.693  0.00  0.00    +0.000 C 
ATOM      2  C   UNL     1       0.715  10.702  21.083  0.00  0.00    +0.000 A 
ATOM      3  C   UNL     1       1.083  11.107  19.760  0.00  0.00    +0.000 A 
ATOM      4  C   UNL     1       1.193  12.478  20.035  0.00  0.00    +0.000 A 
ATOM      5  C   UNL     1      -0.132  12.625  20.464  0.00  0.00    +0.000 A 
ATOM      6  C   UNL     1      -1.468  12.504  19.909  0.00  0.00    +0.000 A 
ATOM      7  C   UNL     1      -1.869  11.389  19.206  0.00  0.00    +0.000 A 
ATOM      8  C   UNL     1      -3.065  11.342  18.555  0.00  0.00    +0.000 A 
ATOM      9  C   UNL     1      -3.220  10.358  17.581  0.00  0.00    +0.000 A 
ATOM     10  C   UNL     1      -4.328  10.391  16.785  0.00  0.00    +0.000 A 
ATOM     11  C   UNL     1      -5.321  11.336  17.060  0.00  0.00    +0.000 A 
ATOM     12  C   UNL     1      -5.210  12.220  18.163  0.00  0.00    +0.000 A 
ATOM     13  C   UNL     1      -4.047  12.256  18.958  0.00  0.00    +0.000 A 
ATOM     14  C   UNL     1      -3.783  13.007  20.158  0.00  0.00    +0.000 A 
ATOM     15  C   UNL     1      -2.471  13.011  20.679  0.00  0.00    +0.000 A 
ATOM     16  C   UNL     1      -2.070  12.962  22.184  0.00  0.00    +0.000 A 
ATOM     17  N   UNL     1      -2.759  13.843  23.033  0.00  0.00    +0.000 N 
ATOM     18  C   UNL     1      -3.128  15.212  22.594  0.00  0.00    +0.000 C 
ATOM     19  C   UNL     1      -3.004  16.210  23.756  0.00  0.00    +0.000 C 
ATOM     20  O   UNL     1      -3.822  15.808  24.864  0.00  0.00    +0.000 OA
ATOM     21  C   UNL     1      -3.412  14.506  25.328  0.00  0.00    +0.000 C 
ATOM     22  C   UNL     1      -3.527  13.436  24.215  0.00  0.00    +0.000 C 
ATOM     23  N   UNL     1      -1.091  12.110  22.601  0.00  0.00    +0.000 NA
ATOM     24  N   UNL     1      -0.124  11.801  21.578  0.00  0.00    +0.000 N 
ENDROOT
BRANCH   3  25
ATOM     25  C   UNL     1       0.836  10.433  18.424  0.00  0.00    +0.000 C 
BRANCH  25  26
ATOM     26  O   UNL     1       1.900  10.482  17.505  0.00  0.00    +0.000 OA
ATOM     27  H   UNL     1       2.684  10.246  18.035  0.00  0.00    +0.000 HD
ENDBRANCH  25  26
ENDBRANCH   3  25
BRANCH   4  28
ATOM     28  C   UNL     1       2.433  12.941  20.814  0.00  0.00    +0.000 C 
BRANCH  28  29
ATOM     29  O   UNL     1       2.178  14.060  21.641  0.00  0.00    +0.000 OA
ATOM     30  H   UNL     1       2.938  14.650  21.515  0.00  0.00    +0.000 HD
ENDBRANCH  28  29
ENDBRANCH   4  28
TORSDOF 4
ENDMDL
