MODEL 1
REMARK VINA RESULT:      -7.9      0.000      0.000
REMARK  Name = 
REMARK  10 active torsions:
REMARK  status: ('A' for Active; 'I' for Inactive)
REMARK    1  A    between atoms: C_1  and  C_2
REMARK    2  A    between atoms: C_2  and  C_4
REMARK    3  A    between atoms: C_7  and  C_8
REMARK    4  A    between atoms: C_10  and  N_11
REMARK    5  A    between atoms: N_11  and  S_12
REMARK    6  A    between atoms: S_12  and  C_15
REMARK    7  A    between atoms: C_18  and  C_19
REMARK    8  A    between atoms: C_21  and  C_22
REMARK    9  A    between atoms: C_23  and  C_24
REMARK   10  A    between atoms: C_24  and  O_26
REMARK                            x       y       z     vdW  Elec       q    Type
REMARK                         _______ _______ _______ _____ _____    ______ ____
ROOT
ATOM      1  C   UNL     1       2.947   6.265  18.966  0.00  0.00    +0.000 A 
ATOM      2  C   UNL     1       4.314   6.046  18.848  0.00  0.00    +0.000 A 
ATOM      3  C   UNL     1       4.646   4.677  18.603  0.00  0.00    +0.000 A 
ATOM      4  C   UNL     1       3.520   3.878  18.592  0.00  0.00    +0.000 A 
ATOM      5  S   UNL     1       2.104   4.771  18.897  0.00  0.00    +0.000 S 
ENDROOT
BRANCH   1   9
ATOM      6  C   UNL     1       0.736   9.931  19.480  0.00  0.00    +0.000 A 
ATOM      7  C   UNL     1       0.922   9.067  20.560  0.00  0.00    +0.000 A 
ATOM      8  C   UNL     1       1.645   7.880  20.397  0.00  0.00    +0.000 A 
ATOM      9  C   UNL     1       2.196   7.525  19.152  0.00  0.00    +0.000 A 
ATOM     10  C   UNL     1       1.995   8.402  18.075  0.00  0.00    +0.000 A 
ATOM     11  C   UNL     1       1.277   9.597  18.236  0.00  0.00    +0.000 A 
BRANCH   6  13
ATOM     12  C   UNL     1       0.449  12.180  20.697  0.00  0.00    +0.000 C 
ATOM     13  C   UNL     1      -0.055  11.173  19.701  0.00  0.00    +0.000 C 
ATOM     14  O   UNL     1      -1.114  11.334  19.099  0.00  0.00    +0.000 OA
ENDBRANCH   6  13
ENDBRANCH   1   9
BRANCH   3  15
ATOM     15  N   UNL     1       5.969   4.214  18.385  0.00  0.00    +0.000 N 
ATOM     16  H   UNL     1       6.587   4.364  19.192  0.00  0.00    +0.000 HD
BRANCH  15  17
ATOM     17  S   UNL     1       6.787   4.846  17.010  0.00  0.00    +0.000 S 
ATOM     18  O   UNL     1       7.894   3.974  16.684  0.00  0.00    +0.000 OA
ATOM     19  O   UNL     1       5.771   5.164  16.030  0.00  0.00    +0.000 OA
BRANCH  17  20
ATOM     20  C   UNL     1       7.450   6.390  17.632  0.00  0.00    +0.000 A 
ATOM     21  C   UNL     1       7.296   7.541  16.845  0.00  0.00    +0.000 A 
ATOM     22  C   UNL     1       7.793   8.772  17.282  0.00  0.00    +0.000 A 
ATOM     23  C   UNL     1       8.451   8.870  18.510  0.00  0.00    +0.000 A 
ATOM     24  C   UNL     1       8.964  10.188  19.016  0.00  0.00    +0.000 C 
ATOM     25  C   UNL     1       8.615   7.715  19.287  0.00  0.00    +0.000 A 
ATOM     26  C   UNL     1       8.119   6.463  18.870  0.00  0.00    +0.000 A 
ATOM     27  C   UNL     1       8.345   5.275  19.761  0.00  0.00    +0.000 C 
ENDBRANCH  17  20
ENDBRANCH  15  17
ENDBRANCH   3  15
BRANCH   4  28
ATOM     28  C   UNL     1       3.465   2.456  18.354  0.00  0.00    +0.000 C 
ATOM     29  O   UNL     1       2.615   1.901  17.666  0.00  0.00    +0.000 OA
BRANCH  28  30
ATOM     30  O   UNL     1       4.482   1.775  18.941  0.00  0.00    +0.000 OA
ATOM     31  H   UNL     1       4.151   1.009  19.453  0.00  0.00    +0.000 HD
ENDBRANCH  28  30
ENDBRANCH   4  28
TORSDOF 7
ENDMDL
MODEL 2
REMARK VINA RESULT:      -7.8      2.580      3.543
REMARK  Name = 
REMARK  10 active torsions:
REMARK  status: ('A' for Active; 'I' for Inactive)
REMARK    1  A    between atoms: C_1  and  C_2
REMARK    2  A    between atoms: C_2  and  C_4
REMARK    3  A    between atoms: C_7  and  C_8
REMARK    4  A    between atoms: C_10  and  N_11
REMARK    5  A    between atoms: N_11  and  S_12
REMARK    6  A    between atoms: S_12  and  C_15
REMARK    7  A    between atoms: C_18  and  C_19
REMARK    8  A    between atoms: C_21  and  C_22
REMARK    9  A    between atoms: C_23  and  C_24
REMARK   10  A    between atoms: C_24  and  O_26
REMARK                            x       y       z     vdW  Elec       q    Type
REMARK                         _______ _______ _______ _____ _____    ______ ____
ROOT
ATOM      1  C   UNL     1       1.821   7.609  19.639  0.00  0.00    +0.000 A 
ATOM      2  C   UNL     1       2.577   6.787  18.813  0.00  0.00    +0.000 A 
ATOM      3  C   UNL     1       2.588   5.420  19.233  0.00  0.00    +0.000 A 
ATOM      4  C   UNL     1       1.877   5.247  20.404  0.00  0.00    +0.000 A 
ATOM      5  S   UNL     1       1.239   6.714  20.984  0.00  0.00    +0.000 S 
ENDROOT
BRANCH   1   9
ATOM      6  C   UNL     1       0.883  11.800  19.259  0.00  0.00    +0.000 A 
ATOM      7  C   UNL     1       0.493  11.095  20.399  0.00  0.00    +0.000 A 
ATOM      8  C   UNL     1       0.802   9.736  20.526  0.00  0.00    +0.000 A 
ATOM      9  C   UNL     1       1.504   9.048  19.520  0.00  0.00    +0.000 A 
ATOM     10  C   UNL     1       1.885   9.770  18.379  0.00  0.00    +0.000 A 
ATOM     11  C   UNL     1       1.583  11.135  18.250  0.00  0.00    +0.000 A 
BRANCH   6  13
ATOM     12  C   UNL     1      -0.828  13.676  19.677  0.00  0.00    +0.000 C 
ATOM     13  C   UNL     1       0.516  13.239  19.164  0.00  0.00    +0.000 C 
ATOM     14  O   UNL     1       1.296  14.031  18.638  0.00  0.00    +0.000 OA
ENDBRANCH   6  13
ENDBRANCH   1   9
BRANCH   3  15
ATOM     15  N   UNL     1       3.237   4.381  18.519  0.00  0.00    +0.000 N 
ATOM     16  H   UNL     1       2.781   3.467  18.634  0.00  0.00    +0.000 HD
BRANCH  15  17
ATOM     17  S   UNL     1       4.908   4.147  18.852  0.00  0.00    +0.000 S 
ATOM     18  O   UNL     1       5.367   5.217  19.711  0.00  0.00    +0.000 OA
ATOM     19  O   UNL     1       5.067   2.760  19.233  0.00  0.00    +0.000 OA
BRANCH  17  20
ATOM     20  C   UNL     1       5.655   4.360  17.237  0.00  0.00    +0.000 A 
ATOM     21  C   UNL     1       4.845   4.184  16.106  0.00  0.00    +0.000 A 
ATOM     22  C   UNL     1       5.376   4.338  14.821  0.00  0.00    +0.000 A 
ATOM     23  C   UNL     1       6.722   4.669  14.651  0.00  0.00    +0.000 A 
ATOM     24  C   UNL     1       7.307   4.873  13.283  0.00  0.00    +0.000 C 
ATOM     25  C   UNL     1       7.532   4.830  15.784  0.00  0.00    +0.000 A 
ATOM     26  C   UNL     1       7.018   4.683  17.089  0.00  0.00    +0.000 A 
ATOM     27  C   UNL     1       7.957   4.866  18.247  0.00  0.00    +0.000 C 
ENDBRANCH  17  20
ENDBRANCH  15  17
ENDBRANCH   3  15
BRANCH   4  28
ATOM     28  C   UNL     1       1.651   4.008  21.110  0.00  0.00    +0.000 C 
ATOM     29  O   UNL     1       2.262   3.663  22.115  0.00  0.00    +0.000 OA
BRANCH  28  30
ATOM     30  O   UNL     1       0.655   3.260  20.572  0.00  0.00    +0.000 OA
ATOM     31  H   UNL     1      -0.183   3.764  20.521  0.00  0.00    +0.000 HD
ENDBRANCH  28  30
ENDBRANCH   4  28
TORSDOF 7
ENDMDL
MODEL 3
REMARK VINA RESULT:      -7.8      0.602      1.230
REMARK  Name = 
REMARK  10 active torsions:
REMARK  status: ('A' for Active; 'I' for Inactive)
REMARK    1  A    between atoms: C_1  and  C_2
REMARK    2  A    between atoms: C_2  and  C_4
REMARK    3  A    between atoms: C_7  and  C_8
REMARK    4  A    between atoms: C_10  and  N_11
REMARK    5  A    between atoms: N_11  and  S_12
REMARK    6  A    between atoms: S_12  and  C_15
REMARK    7  A    between atoms: C_18  and  C_19
REMARK    8  A    between atoms: C_21  and  C_22
REMARK    9  A    between atoms: C_23  and  C_24
REMARK   10  A    between atoms: C_24  and  O_26
REMARK                            x       y       z     vdW  Elec       q    Type
REMARK                         _______ _______ _______ _____ _____    ______ ____
ROOT
ATOM      1  C   UNL     1       3.104   6.175  19.348  0.00  0.00    +0.000 A 
ATOM      2  C   UNL     1       4.408   5.992  18.906  0.00  0.00    +0.000 A 
ATOM      3  C   UNL     1       4.835   4.628  18.957  0.00  0.00    +0.000 A 
ATOM      4  C   UNL     1       3.856   3.812  19.489  0.00  0.00    +0.000 A 
ATOM      5  S   UNL     1       2.469   4.691  19.934  0.00  0.00    +0.000 S 
ENDROOT
BRANCH   1   9
ATOM      6  C   UNL     1       0.707   9.755  19.510  0.00  0.00    +0.000 A 
ATOM      7  C   UNL     1       1.328   9.380  18.317  0.00  0.00    +0.000 A 
ATOM      8  C   UNL     1       2.100   8.215  18.262  0.00  0.00    +0.000 A 
ATOM      9  C   UNL     1       2.275   7.399  19.394  0.00  0.00    +0.000 A 
ATOM     10  C   UNL     1       1.649   7.792  20.585  0.00  0.00    +0.000 A 
ATOM     11  C   UNL     1       0.867   8.956  20.645  0.00  0.00    +0.000 A 
BRANCH   6  13
ATOM     12  C   UNL     1      -0.267  11.741  20.826  0.00  0.00    +0.000 C 
ATOM     13  C   UNL     1      -0.091  11.012  19.523  0.00  0.00    +0.000 C 
ATOM     14  O   UNL     1      -0.618  11.407  18.485  0.00  0.00    +0.000 OA
ENDBRANCH   6  13
ENDBRANCH   1   9
BRANCH   3  15
ATOM     15  N   UNL     1       6.101   4.181  18.501  0.00  0.00    +0.000 N 
ATOM     16  H   UNL     1       6.841   4.277  19.207  0.00  0.00    +0.000 HD
BRANCH  15  17
ATOM     17  S   UNL     1       6.696   4.901  17.058  0.00  0.00    +0.000 S 
ATOM     18  O   UNL     1       7.771   4.085  16.536  0.00  0.00    +0.000 OA
ATOM     19  O   UNL     1       5.543   5.227  16.247  0.00  0.00    +0.000 OA
BRANCH  17  20
ATOM     20  C   UNL     1       7.396   6.439  17.656  0.00  0.00    +0.000 A 
ATOM     21  C   UNL     1       7.210   7.595  16.883  0.00  0.00    +0.000 A 
ATOM     22  C   UNL     1       7.734   8.822  17.302  0.00  0.00    +0.000 A 
ATOM     23  C   UNL     1       8.451   8.910  18.498  0.00  0.00    +0.000 A 
ATOM     24  C   UNL     1       8.994  10.222  18.986  0.00  0.00    +0.000 C 
ATOM     25  C   UNL     1       8.646   7.749  19.260  0.00  0.00    +0.000 A 
ATOM     26  C   UNL     1       8.125   6.502  18.860  0.00  0.00    +0.000 A 
ATOM     27  C   UNL     1       8.387   5.308  19.733  0.00  0.00    +0.000 C 
ENDBRANCH  17  20
ENDBRANCH  15  17
ENDBRANCH   3  15
BRANCH   4  28
ATOM     28  C   UNL     1       3.920   2.382  19.673  0.00  0.00    +0.000 C 
ATOM     29  O   UNL     1       4.788   1.804  20.317  0.00  0.00    +0.000 OA
BRANCH  28  30
ATOM     30  O   UNL     1       2.889   1.721  19.088  0.00  0.00    +0.000 OA
ATOM     31  H   UNL     1       2.242   1.407  19.753  0.00  0.00    +0.000 HD
ENDBRANCH  28  30
ENDBRANCH   4  28
TORSDOF 7
ENDMDL
MODEL 4
REMARK VINA RESULT:      -7.8      2.571      3.647
REMARK  Name = 
REMARK  10 active torsions:
REMARK  status: ('A' for Active; 'I' for Inactive)
REMARK    1  A    between atoms: C_1  and  C_2
REMARK    2  A    between atoms: C_2  and  C_4
REMARK    3  A    between atoms: C_7  and  C_8
REMARK    4  A    between atoms: C_10  and  N_11
REMARK    5  A    between atoms: N_11  and  S_12
REMARK    6  A    between atoms: S_12  and  C_15
REMARK    7  A    between atoms: C_18  and  C_19
REMARK    8  A    between atoms: C_21  and  C_22
REMARK    9  A    between atoms: C_23  and  C_24
REMARK   10  A    between atoms: C_24  and  O_26
REMARK                            x       y       z     vdW  Elec       q    Type
REMARK                         _______ _______ _______ _____ _____    ______ ____
ROOT
ATOM      1  C   UNL     1       1.723   7.664  19.791  0.00  0.00    +0.000 A 
ATOM      2  C   UNL     1       2.505   6.898  18.936  0.00  0.00    +0.000 A 
ATOM      3  C   UNL     1       2.546   5.515  19.297  0.00  0.00    +0.000 A 
ATOM      4  C   UNL     1       1.832   5.273  20.453  0.00  0.00    +0.000 A 
ATOM      5  S   UNL     1       1.153   6.697  21.091  0.00  0.00    +0.000 S 
ENDROOT
BRANCH   1   9
ATOM      6  C   UNL     1       0.719  11.855  19.652  0.00  0.00    +0.000 A 
ATOM      7  C   UNL     1       1.212  11.214  18.514  0.00  0.00    +0.000 A 
ATOM      8  C   UNL     1       1.532   9.853  18.556  0.00  0.00    +0.000 A 
ATOM      9  C   UNL     1       1.371   9.100  19.733  0.00  0.00    +0.000 A 
ATOM     10  C   UNL     1       0.880   9.759  20.869  0.00  0.00    +0.000 A 
ATOM     11  C   UNL     1       0.551  11.124  20.830  0.00  0.00    +0.000 A 
BRANCH   6  13
ATOM     12  C   UNL     1       1.523  14.298  19.772  0.00  0.00    +0.000 C 
ATOM     13  C   UNL     1       0.410  13.308  19.562  0.00  0.00    +0.000 C 
ATOM     14  O   UNL     1      -0.747  13.671  19.357  0.00  0.00    +0.000 OA
ENDBRANCH   6  13
ENDBRANCH   1   9
BRANCH   3  15
ATOM     15  N   UNL     1       3.226   4.524  18.543  0.00  0.00    +0.000 N 
ATOM     16  H   UNL     1       2.794   3.595  18.616  0.00  0.00    +0.000 HD
BRANCH  15  17
ATOM     17  S   UNL     1       4.901   4.320  18.876  0.00  0.00    +0.000 S 
ATOM     18  O   UNL     1       5.358   5.436  19.675  0.00  0.00    +0.000 OA
ATOM     19  O   UNL     1       5.073   2.956  19.328  0.00  0.00    +0.000 OA
BRANCH  17  20
ATOM     20  C   UNL     1       5.636   4.453  17.247  0.00  0.00    +0.000 A 
ATOM     21  C   UNL     1       4.796   4.337  16.131  0.00  0.00    +0.000 A 
ATOM     22  C   UNL     1       5.316   4.434  14.836  0.00  0.00    +0.000 A 
ATOM     23  C   UNL     1       6.682   4.648  14.641  0.00  0.00    +0.000 A 
ATOM     24  C   UNL     1       7.259   4.789  13.261  0.00  0.00    +0.000 C 
ATOM     25  C   UNL     1       7.521   4.750  15.759  0.00  0.00    +0.000 A 
ATOM     26  C   UNL     1       7.019   4.659  17.074  0.00  0.00    +0.000 A 
ATOM     27  C   UNL     1       7.989   4.773  18.215  0.00  0.00    +0.000 C 
ENDBRANCH  17  20
ENDBRANCH  15  17
ENDBRANCH   3  15
BRANCH   4  28
ATOM     28  C   UNL     1       1.632   4.000  21.102  0.00  0.00    +0.000 C 
ATOM     29  O   UNL     1       2.290   3.597  22.055  0.00  0.00    +0.000 OA
BRANCH  28  30
ATOM     30  O   UNL     1       0.603   3.287  20.577  0.00  0.00    +0.000 OA
ATOM     31  H   UNL     1       0.042   2.899  21.278  0.00  0.00    +0.000 HD
ENDBRANCH  28  30
ENDBRANCH   4  28
TORSDOF 7
ENDMDL
MODEL 5
REMARK VINA RESULT:      -7.8      1.224      1.593
REMARK  Name = 
REMARK  10 active torsions:
REMARK  status: ('A' for Active; 'I' for Inactive)
REMARK    1  A    between atoms: C_1  and  C_2
REMARK    2  A    between atoms: C_2  and  C_4
REMARK    3  A    between atoms: C_7  and  C_8
REMARK    4  A    between atoms: C_10  and  N_11
REMARK    5  A    between atoms: N_11  and  S_12
REMARK    6  A    between atoms: S_12  and  C_15
REMARK    7  A    between atoms: C_18  and  C_19
REMARK    8  A    between atoms: C_21  and  C_22
REMARK    9  A    between atoms: C_23  and  C_24
REMARK   10  A    between atoms: C_24  and  O_26
REMARK                            x       y       z     vdW  Elec       q    Type
REMARK                         _______ _______ _______ _____ _____    ______ ____
ROOT
ATOM      1  C   UNL     1       2.565   6.739  18.878  0.00  0.00    +0.000 A 
ATOM      2  C   UNL     1       3.717   6.755  18.102  0.00  0.00    +0.000 A 
ATOM      3  C   UNL     1       4.020   5.487  17.516  0.00  0.00    +0.000 A 
ATOM      4  C   UNL     1       3.114   4.521  17.906  0.00  0.00    +0.000 A 
ATOM      5  S   UNL     1       1.945   5.141  18.976  0.00  0.00    +0.000 S 
ENDROOT
BRANCH   1   9
ATOM      6  C   UNL     1       0.595   9.944  20.986  0.00  0.00    +0.000 A 
ATOM      7  C   UNL     1       0.914  10.086  19.635  0.00  0.00    +0.000 A 
ATOM      8  C   UNL     1       1.548   9.044  18.948  0.00  0.00    +0.000 A 
ATOM      9  C   UNL     1       1.880   7.839  19.592  0.00  0.00    +0.000 A 
ATOM     10  C   UNL     1       1.557   7.714  20.951  0.00  0.00    +0.000 A 
ATOM     11  C   UNL     1       0.916   8.754  21.643  0.00  0.00    +0.000 A 
BRANCH   6  13
ATOM     12  C   UNL     1      -0.905  10.807  22.890  0.00  0.00    +0.000 C 
ATOM     13  C   UNL     1      -0.063  11.086  21.676  0.00  0.00    +0.000 C 
ATOM     14  O   UNL     1       0.061  12.223  21.224  0.00  0.00    +0.000 OA
ENDBRANCH   6  13
ENDBRANCH   1   9
BRANCH   3  15
ATOM     15  N   UNL     1       5.108   5.266  16.634  0.00  0.00    +0.000 N 
ATOM     16  H   UNL     1       4.902   4.570  15.906  0.00  0.00    +0.000 HD
BRANCH  15  17
ATOM     17  S   UNL     1       6.600   4.805  17.353  0.00  0.00    +0.000 S 
ATOM     18  O   UNL     1       6.325   4.081  18.575  0.00  0.00    +0.000 OA
ATOM     19  O   UNL     1       7.408   4.223  16.304  0.00  0.00    +0.000 OA
BRANCH  17  20
ATOM     20  C   UNL     1       7.323   6.387  17.786  0.00  0.00    +0.000 A 
ATOM     21  C   UNL     1       7.101   7.473  16.926  0.00  0.00    +0.000 A 
ATOM     22  C   UNL     1       7.641   8.730  17.215  0.00  0.00    +0.000 A 
ATOM     23  C   UNL     1       8.410   8.918  18.366  0.00  0.00    +0.000 A 
ATOM     24  C   UNL     1       8.972  10.266  18.715  0.00  0.00    +0.000 C 
ATOM     25  C   UNL     1       8.641   7.827  19.215  0.00  0.00    +0.000 A 
ATOM     26  C   UNL     1       8.104   6.552  18.947  0.00  0.00    +0.000 A 
ATOM     27  C   UNL     1       8.407   5.436  19.906  0.00  0.00    +0.000 C 
ENDBRANCH  17  20
ENDBRANCH  15  17
ENDBRANCH   3  15
BRANCH   4  28
ATOM     28  C   UNL     1       3.088   3.136  17.500  0.00  0.00    +0.000 C 
ATOM     29  O   UNL     1       2.107   2.569  17.033  0.00  0.00    +0.000 OA
BRANCH  28  30
ATOM     30  O   UNL     1       4.285   2.513  17.648  0.00  0.00    +0.000 OA
ATOM     31  H   UNL     1       4.179   1.541  17.693  0.00  0.00    +0.000 HD
ENDBRANCH  28  30
ENDBRANCH   4  28
TORSDOF 7
ENDMDL
MODEL 6
REMARK VINA RESULT:      -7.8      0.797      1.438
REMARK  Name = 
REMARK  10 active torsions:
REMARK  status: ('A' for Active; 'I' for Inactive)
REMARK    1  A    between atoms: C_1  and  C_2
REMARK    2  A    between atoms: C_2  and  C_4
REMARK    3  A    between atoms: C_7  and  C_8
REMARK    4  A    between atoms: C_10  and  N_11
REMARK    5  A    between atoms: N_11  and  S_12
REMARK    6  A    between atoms: S_12  and  C_15
REMARK    7  A    between atoms: C_18  and  C_19
REMARK    8  A    between atoms: C_21  and  C_22
REMARK    9  A    between atoms: C_23  and  C_24
REMARK   10  A    between atoms: C_24  and  O_26
REMARK                            x       y       z     vdW  Elec       q    Type
REMARK                         _______ _______ _______ _____ _____    ______ ____
ROOT
ATOM      1  C   UNL     1       3.073   6.182  19.307  0.00  0.00    +0.000 A 
ATOM      2  C   UNL     1       4.452   6.019  19.335  0.00  0.00    +0.000 A 
ATOM      3  C   UNL     1       4.862   4.656  19.201  0.00  0.00    +0.000 A 
ATOM      4  C   UNL     1       3.776   3.807  19.126  0.00  0.00    +0.000 A 
ATOM      5  S   UNL     1       2.302   4.649  19.241  0.00  0.00    +0.000 S 
ENDROOT
BRANCH   1   9
ATOM      6  C   UNL     1       0.675   9.764  19.399  0.00  0.00    +0.000 A 
ATOM      7  C   UNL     1       0.842   9.003  20.557  0.00  0.00    +0.000 A 
ATOM      8  C   UNL     1       1.625   7.843  20.530  0.00  0.00    +0.000 A 
ATOM      9  C   UNL     1       2.257   7.415  19.349  0.00  0.00    +0.000 A 
ATOM     10  C   UNL     1       2.075   8.188  18.193  0.00  0.00    +0.000 A 
ATOM     11  C   UNL     1       1.296   9.356  18.216  0.00  0.00    +0.000 A 
BRANCH   6  13
ATOM     12  C   UNL     1      -0.846  11.314  20.782  0.00  0.00    +0.000 C 
ATOM     13  C   UNL     1      -0.181  10.979  19.474  0.00  0.00    +0.000 C 
ATOM     14  O   UNL     1      -0.359  11.661  18.467  0.00  0.00    +0.000 OA
ENDBRANCH   6  13
ENDBRANCH   1   9
BRANCH   3  15
ATOM     15  N   UNL     1       6.218   4.243  19.138  0.00  0.00    +0.000 N 
ATOM     16  H   UNL     1       6.794   4.636  19.893  0.00  0.00    +0.000 HD
BRANCH  15  17
ATOM     17  S   UNL     1       7.049   4.556  17.666  0.00  0.00    +0.000 S 
ATOM     18  O   UNL     1       8.326   3.877  17.697  0.00  0.00    +0.000 OA
ATOM     19  O   UNL     1       6.104   4.323  16.595  0.00  0.00    +0.000 OA
BRANCH  17  20
ATOM     20  C   UNL     1       7.347   6.321  17.759  0.00  0.00    +0.000 A 
ATOM     21  C   UNL     1       8.333   6.779  18.645  0.00  0.00    +0.000 A 
ATOM     22  C   UNL     1       8.608   8.145  18.757  0.00  0.00    +0.000 A 
ATOM     23  C   UNL     1       7.900   9.071  17.988  0.00  0.00    +0.000 A 
ATOM     24  C   UNL     1       8.199  10.541  18.067  0.00  0.00    +0.000 C 
ATOM     25  C   UNL     1       6.905   8.610  17.114  0.00  0.00    +0.000 A 
ATOM     26  C   UNL     1       6.614   7.237  16.980  0.00  0.00    +0.000 A 
ATOM     27  C   UNL     1       5.527   6.831  16.026  0.00  0.00    +0.000 C 
ENDBRANCH  17  20
ENDBRANCH  15  17
ENDBRANCH   3  15
BRANCH   4  28
ATOM     28  C   UNL     1       3.802   2.373  18.964  0.00  0.00    +0.000 C 
ATOM     29  O   UNL     1       3.029   1.742  18.251  0.00  0.00    +0.000 OA
BRANCH  28  30
ATOM     30  O   UNL     1       4.804   1.775  19.657  0.00  0.00    +0.000 OA
ATOM     31  H   UNL     1       5.677   1.960  19.255  0.00  0.00    +0.000 HD
ENDBRANCH  28  30
ENDBRANCH   4  28
TORSDOF 7
ENDMDL
MODEL 7
REMARK VINA RESULT:      -7.7      1.602      2.405
REMARK  Name = 
REMARK  10 active torsions:
REMARK  status: ('A' for Active; 'I' for Inactive)
REMARK    1  A    between atoms: C_1  and  C_2
REMARK    2  A    between atoms: C_2  and  C_4
REMARK    3  A    between atoms: C_7  and  C_8
REMARK    4  A    between atoms: C_10  and  N_11
REMARK    5  A    between atoms: N_11  and  S_12
REMARK    6  A    between atoms: S_12  and  C_15
REMARK    7  A    between atoms: C_18  and  C_19
REMARK    8  A    between atoms: C_21  and  C_22
REMARK    9  A    between atoms: C_23  and  C_24
REMARK   10  A    between atoms: C_24  and  O_26
REMARK                            x       y       z     vdW  Elec       q    Type
REMARK                         _______ _______ _______ _____ _____    ______ ____
ROOT
ATOM      1  C   UNL     1       2.096   6.758  19.803  0.00  0.00    +0.000 A 
ATOM      2  C   UNL     1       2.893   6.549  18.684  0.00  0.00    +0.000 A 
ATOM      3  C   UNL     1       3.165   5.168  18.435  0.00  0.00    +0.000 A 
ATOM      4  C   UNL     1       2.608   4.360  19.406  0.00  0.00    +0.000 A 
ATOM      5  S   UNL     1       1.799   5.265  20.599  0.00  0.00    +0.000 S 
ENDROOT
BRANCH   1   9
ATOM      6  C   UNL     1       0.500  10.410  21.447  0.00  0.00    +0.000 A 
ATOM      7  C   UNL     1       0.855  10.345  20.099  0.00  0.00    +0.000 A 
ATOM      8  C   UNL     1       1.367   9.158  19.562  0.00  0.00    +0.000 A 
ATOM      9  C   UNL     1       1.540   8.011  20.357  0.00  0.00    +0.000 A 
ATOM     10  C   UNL     1       1.183   8.094  21.711  0.00  0.00    +0.000 A 
ATOM     11  C   UNL     1       0.663   9.280  22.253  0.00  0.00    +0.000 A 
BRANCH   6  13
ATOM     12  C   UNL     1      -1.228  11.674  22.877  0.00  0.00    +0.000 C 
ATOM     13  C   UNL     1      -0.024  11.699  21.974  0.00  0.00    +0.000 C 
ATOM     14  O   UNL     1       0.507  12.755  21.636  0.00  0.00    +0.000 OA
ENDBRANCH   6  13
ENDBRANCH   1   9
BRANCH   3  15
ATOM     15  N   UNL     1       3.903   4.699  17.318  0.00  0.00    +0.000 N 
ATOM     16  H   UNL     1       3.432   3.936  16.816  0.00  0.00    +0.000 HD
BRANCH  15  17
ATOM     17  S   UNL     1       5.511   4.173  17.625  0.00  0.00    +0.000 S 
ATOM     18  O   UNL     1       5.553   3.526  18.919  0.00  0.00    +0.000 OA
ATOM     19  O   UNL     1       5.962   3.490  16.432  0.00  0.00    +0.000 OA
BRANCH  17  20
ATOM     20  C   UNL     1       6.407   5.721  17.740  0.00  0.00    +0.000 A 
ATOM     21  C   UNL     1       7.368   5.855  18.753  0.00  0.00    +0.000 A 
ATOM     22  C   UNL     1       8.096   7.041  18.889  0.00  0.00    +0.000 A 
ATOM     23  C   UNL     1       7.874   8.108  18.016  0.00  0.00    +0.000 A 
ATOM     24  C   UNL     1       8.666   9.379  18.121  0.00  0.00    +0.000 C 
ATOM     25  C   UNL     1       6.902   7.975  17.014  0.00  0.00    +0.000 A 
ATOM     26  C   UNL     1       6.158   6.788  16.855  0.00  0.00    +0.000 A 
ATOM     27  C   UNL     1       5.132   6.733  15.759  0.00  0.00    +0.000 C 
ENDBRANCH  17  20
ENDBRANCH  15  17
ENDBRANCH   3  15
BRANCH   4  28
ATOM     28  C   UNL     1       2.655   2.919  19.473  0.00  0.00    +0.000 C 
ATOM     29  O   UNL     1       2.274   2.171  18.579  0.00  0.00    +0.000 OA
BRANCH  28  30
ATOM     30  O   UNL     1       3.207   2.455  20.623  0.00  0.00    +0.000 OA
ATOM     31  H   UNL     1       4.007   1.920  20.446  0.00  0.00    +0.000 HD
ENDBRANCH  28  30
ENDBRANCH   4  28
TORSDOF 7
ENDMDL
MODEL 8
REMARK VINA RESULT:      -7.6      3.920      9.915
REMARK  Name = 
REMARK  10 active torsions:
REMARK  status: ('A' for Active; 'I' for Inactive)
REMARK    1  A    between atoms: C_1  and  C_2
REMARK    2  A    between atoms: C_2  and  C_4
REMARK    3  A    between atoms: C_7  and  C_8
REMARK    4  A    between atoms: C_10  and  N_11
REMARK    5  A    between atoms: N_11  and  S_12
REMARK    6  A    between atoms: S_12  and  C_15
REMARK    7  A    between atoms: C_18  and  C_19
REMARK    8  A    between atoms: C_21  and  C_22
REMARK    9  A    between atoms: C_23  and  C_24
REMARK   10  A    between atoms: C_24  and  O_26
REMARK                            x       y       z     vdW  Elec       q    Type
REMARK                         _______ _______ _______ _____ _____    ______ ____
ROOT
ATOM      1  C   UNL     1       1.620   8.413  19.500  0.00  0.00    +0.000 A 
ATOM      2  C   UNL     1       1.034   9.594  19.061  0.00  0.00    +0.000 A 
ATOM      3  C   UNL     1       0.329  10.290  20.091  0.00  0.00    +0.000 A 
ATOM      4  C   UNL     1       0.353   9.592  21.282  0.00  0.00    +0.000 A 
ATOM      5  S   UNL     1       1.191   8.118  21.137  0.00  0.00    +0.000 S 
ENDROOT
BRANCH   1   9
ATOM      6  C   UNL     1       4.091   5.577  17.393  0.00  0.00    +0.000 A 
ATOM      7  C   UNL     1       4.078   6.918  17.007  0.00  0.00    +0.000 A 
ATOM      8  C   UNL     1       3.282   7.841  17.694  0.00  0.00    +0.000 A 
ATOM      9  C   UNL     1       2.478   7.448  18.779  0.00  0.00    +0.000 A 
ATOM     10  C   UNL     1       2.498   6.096  19.151  0.00  0.00    +0.000 A 
ATOM     11  C   UNL     1       3.301   5.168  18.469  0.00  0.00    +0.000 A 
BRANCH   6  13
ATOM     12  C   UNL     1       5.894   5.189  15.598  0.00  0.00    +0.000 C 
ATOM     13  C   UNL     1       4.942   4.632  16.620  0.00  0.00    +0.000 C 
ATOM     14  O   UNL     1       4.826   3.421  16.802  0.00  0.00    +0.000 OA
ENDBRANCH   6  13
ENDBRANCH   1   9
BRANCH   3  15
ATOM     15  N   UNL     1      -0.299  11.549  19.904  0.00  0.00    +0.000 N 
ATOM     16  H   UNL     1      -0.646  11.960  20.779  0.00  0.00    +0.000 HD
BRANCH  15  17
ATOM     17  S   UNL     1      -1.601  11.599  18.782  0.00  0.00    +0.000 S 
ATOM     18  O   UNL     1      -1.310  12.593  17.772  0.00  0.00    +0.000 OA
ATOM     19  O   UNL     1      -1.894  10.228  18.420  0.00  0.00    +0.000 OA
BRANCH  17  20
ATOM     20  C   UNL     1      -2.955  12.199  19.790  0.00  0.00    +0.000 A 
ATOM     21  C   UNL     1      -2.664  12.657  21.083  0.00  0.00    +0.000 A 
ATOM     22  C   UNL     1      -3.682  13.138  21.913  0.00  0.00    +0.000 A 
ATOM     23  C   UNL     1      -5.003  13.166  21.462  0.00  0.00    +0.000 A 
ATOM     24  C   UNL     1      -6.109  13.708  22.322  0.00  0.00    +0.000 C 
ATOM     25  C   UNL     1      -5.292  12.694  20.174  0.00  0.00    +0.000 A 
ATOM     26  C   UNL     1      -4.283  12.209  19.318  0.00  0.00    +0.000 A 
ATOM     27  C   UNL     1      -4.681  11.716  17.956  0.00  0.00    +0.000 C 
ENDBRANCH  17  20
ENDBRANCH  15  17
ENDBRANCH   3  15
BRANCH   4  28
ATOM     28  C   UNL     1      -0.230   9.994  22.539  0.00  0.00    +0.000 C 
ATOM     29  O   UNL     1      -0.227  11.142  22.969  0.00  0.00    +0.000 OA
BRANCH  28  30
ATOM     30  O   UNL     1      -0.829   8.973  23.202  0.00  0.00    +0.000 OA
ATOM     31  H   UNL     1      -0.348   8.748  24.024  0.00  0.00    +0.000 HD
ENDBRANCH  28  30
ENDBRANCH   4  28
TORSDOF 7
ENDMDL
MODEL 9
REMARK VINA RESULT:      -7.6      1.587      2.254
REMARK  Name = 
REMARK  10 active torsions:
REMARK  status: ('A' for Active; 'I' for Inactive)
REMARK    1  A    between atoms: C_1  and  C_2
REMARK    2  A    between atoms: C_2  and  C_4
REMARK    3  A    between atoms: C_7  and  C_8
REMARK    4  A    between atoms: C_10  and  N_11
REMARK    5  A    between atoms: N_11  and  S_12
REMARK    6  A    between atoms: S_12  and  C_15
REMARK    7  A    between atoms: C_18  and  C_19
REMARK    8  A    between atoms: C_21  and  C_22
REMARK    9  A    between atoms: C_23  and  C_24
REMARK   10  A    between atoms: C_24  and  O_26
REMARK                            x       y       z     vdW  Elec       q    Type
REMARK                         _______ _______ _______ _____ _____    ______ ____
ROOT
ATOM      1  C   UNL     1       2.121   6.828  19.644  0.00  0.00    +0.000 A 
ATOM      2  C   UNL     1       2.936   6.565  18.550  0.00  0.00    +0.000 A 
ATOM      3  C   UNL     1       3.148   5.169  18.327  0.00  0.00    +0.000 A 
ATOM      4  C   UNL     1       2.528   4.403  19.294  0.00  0.00    +0.000 A 
ATOM      5  S   UNL     1       1.733   5.363  20.452  0.00  0.00    +0.000 S 
ENDROOT
BRANCH   1   9
ATOM      6  C   UNL     1       0.608  10.576  21.144  0.00  0.00    +0.000 A 
ATOM      7  C   UNL     1       0.895   9.533  22.026  0.00  0.00    +0.000 A 
ATOM      8  C   UNL     1       1.392   8.318  21.541  0.00  0.00    +0.000 A 
ATOM      9  C   UNL     1       1.612   8.114  20.167  0.00  0.00    +0.000 A 
ATOM     10  C   UNL     1       1.314   9.170  19.294  0.00  0.00    +0.000 A 
ATOM     11  C   UNL     1       0.821  10.393  19.775  0.00  0.00    +0.000 A 
BRANCH   6  13
ATOM     12  C   UNL     1      -1.327  11.842  22.276  0.00  0.00    +0.000 C 
ATOM     13  C   UNL     1       0.066  11.843  21.706  0.00  0.00    +0.000 C 
ATOM     14  O   UNL     1       0.744  12.867  21.662  0.00  0.00    +0.000 OA
ENDBRANCH   6  13
ENDBRANCH   1   9
BRANCH   3  15
ATOM     15  N   UNL     1       3.891   4.649  17.236  0.00  0.00    +0.000 N 
ATOM     16  H   UNL     1       3.414   3.874  16.757  0.00  0.00    +0.000 HD
BRANCH  15  17
ATOM     17  S   UNL     1       5.488   4.112  17.580  0.00  0.00    +0.000 S 
ATOM     18  O   UNL     1       5.495   3.467  18.875  0.00  0.00    +0.000 OA
ATOM     19  O   UNL     1       5.960   3.424  16.398  0.00  0.00    +0.000 OA
BRANCH  17  20
ATOM     20  C   UNL     1       6.391   5.654  17.713  0.00  0.00    +0.000 A 
ATOM     21  C   UNL     1       7.332   5.782  18.746  0.00  0.00    +0.000 A 
ATOM     22  C   UNL     1       8.066   6.963  18.896  0.00  0.00    +0.000 A 
ATOM     23  C   UNL     1       7.869   8.031  18.018  0.00  0.00    +0.000 A 
ATOM     24  C   UNL     1       8.669   9.296  18.138  0.00  0.00    +0.000 C 
ATOM     25  C   UNL     1       6.918   7.904  16.995  0.00  0.00    +0.000 A 
ATOM     26  C   UNL     1       6.169   6.722  16.821  0.00  0.00    +0.000 A 
ATOM     27  C   UNL     1       5.166   6.673  15.704  0.00  0.00    +0.000 C 
ENDBRANCH  17  20
ENDBRANCH  15  17
ENDBRANCH   3  15
BRANCH   4  28
ATOM     28  C   UNL     1       2.505   2.963  19.381  0.00  0.00    +0.000 C 
ATOM     29  O   UNL     1       2.419   2.333  20.430  0.00  0.00    +0.000 OA
BRANCH  28  30
ATOM     30  O   UNL     1       2.548   2.353  18.170  0.00  0.00    +0.000 OA
ATOM     31  H   UNL     1       1.659   2.296  17.765  0.00  0.00    +0.000 HD
ENDBRANCH  28  30
ENDBRANCH   4  28
TORSDOF 7
ENDMDL
