MODEL 1
REMARK VINA RESULT:      -9.6      0.000      0.000
REMARK  Name = 
REMARK  5 active torsions:
REMARK  status: ('A' for Active; 'I' for Inactive)
REMARK    1  A    between atoms: C_1  and  C_2
REMARK    2  A    between atoms: C_2  and  O_3
REMARK    3  A    between atoms: O_3  and  C_4
REMARK    4  A    between atoms: C_9  and  C_10
REMARK    5  A    between atoms: N_12  and  C_13
REMARK                            x       y       z     vdW  Elec       q    Type
REMARK                         _______ _______ _______ _____ _____    ______ ____
ROOT
ATOM      1  C   UNL     1       3.510   6.031  19.148  0.00  0.00    +0.000 A 
ATOM      2  N   UNL     1       4.759   6.137  18.641  0.00  0.00    +0.000 NA
ATOM      3  N   UNL     1       5.401   4.988  18.807  0.00  0.00    +0.000 N 
ATOM      4  C   UNL     1       4.546   4.127  19.396  0.00  0.00    +0.000 A 
ATOM      5  N   UNL     1       4.799   2.839  19.737  0.00  0.00    +0.000 NA
ATOM      6  C   UNL     1       3.800   2.111  20.313  0.00  0.00    +0.000 A 
ATOM      7  N   UNL     1       2.566   2.661  20.505  0.00  0.00    +0.000 NA
ATOM      8  C   UNL     1       2.284   3.951  20.155  0.00  0.00    +0.000 A 
ATOM      9  N   UNL     1       0.945   4.399  20.275  0.00  0.00    +0.000 N 
ATOM     10  C   UNL     1       3.330   4.722  19.607  0.00  0.00    +0.000 A 
ATOM     11  H   UNL     1       0.241   3.799  20.730  0.00  0.00    +0.000 HD
ATOM     12  H   UNL     1       0.597   5.221  19.773  0.00  0.00    +0.000 HD
ENDROOT
BRANCH   1  18
ATOM     13  C   UNL     1      -0.596  10.871  20.645  0.00  0.00    +0.000 A 
ATOM     14  C   UNL     1      -0.318  10.088  21.785  0.00  0.00    +0.000 A 
ATOM     15  C   UNL     1       0.540   8.993  21.706  0.00  0.00    +0.000 A 
ATOM     16  C   UNL     1       1.126   8.646  20.487  0.00  0.00    +0.000 A 
ATOM     17  C   UNL     1       1.986   7.543  20.408  0.00  0.00    +0.000 A 
ATOM     18  C   UNL     1       2.592   7.196  19.193  0.00  0.00    +0.000 A 
ATOM     19  C   UNL     1       2.268   7.934  18.040  0.00  0.00    +0.000 A 
ATOM     20  C   UNL     1       1.419   9.040  18.109  0.00  0.00    +0.000 A 
ATOM     21  C   UNL     1       0.851   9.414  19.332  0.00  0.00    +0.000 A 
ATOM     22  C   UNL     1       0.000  10.529  19.422  0.00  0.00    +0.000 A 
BRANCH  13  23
ATOM     23  O   UNL     1      -1.432  11.944  20.693  0.00  0.00    +0.000 OA
BRANCH  23  25
ATOM     24  C   UNL     1      -3.639  12.641  20.085  0.00  0.00    +0.000 C 
ATOM     25  C   UNL     1      -2.213  12.372  19.634  0.00  0.00    +0.000 C 
ENDBRANCH  23  25
ENDBRANCH  13  23
ENDBRANCH   1  18
BRANCH   3  26
ATOM     26  C   UNL     1       6.808   4.726  18.422  0.00  0.00    +0.000 C 
ATOM     27  C   UNL     1       7.729   5.924  18.735  0.00  0.00    +0.000 C 
ATOM     28  C   UNL     1       7.467   7.113  17.789  0.00  0.00    +0.000 C 
ATOM     29  N   UNL     1       7.612   6.715  16.378  0.00  0.00    +0.000 NA
ATOM     30  C   UNL     1       6.723   5.596  16.022  0.00  0.00    +0.000 C 
ATOM     31  C   UNL     1       6.967   4.376  16.929  0.00  0.00    +0.000 C 
ATOM     32  H   UNL     1       8.607   6.444  16.193  0.00  0.00    +0.000 HD
ENDBRANCH   3  26
TORSDOF 4
ENDMDL
MODEL 2
REMARK VINA RESULT:      -9.3      1.140      1.378
REMARK  Name = 
REMARK  5 active torsions:
REMARK  status: ('A' for Active; 'I' for Inactive)
REMARK    1  A    between atoms: C_1  and  C_2
REMARK    2  A    between atoms: C_2  and  O_3
REMARK    3  A    between atoms: O_3  and  C_4
REMARK    4  A    between atoms: C_9  and  C_10
REMARK    5  A    between atoms: N_12  and  C_13
REMARK                            x       y       z     vdW  Elec       q    Type
REMARK                         _______ _______ _______ _____ _____    ______ ____
ROOT
ATOM      1  C   UNL     1       3.157   6.373  18.836  0.00  0.00    +0.000 A 
ATOM      2  N   UNL     1       4.250   6.521  18.053  0.00  0.00    +0.000 NA
ATOM      3  N   UNL     1       4.917   5.376  18.006  0.00  0.00    +0.000 N 
ATOM      4  C   UNL     1       4.230   4.476  18.739  0.00  0.00    +0.000 A 
ATOM      5  N   UNL     1       4.563   3.178  18.948  0.00  0.00    +0.000 NA
ATOM      6  C   UNL     1       3.731   2.409  19.709  0.00  0.00    +0.000 A 
ATOM      7  N   UNL     1       2.576   2.930  20.215  0.00  0.00    +0.000 NA
ATOM      8  C   UNL     1       2.214   4.231  20.004  0.00  0.00    +0.000 A 
ATOM      9  N   UNL     1       0.940   4.653  20.460  0.00  0.00    +0.000 N 
ATOM     10  C   UNL     1       3.097   5.042  19.261  0.00  0.00    +0.000 A 
ATOM     11  H   UNL     1       0.367   4.021  21.040  0.00  0.00    +0.000 HD
ATOM     12  H   UNL     1       0.479   5.491  20.094  0.00  0.00    +0.000 HD
ENDROOT
BRANCH   1  18
ATOM     13  C   UNL     1      -0.639  10.969  21.481  0.00  0.00    +0.000 A 
ATOM     14  C   UNL     1      -0.223  10.045  22.463  0.00  0.00    +0.000 A 
ATOM     15  C   UNL     1       0.599   8.971  22.129  0.00  0.00    +0.000 A 
ATOM     16  C   UNL     1       1.013   8.787  20.808  0.00  0.00    +0.000 A 
ATOM     17  C   UNL     1       1.838   7.705  20.473  0.00  0.00    +0.000 A 
ATOM     18  C   UNL     1       2.271   7.520  19.153  0.00  0.00    +0.000 A 
ATOM     19  C   UNL     1       1.809   8.402  18.159  0.00  0.00    +0.000 A 
ATOM     20  C   UNL     1       0.994   9.487  18.483  0.00  0.00    +0.000 A 
ATOM     21  C   UNL     1       0.599   9.698  19.810  0.00  0.00    +0.000 A 
ATOM     22  C   UNL     1      -0.215  10.791  20.155  0.00  0.00    +0.000 A 
BRANCH  13  23
ATOM     23  O   UNL     1      -1.444  12.025  21.779  0.00  0.00    +0.000 OA
BRANCH  23  25
ATOM     24  C   UNL     1      -3.137  12.280  23.450  0.00  0.00    +0.000 C 
ATOM     25  C   UNL     1      -1.683  12.486  23.061  0.00  0.00    +0.000 C 
ENDBRANCH  23  25
ENDBRANCH  13  23
ENDBRANCH   1  18
BRANCH   3  26
ATOM     26  C   UNL     1       6.193   5.154  17.287  0.00  0.00    +0.000 C 
ATOM     27  C   UNL     1       7.328   4.721  18.237  0.00  0.00    +0.000 C 
ATOM     28  C   UNL     1       7.793   5.880  19.143  0.00  0.00    +0.000 C 
ATOM     29  N   UNL     1       8.214   7.045  18.346  0.00  0.00    +0.000 NA
ATOM     30  C   UNL     1       7.146   7.518  17.448  0.00  0.00    +0.000 C 
ATOM     31  C   UNL     1       6.667   6.396  16.507  0.00  0.00    +0.000 C 
ATOM     32  H   UNL     1       9.060   6.794  17.782  0.00  0.00    +0.000 HD
ENDBRANCH   3  26
TORSDOF 4
ENDMDL
MODEL 3
REMARK VINA RESULT:      -9.0      1.546      1.808
REMARK  Name = 
REMARK  5 active torsions:
REMARK  status: ('A' for Active; 'I' for Inactive)
REMARK    1  A    between atoms: C_1  and  C_2
REMARK    2  A    between atoms: C_2  and  O_3
REMARK    3  A    between atoms: O_3  and  C_4
REMARK    4  A    between atoms: C_9  and  C_10
REMARK    5  A    between atoms: N_12  and  C_13
REMARK                            x       y       z     vdW  Elec       q    Type
REMARK                         _______ _______ _______ _____ _____    ______ ____
ROOT
ATOM      1  C   UNL     1       3.425   6.435  18.157  0.00  0.00    +0.000 A 
ATOM      2  N   UNL     1       4.668   6.725  17.710  0.00  0.00    +0.000 NA
ATOM      3  N   UNL     1       5.320   5.599  17.456  0.00  0.00    +0.000 N 
ATOM      4  C   UNL     1       4.478   4.577  17.713  0.00  0.00    +0.000 A 
ATOM      5  N   UNL     1       4.745   3.253  17.579  0.00  0.00    +0.000 NA
ATOM      6  C   UNL     1       3.757   2.359  17.870  0.00  0.00    +0.000 A 
ATOM      7  N   UNL     1       2.521   2.793  18.253  0.00  0.00    +0.000 NA
ATOM      8  C   UNL     1       2.226   4.121  18.380  0.00  0.00    +0.000 A 
ATOM      9  N   UNL     1       0.885   4.484  18.661  0.00  0.00    +0.000 N 
ATOM     10  C   UNL     1       3.260   5.046  18.129  0.00  0.00    +0.000 A 
ATOM     11  H   UNL     1       0.191   3.754  18.882  0.00  0.00    +0.000 HD
ATOM     12  H   UNL     1       0.526   5.426  18.481  0.00  0.00    +0.000 HD
ENDROOT
BRANCH   1  18
ATOM     13  C   UNL     1      -0.491  10.547  21.364  0.00  0.00    +0.000 A 
ATOM     14  C   UNL     1      -0.006   9.547  22.232  0.00  0.00    +0.000 A 
ATOM     15  C   UNL     1       0.853   8.554  21.768  0.00  0.00    +0.000 A 
ATOM     16  C   UNL     1       1.235   8.527  20.424  0.00  0.00    +0.000 A 
ATOM     17  C   UNL     1       2.097   7.526  19.958  0.00  0.00    +0.000 A 
ATOM     18  C   UNL     1       2.499   7.500  18.615  0.00  0.00    +0.000 A 
ATOM     19  C   UNL     1       1.969   8.457  17.731  0.00  0.00    +0.000 A 
ATOM     20  C   UNL     1       1.116   9.463  18.187  0.00  0.00    +0.000 A 
ATOM     21  C   UNL     1       0.752   9.517  19.538  0.00  0.00    +0.000 A 
ATOM     22  C   UNL     1      -0.100  10.527  20.016  0.00  0.00    +0.000 A 
BRANCH  13  23
ATOM     23  O   UNL     1      -1.333  11.527  21.790  0.00  0.00    +0.000 OA
BRANCH  23  25
ATOM     24  C   UNL     1      -0.473  13.691  22.341  0.00  0.00    +0.000 C 
ATOM     25  C   UNL     1      -1.063  12.384  22.843  0.00  0.00    +0.000 C 
ENDBRANCH  23  25
ENDBRANCH  13  23
ENDBRANCH   1  18
BRANCH   3  26
ATOM     26  C   UNL     1       6.724   5.504  16.993  0.00  0.00    +0.000 C 
ATOM     27  C   UNL     1       7.639   4.842  18.044  0.00  0.00    +0.000 C 
ATOM     28  C   UNL     1       7.877   5.761  19.260  0.00  0.00    +0.000 C 
ATOM     29  N   UNL     1       8.435   7.061  18.846  0.00  0.00    +0.000 NA
ATOM     30  C   UNL     1       7.574   7.748  17.868  0.00  0.00    +0.000 C 
ATOM     31  C   UNL     1       7.329   6.873  16.625  0.00  0.00    +0.000 C 
ATOM     32  H   UNL     1       9.386   6.915  18.434  0.00  0.00    +0.000 HD
ENDBRANCH   3  26
TORSDOF 4
ENDMDL
MODEL 4
REMARK VINA RESULT:      -8.9      0.834      1.536
REMARK  Name = 
REMARK  5 active torsions:
REMARK  status: ('A' for Active; 'I' for Inactive)
REMARK    1  A    between atoms: C_1  and  C_2
REMARK    2  A    between atoms: C_2  and  O_3
REMARK    3  A    between atoms: O_3  and  C_4
REMARK    4  A    between atoms: C_9  and  C_10
REMARK    5  A    between atoms: N_12  and  C_13
REMARK                            x       y       z     vdW  Elec       q    Type
REMARK                         _______ _______ _______ _____ _____    ______ ____
ROOT
ATOM      1  C   UNL     1       3.421   5.625  19.149  0.00  0.00    +0.000 A 
ATOM      2  N   UNL     1       4.711   5.835  18.801  0.00  0.00    +0.000 NA
ATOM      3  N   UNL     1       5.300   4.670  18.568  0.00  0.00    +0.000 N 
ATOM      4  C   UNL     1       4.372   3.705  18.738  0.00  0.00    +0.000 A 
ATOM      5  N   UNL     1       4.555   2.369  18.591  0.00  0.00    +0.000 NA
ATOM      6  C   UNL     1       3.488   1.542  18.787  0.00  0.00    +0.000 A 
ATOM      7  N   UNL     1       2.261   2.055  19.090  0.00  0.00    +0.000 NA
ATOM      8  C   UNL     1       2.051   3.398  19.228  0.00  0.00    +0.000 A 
ATOM      9  N   UNL     1       0.720   3.850  19.418  0.00  0.00    +0.000 N 
ATOM     10  C   UNL     1       3.162   4.252  19.075  0.00  0.00    +0.000 A 
ATOM     11  H   UNL     1      -0.037   3.168  19.570  0.00  0.00    +0.000 HD
ATOM     12  H   UNL     1       0.442   4.819  19.236  0.00  0.00    +0.000 HD
ENDROOT
BRANCH   1  18
ATOM     13  C   UNL     1      -0.183  11.025  19.761  0.00  0.00    +0.000 A 
ATOM     14  C   UNL     1       0.484  11.014  18.518  0.00  0.00    +0.000 A 
ATOM     15  C   UNL     1       1.315   9.953  18.164  0.00  0.00    +0.000 A 
ATOM     16  C   UNL     1       1.511   8.889  19.047  0.00  0.00    +0.000 A 
ATOM     17  C   UNL     1       2.349   7.824  18.691  0.00  0.00    +0.000 A 
ATOM     18  C   UNL     1       2.540   6.744  19.564  0.00  0.00    +0.000 A 
ATOM     19  C   UNL     1       1.927   6.781  20.830  0.00  0.00    +0.000 A 
ATOM     20  C   UNL     1       1.084   7.832  21.191  0.00  0.00    +0.000 A 
ATOM     21  C   UNL     1       0.857   8.888  20.301  0.00  0.00    +0.000 A 
ATOM     22  C   UNL     1       0.005   9.952  20.645  0.00  0.00    +0.000 A 
BRANCH  13  23
ATOM     23  O   UNL     1      -0.998  12.050  20.133  0.00  0.00    +0.000 OA
BRANCH  23  25
ATOM     24  C   UNL     1      -3.219  12.794  20.618  0.00  0.00    +0.000 C 
ATOM     25  C   UNL     1      -2.235  12.306  19.569  0.00  0.00    +0.000 C 
ENDBRANCH  23  25
ENDBRANCH  13  23
ENDBRANCH   1  18
BRANCH   3  26
ATOM     26  C   UNL     1       6.725   4.483  18.206  0.00  0.00    +0.000 C 
ATOM     27  C   UNL     1       7.607   5.647  18.703  0.00  0.00    +0.000 C 
ATOM     28  C   UNL     1       7.352   6.943  17.906  0.00  0.00    +0.000 C 
ATOM     29  N   UNL     1       7.555   6.730  16.462  0.00  0.00    +0.000 NA
ATOM     30  C   UNL     1       6.703   5.651  15.934  0.00  0.00    +0.000 C 
ATOM     31  C   UNL     1       6.943   4.329  16.688  0.00  0.00    +0.000 C 
ATOM     32  H   UNL     1       8.561   6.503  16.282  0.00  0.00    +0.000 HD
ENDBRANCH   3  26
TORSDOF 4
ENDMDL
MODEL 5
REMARK VINA RESULT:      -8.9      1.180      1.886
REMARK  Name = 
REMARK  5 active torsions:
REMARK  status: ('A' for Active; 'I' for Inactive)
REMARK    1  A    between atoms: C_1  and  C_2
REMARK    2  A    between atoms: C_2  and  O_3
REMARK    3  A    between atoms: O_3  and  C_4
REMARK    4  A    between atoms: C_9  and  C_10
REMARK    5  A    between atoms: N_12  and  C_13
REMARK                            x       y       z     vdW  Elec       q    Type
REMARK                         _______ _______ _______ _____ _____    ______ ____
ROOT
ATOM      1  C   UNL     1       3.008   5.985  18.934  0.00  0.00    +0.000 A 
ATOM      2  N   UNL     1       4.114   6.242  18.200  0.00  0.00    +0.000 NA
ATOM      3  N   UNL     1       4.689   5.099  17.852  0.00  0.00    +0.000 N 
ATOM      4  C   UNL     1       3.928   4.098  18.340  0.00  0.00    +0.000 A 
ATOM      5  N   UNL     1       4.155   2.767  18.206  0.00  0.00    +0.000 NA
ATOM      6  C   UNL     1       3.260   1.896  18.756  0.00  0.00    +0.000 A 
ATOM      7  N   UNL     1       2.147   2.360  19.395  0.00  0.00    +0.000 NA
ATOM      8  C   UNL     1       1.891   3.695  19.529  0.00  0.00    +0.000 A 
ATOM      9  N   UNL     1       0.651   4.084  20.095  0.00  0.00    +0.000 N 
ATOM     10  C   UNL     1       2.840   4.598  19.005  0.00  0.00    +0.000 A 
ATOM     11  H   UNL     1       0.026   3.372  20.502  0.00  0.00    +0.000 HD
ATOM     12  H   UNL     1       0.261   5.022  19.963  0.00  0.00    +0.000 HD
ENDROOT
BRANCH   1  18
ATOM     13  C   UNL     1      -0.364  11.363  20.428  0.00  0.00    +0.000 A 
ATOM     14  C   UNL     1       0.136  11.442  19.111  0.00  0.00    +0.000 A 
ATOM     15  C   UNL     1       0.889  10.403  18.571  0.00  0.00    +0.000 A 
ATOM     16  C   UNL     1       1.174   9.270  19.336  0.00  0.00    +0.000 A 
ATOM     17  C   UNL     1       1.935   8.226  18.792  0.00  0.00    +0.000 A 
ATOM     18  C   UNL     1       2.214   7.078  19.546  0.00  0.00    +0.000 A 
ATOM     19  C   UNL     1       1.772   7.022  20.881  0.00  0.00    +0.000 A 
ATOM     20  C   UNL     1       1.007   8.051  21.430  0.00  0.00    +0.000 A 
ATOM     21  C   UNL     1       0.690   9.178  20.661  0.00  0.00    +0.000 A 
ATOM     22  C   UNL     1      -0.086  10.220  21.195  0.00  0.00    +0.000 A 
BRANCH  13  23
ATOM     23  O   UNL     1      -1.100  12.365  20.982  0.00  0.00    +0.000 OA
BRANCH  23  25
ATOM     24  C   UNL     1      -2.670  12.362  22.788  0.00  0.00    +0.000 C 
ATOM     25  C   UNL     1      -1.232  12.573  22.344  0.00  0.00    +0.000 C 
ENDBRANCH  23  25
ENDBRANCH  13  23
ENDBRANCH   1  18
BRANCH   3  26
ATOM     26  C   UNL     1       5.948   4.969  17.082  0.00  0.00    +0.000 C 
ATOM     27  C   UNL     1       7.138   4.570  17.978  0.00  0.00    +0.000 C 
ATOM     28  C   UNL     1       7.573   5.724  18.904  0.00  0.00    +0.000 C 
ATOM     29  N   UNL     1       7.901   6.935  18.131  0.00  0.00    +0.000 NA
ATOM     30  C   UNL     1       6.778   7.376  17.287  0.00  0.00    +0.000 C 
ATOM     31  C   UNL     1       6.326   6.259  16.327  0.00  0.00    +0.000 C 
ATOM     32  H   UNL     1       8.739   6.748  17.531  0.00  0.00    +0.000 HD
ENDBRANCH   3  26
TORSDOF 4
ENDMDL
MODEL 6
REMARK VINA RESULT:      -8.5      1.327      3.853
REMARK  Name = 
REMARK  5 active torsions:
REMARK  status: ('A' for Active; 'I' for Inactive)
REMARK    1  A    between atoms: C_1  and  C_2
REMARK    2  A    between atoms: C_2  and  O_3
REMARK    3  A    between atoms: O_3  and  C_4
REMARK    4  A    between atoms: C_9  and  C_10
REMARK    5  A    between atoms: N_12  and  C_13
REMARK                            x       y       z     vdW  Elec       q    Type
REMARK                         _______ _______ _______ _____ _____    ______ ____
ROOT
ATOM      1  C   UNL     1       3.603   6.156  18.894  0.00  0.00    +0.000 A 
ATOM      2  N   UNL     1       3.179   5.031  19.513  0.00  0.00    +0.000 NA
ATOM      3  N   UNL     1       4.075   4.068  19.342  0.00  0.00    +0.000 N 
ATOM      4  C   UNL     1       5.098   4.589  18.634  0.00  0.00    +0.000 A 
ATOM      5  N   UNL     1       6.227   3.944  18.247  0.00  0.00    +0.000 NA
ATOM      6  C   UNL     1       7.167   4.642  17.547  0.00  0.00    +0.000 A 
ATOM      7  N   UNL     1       6.986   5.967  17.278  0.00  0.00    +0.000 NA
ATOM      8  C   UNL     1       5.864   6.641  17.672  0.00  0.00    +0.000 A 
ATOM      9  N   UNL     1       5.817   8.042  17.460  0.00  0.00    +0.000 N 
ATOM     10  C   UNL     1       4.868   5.909  18.350  0.00  0.00    +0.000 A 
ATOM     11  H   UNL     1       6.559   8.504  16.913  0.00  0.00    +0.000 HD
ATOM     12  H   UNL     1       5.173   8.650  17.974  0.00  0.00    +0.000 HD
ENDROOT
BRANCH   1  18
ATOM     13  C   UNL     1      -0.387  11.216  19.899  0.00  0.00    +0.000 A 
ATOM     14  C   UNL     1      -0.314  10.406  21.052  0.00  0.00    +0.000 A 
ATOM     15  C   UNL     1       0.481   9.263  21.072  0.00  0.00    +0.000 A 
ATOM     16  C   UNL     1       1.210   8.894  19.939  0.00  0.00    +0.000 A 
ATOM     17  C   UNL     1       2.008   7.743  19.960  0.00  0.00    +0.000 A 
ATOM     18  C   UNL     1       2.756   7.372  18.833  0.00  0.00    +0.000 A 
ATOM     19  C   UNL     1       2.638   8.141  17.661  0.00  0.00    +0.000 A 
ATOM     20  C   UNL     1       1.853   9.294  17.632  0.00  0.00    +0.000 A 
ATOM     21  C   UNL     1       1.143   9.689  18.772  0.00  0.00    +0.000 A 
ATOM     22  C   UNL     1       0.353  10.852  18.763  0.00  0.00    +0.000 A 
BRANCH  13  23
ATOM     23  O   UNL     1      -1.158  12.336  19.851  0.00  0.00    +0.000 OA
BRANCH  23  25
ATOM     24  C   UNL     1      -3.235  11.820  18.782  0.00  0.00    +0.000 C 
ATOM     25  C   UNL     1      -2.531  12.345  20.022  0.00  0.00    +0.000 C 
ENDBRANCH  23  25
ENDBRANCH  13  23
ENDBRANCH   1  18
BRANCH   3  26
ATOM     26  C   UNL     1       3.946   2.677  19.833  0.00  0.00    +0.000 C 
ATOM     27  C   UNL     1       3.764   1.668  18.680  0.00  0.00    +0.000 C 
ATOM     28  C   UNL     1       2.375   1.792  18.021  0.00  0.00    +0.000 C 
ATOM     29  N   UNL     1       1.297   1.630  19.014  0.00  0.00    +0.000 NA
ATOM     30  C   UNL     1       1.408   2.599  20.117  0.00  0.00    +0.000 C 
ATOM     31  C   UNL     1       2.775   2.494  20.819  0.00  0.00    +0.000 C 
ATOM     32  H   UNL     1       1.322   0.656  19.398  0.00  0.00    +0.000 HD
ENDBRANCH   3  26
TORSDOF 4
ENDMDL
MODEL 7
REMARK VINA RESULT:      -8.3      1.627      4.062
REMARK  Name = 
REMARK  5 active torsions:
REMARK  status: ('A' for Active; 'I' for Inactive)
REMARK    1  A    between atoms: C_1  and  C_2
REMARK    2  A    between atoms: C_2  and  O_3
REMARK    3  A    between atoms: O_3  and  C_4
REMARK    4  A    between atoms: C_9  and  C_10
REMARK    5  A    between atoms: N_12  and  C_13
REMARK                            x       y       z     vdW  Elec       q    Type
REMARK                         _______ _______ _______ _____ _____    ______ ____
ROOT
ATOM      1  C   UNL     1       3.546   6.125  18.151  0.00  0.00    +0.000 A 
ATOM      2  N   UNL     1       3.096   4.895  18.487  0.00  0.00    +0.000 NA
ATOM      3  N   UNL     1       3.915   3.975  17.995  0.00  0.00    +0.000 N 
ATOM      4  C   UNL     1       4.918   4.621  17.365  0.00  0.00    +0.000 A 
ATOM      5  N   UNL     1       5.974   4.055  16.729  0.00  0.00    +0.000 NA
ATOM      6  C   UNL     1       6.906   4.875  16.161  0.00  0.00    +0.000 A 
ATOM      7  N   UNL     1       6.790   6.230  16.264  0.00  0.00    +0.000 NA
ATOM      8  C   UNL     1       5.743   6.821  16.914  0.00  0.00    +0.000 A 
ATOM      9  N   UNL     1       5.770   8.229  17.081  0.00  0.00    +0.000 N 
ATOM     10  C   UNL     1       4.753   5.978  17.458  0.00  0.00    +0.000 A 
ATOM     11  H   UNL     1       6.500   8.788  16.615  0.00  0.00    +0.000 HD
ATOM     12  H   UNL     1       5.203   8.705  17.790  0.00  0.00    +0.000 HD
ENDROOT
BRANCH   1  18
ATOM     13  C   UNL     1       0.053  10.946  20.813  0.00  0.00    +0.000 A 
ATOM     14  C   UNL     1       0.233   9.896  21.738  0.00  0.00    +0.000 A 
ATOM     15  C   UNL     1       0.951   8.755  21.390  0.00  0.00    +0.000 A 
ATOM     16  C   UNL     1       1.494   8.628  20.109  0.00  0.00    +0.000 A 
ATOM     17  C   UNL     1       2.214   7.478  19.761  0.00  0.00    +0.000 A 
ATOM     18  C   UNL     1       2.776   7.349  18.482  0.00  0.00    +0.000 A 
ATOM     19  C   UNL     1       2.546   8.364  17.536  0.00  0.00    +0.000 A 
ATOM     20  C   UNL     1       1.837   9.517  17.876  0.00  0.00    +0.000 A 
ATOM     21  C   UNL     1       1.316   9.667  19.167  0.00  0.00    +0.000 A 
ATOM     22  C   UNL     1       0.606  10.824  19.528  0.00  0.00    +0.000 A 
BRANCH  13  23
ATOM     23  O   UNL     1      -0.647  12.071  21.125  0.00  0.00    +0.000 OA
BRANCH  23  25
ATOM     24  C   UNL     1      -2.289  12.484  22.814  0.00  0.00    +0.000 C 
ATOM     25  C   UNL     1      -0.826  12.546  22.412  0.00  0.00    +0.000 C 
ENDBRANCH  23  25
ENDBRANCH  13  23
ENDBRANCH   1  18
BRANCH   3  26
ATOM     26  C   UNL     1       3.733   2.510  18.113  0.00  0.00    +0.000 C 
ATOM     27  C   UNL     1       2.307   2.068  17.723  0.00  0.00    +0.000 C 
ATOM     28  C   UNL     1       1.265   2.498  18.775  0.00  0.00    +0.000 C 
ATOM     29  N   UNL     1       1.611   1.982  20.112  0.00  0.00    +0.000 NA
ATOM     30  C   UNL     1       2.952   2.410  20.543  0.00  0.00    +0.000 C 
ATOM     31  C   UNL     1       4.030   1.980  19.530  0.00  0.00    +0.000 C 
ATOM     32  H   UNL     1       1.562   0.936  20.103  0.00  0.00    +0.000 HD
ENDBRANCH   3  26
TORSDOF 4
ENDMDL
MODEL 8
REMARK VINA RESULT:      -8.2      1.226      1.267
REMARK  Name = 
REMARK  5 active torsions:
REMARK  status: ('A' for Active; 'I' for Inactive)
REMARK    1  A    between atoms: C_1  and  C_2
REMARK    2  A    between atoms: C_2  and  O_3
REMARK    3  A    between atoms: O_3  and  C_4
REMARK    4  A    between atoms: C_9  and  C_10
REMARK    5  A    between atoms: N_12  and  C_13
REMARK                            x       y       z     vdW  Elec       q    Type
REMARK                         _______ _______ _______ _____ _____    ______ ____
ROOT
ATOM      1  C   UNL     1       3.381   6.061  18.510  0.00  0.00    +0.000 A 
ATOM      2  N   UNL     1       4.725   6.197  18.458  0.00  0.00    +0.000 NA
ATOM      3  N   UNL     1       5.282   5.011  18.257  0.00  0.00    +0.000 N 
ATOM      4  C   UNL     1       4.285   4.109  18.146  0.00  0.00    +0.000 A 
ATOM      5  N   UNL     1       4.417   2.777  17.928  0.00  0.00    +0.000 NA
ATOM      6  C   UNL     1       3.286   2.020  17.826  0.00  0.00    +0.000 A 
ATOM      7  N   UNL     1       2.055   2.601  17.907  0.00  0.00    +0.000 NA
ATOM      8  C   UNL     1       1.898   3.943  18.112  0.00  0.00    +0.000 A 
ATOM      9  N   UNL     1       0.587   4.479  18.057  0.00  0.00    +0.000 N 
ATOM     10  C   UNL     1       3.064   4.720  18.268  0.00  0.00    +0.000 A 
ATOM     11  H   UNL     1      -0.224   3.846  17.989  0.00  0.00    +0.000 HD
ATOM     12  H   UNL     1       0.411   5.476  17.903  0.00  0.00    +0.000 HD
ENDROOT
BRANCH   1  18
ATOM     13  C   UNL     1      -0.435  10.650  21.138  0.00  0.00    +0.000 A 
ATOM     14  C   UNL     1      -0.051   9.707  22.115  0.00  0.00    +0.000 A 
ATOM     15  C   UNL     1       0.769   8.632  21.783  0.00  0.00    +0.000 A 
ATOM     16  C   UNL     1       1.212   8.464  20.469  0.00  0.00    +0.000 A 
ATOM     17  C   UNL     1       2.035   7.380  20.137  0.00  0.00    +0.000 A 
ATOM     18  C   UNL     1       2.498   7.211  18.824  0.00  0.00    +0.000 A 
ATOM     19  C   UNL     1       2.066   8.112  17.834  0.00  0.00    +0.000 A 
ATOM     20  C   UNL     1       1.254   9.200  18.156  0.00  0.00    +0.000 A 
ATOM     21  C   UNL     1       0.830   9.394  19.476  0.00  0.00    +0.000 A 
ATOM     22  C   UNL     1       0.017  10.488  19.819  0.00  0.00    +0.000 A 
BRANCH  13  23
ATOM     23  O   UNL     1      -1.238  11.709  21.433  0.00  0.00    +0.000 OA
BRANCH  23  25
ATOM     24  C   UNL     1      -1.036  14.088  21.573  0.00  0.00    +0.000 C 
ATOM     25  C   UNL     1      -1.291  12.877  20.693  0.00  0.00    +0.000 C 
ENDBRANCH  23  25
ENDBRANCH  13  23
ENDBRANCH   1  18
BRANCH   3  26
ATOM     26  C   UNL     1       6.737   4.744  18.187  0.00  0.00    +0.000 C 
ATOM     27  C   UNL     1       7.571   5.921  18.736  0.00  0.00    +0.000 C 
ATOM     28  C   UNL     1       7.532   7.142  17.795  0.00  0.00    +0.000 C 
ATOM     29  N   UNL     1       7.986   6.786  16.439  0.00  0.00    +0.000 NA
ATOM     30  C   UNL     1       7.193   5.689  15.857  0.00  0.00    +0.000 C 
ATOM     31  C   UNL     1       7.224   4.438  16.756  0.00  0.00    +0.000 C 
ATOM     32  H   UNL     1       8.996   6.509  16.472  0.00  0.00    +0.000 HD
ENDBRANCH   3  26
TORSDOF 4
ENDMDL
