MODEL 1
REMARK VINA RESULT:      -7.0      0.000      0.000
REMARK  Name = 
REMARK  8 active torsions:
REMARK  status: ('A' for Active; 'I' for Inactive)
REMARK    1  A    between atoms: CD1_1  and  CG1_2
REMARK    2  A    between atoms: CG1_2  and  CB_3
REMARK    3  A    between atoms: CB_3  and  CG2_4
REMARK    4  A    between atoms: CB_3  and  CA_5
REMARK    5  A    between atoms: CA_5  and  N_6
REMARK    6  A    between atoms: CA_5  and  C_16
REMARK    7  A    between atoms: C_12  and  C_13
REMARK    8  A    between atoms: C_16  and  OXT_18
REMARK                            x       y       z     vdW  Elec       q    Type
REMARK                         _______ _______ _______ _____ _____    ______ ____
ROOT
ATOM      1  N   ILE A   1       3.660   4.504  18.929  0.00  0.00    +0.000 N 
ATOM      2  C   UNK A   0       4.994   4.269  19.086  0.00  0.00    +0.000 C 
ATOM      3  O   UNK A   0       5.417   3.257  19.637  0.00  0.00    +0.000 OA
ATOM      4  N   UNK A   0       5.802   5.255  18.538  0.00  0.00    +0.000 N 
ATOM      5  C   UNK A   0       7.248   5.114  18.683  0.00  0.00    +0.000 C 
ATOM      6  C   UNK A   0       7.940   6.475  18.704  0.00  0.00    +0.000 C 
ATOM      7  C   UNK A   0       7.526   7.355  17.514  0.00  0.00    +0.000 C 
ATOM      8  C   UNK A   0       8.110   8.759  17.640  0.00  0.00    +0.000 C 
ATOM      9  C   UNK A   0       6.000   7.432  17.409  0.00  0.00    +0.000 C 
ATOM     10  C   UNK A   0       5.381   6.046  17.380  0.00  0.00    +0.000 C 
ATOM     11  H   ILE A   1       3.359   5.469  18.897  0.00  0.00    +0.000 HD
ENDROOT
BRANCH   1  12
ATOM     12  CA  ILE A   1       2.635   3.506  19.164  0.00  0.00    +0.000 C 
BRANCH  12  13
ATOM     13  CB  ILE A   1       1.606   3.932  20.234  0.00  0.00    +0.000 C 
ATOM     14  CG2 ILE A   1       1.214   2.800  21.197  0.00  0.00    +0.000 C 
BRANCH  13  16
ATOM     15  CD1 ILE A   1       1.380   6.460  20.649  0.00  0.00    +0.000 C 
ATOM     16  CG1 ILE A   1       2.058   5.158  21.054  0.00  0.00    +0.000 C 
ENDBRANCH  13  16
ENDBRANCH  12  13
BRANCH  12  17
ATOM     17  C   ILE A   1       2.026   3.231  17.782  0.00  0.00    +0.000 C 
ATOM     18  O   ILE A   1       2.233   2.212  17.131  0.00  0.00    +0.000 OA
BRANCH  17  19
ATOM     19  OXT ILE A   1       1.143   4.167  17.367  0.00  0.00    +0.000 OA
ATOM     20  HXT ILE A   1       1.359   4.562  16.500  0.00  0.00    +0.000 HD
ENDBRANCH  17  19
ENDBRANCH  12  17
ENDBRANCH   1  12
TORSDOF 5
ENDMDL
MODEL 2
REMARK VINA RESULT:      -6.8      2.131      5.939
REMARK  Name = 
REMARK  8 active torsions:
REMARK  status: ('A' for Active; 'I' for Inactive)
REMARK    1  A    between atoms: CD1_1  and  CG1_2
REMARK    2  A    between atoms: CG1_2  and  CB_3
REMARK    3  A    between atoms: CB_3  and  CG2_4
REMARK    4  A    between atoms: CB_3  and  CA_5
REMARK    5  A    between atoms: CA_5  and  N_6
REMARK    6  A    between atoms: CA_5  and  C_16
REMARK    7  A    between atoms: C_12  and  C_13
REMARK    8  A    between atoms: C_16  and  OXT_18
REMARK                            x       y       z     vdW  Elec       q    Type
REMARK                         _______ _______ _______ _____ _____    ______ ____
ROOT
ATOM      1  N   ILE A   1       5.052   4.968  17.490  0.00  0.00    +0.000 N 
ATOM      2  C   UNK A   0       4.021   5.655  18.060  0.00  0.00    +0.000 C 
ATOM      3  O   UNK A   0       3.855   6.856  17.871  0.00  0.00    +0.000 OA
ATOM      4  N   UNK A   0       3.180   4.862  18.827  0.00  0.00    +0.000 N 
ATOM      5  C   UNK A   0       2.063   5.510  19.509  0.00  0.00    +0.000 C 
ATOM      6  C   UNK A   0       1.686   4.765  20.788  0.00  0.00    +0.000 C 
ATOM      7  C   UNK A   0       1.467   3.264  20.542  0.00  0.00    +0.000 C 
ATOM      8  C   UNK A   0       1.242   2.520  21.855  0.00  0.00    +0.000 C 
ATOM      9  C   UNK A   0       2.664   2.661  19.799  0.00  0.00    +0.000 C 
ATOM     10  C   UNK A   0       2.974   3.442  18.534  0.00  0.00    +0.000 C 
ATOM     11  H   ILE A   1       5.404   4.161  17.988  0.00  0.00    +0.000 HD
ENDROOT
BRANCH   1  12
ATOM     12  CA  ILE A   1       5.893   5.507  16.437  0.00  0.00    +0.000 C 
BRANCH  12  13
ATOM     13  CB  ILE A   1       7.284   5.951  16.939  0.00  0.00    +0.000 C 
ATOM     14  CG2 ILE A   1       7.348   7.430  17.350  0.00  0.00    +0.000 C 
BRANCH  13  16
ATOM     15  CD1 ILE A   1       7.903   5.810  19.432  0.00  0.00    +0.000 C 
ATOM     16  CG1 ILE A   1       7.816   5.082  18.098  0.00  0.00    +0.000 C 
ENDBRANCH  13  16
ENDBRANCH  12  13
BRANCH  12  17
ATOM     17  C   ILE A   1       5.933   4.412  15.363  0.00  0.00    +0.000 C 
ATOM     18  O   ILE A   1       6.117   4.626  14.170  0.00  0.00    +0.000 OA
BRANCH  17  19
ATOM     19  OXT ILE A   1       5.850   3.152  15.849  0.00  0.00    +0.000 OA
ATOM     20  HXT ILE A   1       5.836   2.459  15.161  0.00  0.00    +0.000 HD
ENDBRANCH  17  19
ENDBRANCH  12  17
ENDBRANCH   1  12
TORSDOF 5
ENDMDL
MODEL 3
REMARK VINA RESULT:      -6.6      0.836      1.406
REMARK  Name = 
REMARK  8 active torsions:
REMARK  status: ('A' for Active; 'I' for Inactive)
REMARK    1  A    between atoms: CD1_1  and  CG1_2
REMARK    2  A    between atoms: CG1_2  and  CB_3
REMARK    3  A    between atoms: CB_3  and  CG2_4
REMARK    4  A    between atoms: CB_3  and  CA_5
REMARK    5  A    between atoms: CA_5  and  N_6
REMARK    6  A    between atoms: CA_5  and  C_16
REMARK    7  A    between atoms: C_12  and  C_13
REMARK    8  A    between atoms: C_16  and  OXT_18
REMARK                            x       y       z     vdW  Elec       q    Type
REMARK                         _______ _______ _______ _____ _____    ______ ____
ROOT
ATOM      1  N   ILE A   1       3.664   4.413  18.827  0.00  0.00    +0.000 N 
ATOM      2  C   UNK A   0       4.995   4.211  19.044  0.00  0.00    +0.000 C 
ATOM      3  O   UNK A   0       5.416   3.219  19.629  0.00  0.00    +0.000 OA
ATOM      4  N   UNK A   0       5.803   5.205  18.512  0.00  0.00    +0.000 N 
ATOM      5  C   UNK A   0       7.246   5.099  18.719  0.00  0.00    +0.000 C 
ATOM      6  C   UNK A   0       7.906   6.475  18.744  0.00  0.00    +0.000 C 
ATOM      7  C   UNK A   0       7.523   7.325  17.522  0.00  0.00    +0.000 C 
ATOM      8  C   UNK A   0       8.072   8.743  17.646  0.00  0.00    +0.000 C 
ATOM      9  C   UNK A   0       6.001   7.366  17.352  0.00  0.00    +0.000 C 
ATOM     10  C   UNK A   0       5.414   5.966  17.322  0.00  0.00    +0.000 C 
ATOM     11  H   ILE A   1       3.344   5.371  18.765  0.00  0.00    +0.000 HD
ENDROOT
BRANCH   1  12
ATOM     12  CA  ILE A   1       2.651   3.396  19.038  0.00  0.00    +0.000 C 
BRANCH  12  13
ATOM     13  CB  ILE A   1       1.509   3.860  19.968  0.00  0.00    +0.000 C 
ATOM     14  CG2 ILE A   1       0.159   3.192  19.665  0.00  0.00    +0.000 C 
BRANCH  13  16
ATOM     15  CD1 ILE A   1       2.662   2.441  21.777  0.00  0.00    +0.000 C 
ATOM     16  CG1 ILE A   1       1.836   3.682  21.465  0.00  0.00    +0.000 C 
ENDBRANCH  13  16
ENDBRANCH  12  13
BRANCH  12  17
ATOM     17  C   ILE A   1       2.192   2.998  17.629  0.00  0.00    +0.000 C 
ATOM     18  O   ILE A   1       1.898   3.801  16.749  0.00  0.00    +0.000 OA
BRANCH  17  19
ATOM     19  OXT ILE A   1       2.232   1.668  17.385  0.00  0.00    +0.000 OA
ATOM     20  HXT ILE A   1       1.974   1.115  18.148  0.00  0.00    +0.000 HD
ENDBRANCH  17  19
ENDBRANCH  12  17
ENDBRANCH   1  12
TORSDOF 5
ENDMDL
MODEL 4
REMARK VINA RESULT:      -6.6      2.170      6.082
REMARK  Name = 
REMARK  8 active torsions:
REMARK  status: ('A' for Active; 'I' for Inactive)
REMARK    1  A    between atoms: CD1_1  and  CG1_2
REMARK    2  A    between atoms: CG1_2  and  CB_3
REMARK    3  A    between atoms: CB_3  and  CG2_4
REMARK    4  A    between atoms: CB_3  and  CA_5
REMARK    5  A    between atoms: CA_5  and  N_6
REMARK    6  A    between atoms: CA_5  and  C_16
REMARK    7  A    between atoms: C_12  and  C_13
REMARK    8  A    between atoms: C_16  and  OXT_18
REMARK                            x       y       z     vdW  Elec       q    Type
REMARK                         _______ _______ _______ _____ _____    ______ ____
ROOT
ATOM      1  N   ILE A   1       5.251   5.778  17.744  0.00  0.00    +0.000 N 
ATOM      2  C   UNK A   0       4.022   6.227  18.127  0.00  0.00    +0.000 C 
ATOM      3  O   UNK A   0       3.628   7.357  17.856  0.00  0.00    +0.000 OA
ATOM      4  N   UNK A   0       3.270   5.280  18.807  0.00  0.00    +0.000 N 
ATOM      5  C   UNK A   0       1.950   5.673  19.291  0.00  0.00    +0.000 C 
ATOM      6  C   UNK A   0       1.558   4.886  20.540  0.00  0.00    +0.000 C 
ATOM      7  C   UNK A   0       1.712   3.370  20.342  0.00  0.00    +0.000 C 
ATOM      8  C   UNK A   0       1.462   2.618  21.646  0.00  0.00    +0.000 C 
ATOM      9  C   UNK A   0       3.108   3.037  19.807  0.00  0.00    +0.000 C 
ATOM     10  C   UNK A   0       3.425   3.845  18.560  0.00  0.00    +0.000 C 
ATOM     11  H   ILE A   1       5.693   5.079  18.326  0.00  0.00    +0.000 HD
ENDROOT
BRANCH   1  12
ATOM     12  CA  ILE A   1       6.101   6.472  16.795  0.00  0.00    +0.000 C 
BRANCH  12  13
ATOM     13  CB  ILE A   1       7.459   6.898  17.394  0.00  0.00    +0.000 C 
ATOM     14  CG2 ILE A   1       7.607   8.418  17.565  0.00  0.00    +0.000 C 
BRANCH  13  16
ATOM     15  CD1 ILE A   1       8.169   4.742  18.604  0.00  0.00    +0.000 C 
ATOM     16  CG1 ILE A   1       7.772   6.206  18.737  0.00  0.00    +0.000 C 
ENDBRANCH  13  16
ENDBRANCH  12  13
BRANCH  12  17
ATOM     17  C   ILE A   1       6.215   5.520  15.596  0.00  0.00    +0.000 C 
ATOM     18  O   ILE A   1       5.273   4.887  15.130  0.00  0.00    +0.000 OA
BRANCH  17  19
ATOM     19  OXT ILE A   1       7.434   5.506  15.010  0.00  0.00    +0.000 OA
ATOM     20  HXT ILE A   1       8.063   4.877  15.414  0.00  0.00    +0.000 HD
ENDBRANCH  17  19
ENDBRANCH  12  17
ENDBRANCH   1  12
TORSDOF 5
ENDMDL
MODEL 5
REMARK VINA RESULT:      -6.5      2.561      6.179
REMARK  Name = 
REMARK  8 active torsions:
REMARK  status: ('A' for Active; 'I' for Inactive)
REMARK    1  A    between atoms: CD1_1  and  CG1_2
REMARK    2  A    between atoms: CG1_2  and  CB_3
REMARK    3  A    between atoms: CB_3  and  CG2_4
REMARK    4  A    between atoms: CB_3  and  CA_5
REMARK    5  A    between atoms: CA_5  and  N_6
REMARK    6  A    between atoms: CA_5  and  C_16
REMARK    7  A    between atoms: C_12  and  C_13
REMARK    8  A    between atoms: C_16  and  OXT_18
REMARK                            x       y       z     vdW  Elec       q    Type
REMARK                         _______ _______ _______ _____ _____    ______ ____
ROOT
ATOM      1  N   ILE A   1       5.359   5.063  16.788  0.00  0.00    +0.000 N 
ATOM      2  C   UNK A   0       4.254   5.661  17.316  0.00  0.00    +0.000 C 
ATOM      3  O   UNK A   0       4.168   6.879  17.438  0.00  0.00    +0.000 OA
ATOM      4  N   UNK A   0       3.248   4.770  17.658  0.00  0.00    +0.000 N 
ATOM      5  C   UNK A   0       2.033   5.308  18.265  0.00  0.00    +0.000 C 
ATOM      6  C   UNK A   0       1.375   4.287  19.191  0.00  0.00    +0.000 C 
ATOM      7  C   UNK A   0       1.167   2.929  18.503  0.00  0.00    +0.000 C 
ATOM      8  C   UNK A   0       0.650   1.888  19.491  0.00  0.00    +0.000 C 
ATOM      9  C   UNK A   0       2.473   2.443  17.867  0.00  0.00    +0.000 C 
ATOM     10  C   UNK A   0       3.064   3.501  16.951  0.00  0.00    +0.000 C 
ATOM     11  H   ILE A   1       5.575   4.126  17.101  0.00  0.00    +0.000 HD
ENDROOT
BRANCH   1  12
ATOM     12  CA  ILE A   1       6.417   5.785  16.107  0.00  0.00    +0.000 C 
BRANCH  12  13
ATOM     13  CB  ILE A   1       7.608   6.129  17.028  0.00  0.00    +0.000 C 
ATOM     14  CG2 ILE A   1       7.570   7.564  17.575  0.00  0.00    +0.000 C 
BRANCH  13  16
ATOM     15  CD1 ILE A   1       7.813   5.811  19.572  0.00  0.00    +0.000 C 
ATOM     16  CG1 ILE A   1       7.768   5.144  18.204  0.00  0.00    +0.000 C 
ENDBRANCH  13  16
ENDBRANCH  12  13
BRANCH  12  17
ATOM     17  C   ILE A   1       6.786   4.906  14.904  0.00  0.00    +0.000 C 
ATOM     18  O   ILE A   1       6.202   3.869  14.606  0.00  0.00    +0.000 OA
BRANCH  17  19
ATOM     19  OXT ILE A   1       7.760   5.419  14.117  0.00  0.00    +0.000 OA
ATOM     20  HXT ILE A   1       8.605   4.931  14.158  0.00  0.00    +0.000 HD
ENDBRANCH  17  19
ENDBRANCH  12  17
ENDBRANCH   1  12
TORSDOF 5
ENDMDL
MODEL 6
REMARK VINA RESULT:      -6.5      1.897      6.218
REMARK  Name = 
REMARK  8 active torsions:
REMARK  status: ('A' for Active; 'I' for Inactive)
REMARK    1  A    between atoms: CD1_1  and  CG1_2
REMARK    2  A    between atoms: CG1_2  and  CB_3
REMARK    3  A    between atoms: CB_3  and  CG2_4
REMARK    4  A    between atoms: CB_3  and  CA_5
REMARK    5  A    between atoms: CA_5  and  N_6
REMARK    6  A    between atoms: CA_5  and  C_16
REMARK    7  A    between atoms: C_12  and  C_13
REMARK    8  A    between atoms: C_16  and  OXT_18
REMARK                            x       y       z     vdW  Elec       q    Type
REMARK                         _______ _______ _______ _____ _____    ______ ____
ROOT
ATOM      1  N   ILE A   1       5.241   5.591  18.338  0.00  0.00    +0.000 N 
ATOM      2  C   UNK A   0       3.891   5.783  18.335  0.00  0.00    +0.000 C 
ATOM      3  O   UNK A   0       3.368   6.720  17.741  0.00  0.00    +0.000 OA
ATOM      4  N   UNK A   0       3.189   4.807  19.027  0.00  0.00    +0.000 N 
ATOM      5  C   UNK A   0       1.736   4.940  19.111  0.00  0.00    +0.000 C 
ATOM      6  C   UNK A   0       1.193   4.300  20.387  0.00  0.00    +0.000 C 
ATOM      7  C   UNK A   0       1.689   2.856  20.568  0.00  0.00    +0.000 C 
ATOM      8  C   UNK A   0       1.257   2.294  21.919  0.00  0.00    +0.000 C 
ATOM      9  C   UNK A   0       3.214   2.792  20.438  0.00  0.00    +0.000 C 
ATOM     10  C   UNK A   0       3.682   3.433  19.144  0.00  0.00    +0.000 C 
ATOM     11  H   ILE A   1       5.643   5.129  19.143  0.00  0.00    +0.000 HD
ENDROOT
BRANCH   1  12
ATOM     12  CA  ILE A   1       6.157   6.305  17.468  0.00  0.00    +0.000 C 
BRANCH  12  13
ATOM     13  CB  ILE A   1       7.207   7.134  18.240  0.00  0.00    +0.000 C 
ATOM     14  CG2 ILE A   1       8.268   6.277  18.950  0.00  0.00    +0.000 C 
BRANCH  13  16
ATOM     15  CD1 ILE A   1       8.432   9.393  18.131  0.00  0.00    +0.000 C 
ATOM     16  CG1 ILE A   1       7.914   8.186  17.361  0.00  0.00    +0.000 C 
ENDBRANCH  13  16
ENDBRANCH  12  13
BRANCH  12  17
ATOM     17  C   ILE A   1       6.756   5.226  16.555  0.00  0.00    +0.000 C 
ATOM     18  O   ILE A   1       7.424   5.467  15.555  0.00  0.00    +0.000 OA
BRANCH  17  19
ATOM     19  OXT ILE A   1       6.579   3.960  16.998  0.00  0.00    +0.000 OA
ATOM     20  HXT ILE A   1       6.900   3.807  17.907  0.00  0.00    +0.000 HD
ENDBRANCH  17  19
ENDBRANCH  12  17
ENDBRANCH   1  12
TORSDOF 5
ENDMDL
MODEL 7
REMARK VINA RESULT:      -6.2      2.919      4.778
REMARK  Name = 
REMARK  8 active torsions:
REMARK  status: ('A' for Active; 'I' for Inactive)
REMARK    1  A    between atoms: CD1_1  and  CG1_2
REMARK    2  A    between atoms: CG1_2  and  CB_3
REMARK    3  A    between atoms: CB_3  and  CG2_4
REMARK    4  A    between atoms: CB_3  and  CA_5
REMARK    5  A    between atoms: CA_5  and  N_6
REMARK    6  A    between atoms: CA_5  and  C_16
REMARK    7  A    between atoms: C_12  and  C_13
REMARK    8  A    between atoms: C_16  and  OXT_18
REMARK                            x       y       z     vdW  Elec       q    Type
REMARK                         _______ _______ _______ _____ _____    ______ ____
ROOT
ATOM      1  N   ILE A   1       3.043   5.464  18.039  0.00  0.00    +0.000 N 
ATOM      2  C   UNK A   0       2.746   6.014  19.250  0.00  0.00    +0.000 C 
ATOM      3  O   UNK A   0       2.938   5.415  20.303  0.00  0.00    +0.000 OA
ATOM      4  N   UNK A   0       2.249   7.307  19.168  0.00  0.00    +0.000 N 
ATOM      5  C   UNK A   0       1.868   7.974  20.410  0.00  0.00    +0.000 C 
ATOM      6  C   UNK A   0       0.755   8.993  20.175  0.00  0.00    +0.000 C 
ATOM      7  C   UNK A   0       1.091   9.966  19.034  0.00  0.00    +0.000 C 
ATOM      8  C   UNK A   0      -0.095  10.873  18.719  0.00  0.00    +0.000 C 
ATOM      9  C   UNK A   0       1.509   9.197  17.777  0.00  0.00    +0.000 C 
ATOM     10  C   UNK A   0       2.625   8.214  18.081  0.00  0.00    +0.000 C 
ATOM     11  H   ILE A   1       2.492   5.764  17.245  0.00  0.00    +0.000 HD
ENDROOT
BRANCH   1  12
ATOM     12  CA  ILE A   1       3.821   4.251  17.875  0.00  0.00    +0.000 C 
BRANCH  12  13
ATOM     13  CB  ILE A   1       2.952   3.005  17.594  0.00  0.00    +0.000 C 
ATOM     14  CG2 ILE A   1       3.406   1.752  18.359  0.00  0.00    +0.000 C 
BRANCH  13  16
ATOM     15  CD1 ILE A   1       0.914   2.518  19.085  0.00  0.00    +0.000 C 
ATOM     16  CG1 ILE A   1       1.451   3.242  17.858  0.00  0.00    +0.000 C 
ENDBRANCH  13  16
ENDBRANCH  12  13
BRANCH  12  17
ATOM     17  C   ILE A   1       4.831   4.575  16.767  0.00  0.00    +0.000 C 
ATOM     18  O   ILE A   1       4.912   5.664  16.207  0.00  0.00    +0.000 OA
BRANCH  17  19
ATOM     19  OXT ILE A   1       5.717   3.584  16.513  0.00  0.00    +0.000 OA
ATOM     20  HXT ILE A   1       6.105   3.615  15.618  0.00  0.00    +0.000 HD
ENDBRANCH  17  19
ENDBRANCH  12  17
ENDBRANCH   1  12
TORSDOF 5
ENDMDL
MODEL 8
REMARK VINA RESULT:      -6.2      3.166      6.678
REMARK  Name = 
REMARK  8 active torsions:
REMARK  status: ('A' for Active; 'I' for Inactive)
REMARK    1  A    between atoms: CD1_1  and  CG1_2
REMARK    2  A    between atoms: CG1_2  and  CB_3
REMARK    3  A    between atoms: CB_3  and  CG2_4
REMARK    4  A    between atoms: CB_3  and  CA_5
REMARK    5  A    between atoms: CA_5  and  N_6
REMARK    6  A    between atoms: CA_5  and  C_16
REMARK    7  A    between atoms: C_12  and  C_13
REMARK    8  A    between atoms: C_16  and  OXT_18
REMARK                            x       y       z     vdW  Elec       q    Type
REMARK                         _______ _______ _______ _____ _____    ______ ____
ROOT
ATOM      1  N   ILE A   1       5.435   3.761  16.593  0.00  0.00    +0.000 N 
ATOM      2  C   UNK A   0       4.510   4.721  16.884  0.00  0.00    +0.000 C 
ATOM      3  O   UNK A   0       4.629   5.878  16.495  0.00  0.00    +0.000 OA
ATOM      4  N   UNK A   0       3.431   4.249  17.616  0.00  0.00    +0.000 N 
ATOM      5  C   UNK A   0       2.400   5.206  18.009  0.00  0.00    +0.000 C 
ATOM      6  C   UNK A   0       1.715   4.785  19.307  0.00  0.00    +0.000 C 
ATOM      7  C   UNK A   0       1.216   3.333  19.254  0.00  0.00    +0.000 C 
ATOM      8  C   UNK A   0       0.674   2.889  20.610  0.00  0.00    +0.000 C 
ATOM      9  C   UNK A   0       2.340   2.393  18.809  0.00  0.00    +0.000 C 
ATOM     10  C   UNK A   0       2.966   2.865  17.507  0.00  0.00    +0.000 C 
ATOM     11  H   ILE A   1       5.542   3.004  17.254  0.00  0.00    +0.000 HD
ENDROOT
BRANCH   1  12
ATOM     12  CA  ILE A   1       6.497   3.936  15.620  0.00  0.00    +0.000 C 
BRANCH  12  13
ATOM     13  CB  ILE A   1       6.002   4.522  14.279  0.00  0.00    +0.000 C 
ATOM     14  CG2 ILE A   1       7.138   4.951  13.338  0.00  0.00    +0.000 C 
BRANCH  13  16
ATOM     15  CD1 ILE A   1       5.474   3.280  12.089  0.00  0.00    +0.000 C 
ATOM     16  CG1 ILE A   1       5.048   3.576  13.521  0.00  0.00    +0.000 C 
ENDBRANCH  13  16
ENDBRANCH  12  13
BRANCH  12  17
ATOM     17  C   ILE A   1       7.548   4.799  16.332  0.00  0.00    +0.000 C 
ATOM     18  O   ILE A   1       7.706   5.998  16.126  0.00  0.00    +0.000 OA
BRANCH  17  19
ATOM     19  OXT ILE A   1       8.236   4.152  17.299  0.00  0.00    +0.000 OA
ATOM     20  HXT ILE A   1       7.896   4.305  18.202  0.00  0.00    +0.000 HD
ENDBRANCH  17  19
ENDBRANCH  12  17
ENDBRANCH   1  12
TORSDOF 5
ENDMDL
MODEL 9
REMARK VINA RESULT:      -6.2      3.110      6.532
REMARK  Name = 
REMARK  8 active torsions:
REMARK  status: ('A' for Active; 'I' for Inactive)
REMARK    1  A    between atoms: CD1_1  and  CG1_2
REMARK    2  A    between atoms: CG1_2  and  CB_3
REMARK    3  A    between atoms: CB_3  and  CG2_4
REMARK    4  A    between atoms: CB_3  and  CA_5
REMARK    5  A    between atoms: CA_5  and  N_6
REMARK    6  A    between atoms: CA_5  and  C_16
REMARK    7  A    between atoms: C_12  and  C_13
REMARK    8  A    between atoms: C_16  and  OXT_18
REMARK                            x       y       z     vdW  Elec       q    Type
REMARK                         _______ _______ _______ _____ _____    ______ ____
ROOT
ATOM      1  N   ILE A   1       5.509   4.516  16.433  0.00  0.00    +0.000 N 
ATOM      2  C   UNK A   0       5.498   4.207  17.761  0.00  0.00    +0.000 C 
ATOM      3  O   UNK A   0       6.525   4.174  18.431  0.00  0.00    +0.000 OA
ATOM      4  N   UNK A   0       4.228   3.975  18.269  0.00  0.00    +0.000 N 
ATOM      5  C   UNK A   0       4.110   3.603  19.676  0.00  0.00    +0.000 C 
ATOM      6  C   UNK A   0       2.879   2.732  19.920  0.00  0.00    +0.000 C 
ATOM      7  C   UNK A   0       1.601   3.361  19.343  0.00  0.00    +0.000 C 
ATOM      8  C   UNK A   0       0.417   2.406  19.465  0.00  0.00    +0.000 C 
ATOM      9  C   UNK A   0       1.809   3.751  17.877  0.00  0.00    +0.000 C 
ATOM     10  C   UNK A   0       3.040   4.625  17.710  0.00  0.00    +0.000 C 
ATOM     11  H   ILE A   1       4.780   4.116  15.857  0.00  0.00    +0.000 HD
ENDROOT
BRANCH   1  12
ATOM     12  CA  ILE A   1       6.662   5.063  15.744  0.00  0.00    +0.000 C 
BRANCH  12  13
ATOM     13  CB  ILE A   1       6.546   4.981  14.206  0.00  0.00    +0.000 C 
ATOM     14  CG2 ILE A   1       7.874   5.232  13.474  0.00  0.00    +0.000 C 
BRANCH  13  16
ATOM     15  CD1 ILE A   1       6.160   3.378  12.232  0.00  0.00    +0.000 C 
ATOM     16  CG1 ILE A   1       5.943   3.649  13.715  0.00  0.00    +0.000 C 
ENDBRANCH  13  16
ENDBRANCH  12  13
BRANCH  12  17
ATOM     17  C   ILE A   1       6.808   6.491  16.288  0.00  0.00    +0.000 C 
ATOM     18  O   ILE A   1       7.863   6.967  16.693  0.00  0.00    +0.000 OA
BRANCH  17  19
ATOM     19  OXT ILE A   1       5.685   7.240  16.191  0.00  0.00    +0.000 OA
ATOM     20  HXT ILE A   1       5.850   8.202  16.144  0.00  0.00    +0.000 HD
ENDBRANCH  17  19
ENDBRANCH  12  17
ENDBRANCH   1  12
TORSDOF 5
ENDMDL
