MODEL 1
REMARK VINA RESULT:      -9.2      0.000      0.000
REMARK  Name = 
REMARK  10 active torsions:
REMARK  status: ('A' for Active; 'I' for Inactive)
REMARK    1  A    between atoms: C_1  and  C_2
REMARK    2  A    between atoms: C_2  and  C_3
REMARK    3  A    between atoms: C_2  and  N_4
REMARK    4  A    between atoms: C_5  and  C_7
REMARK    5  A    between atoms: C_7  and  N_8
REMARK    6  A    between atoms: N_8  and  C_9
REMARK    7  A    between atoms: C_9  and  C_10
REMARK    8  A    between atoms: C_19  and  C_21
REMARK    9  A    between atoms: C_21  and  C_22
REMARK   10  A    between atoms: C_22  and  C_23
REMARK                            x       y       z     vdW  Elec       q    Type
REMARK                         _______ _______ _______ _____ _____    ______ ____
ROOT
ATOM      1  N   UNL     1       5.924   4.485  16.765  0.00  0.00    +0.000 N 
ATOM      2  C   UNL     1       7.048   4.997  17.416  0.00  0.00    +0.000 C 
ATOM      3  O   UNL     1       8.170   4.515  17.258  0.00  0.00    +0.000 OA
ENDROOT
BRANCH   1   4
ATOM      4  C   UNL     1       6.114   3.406  15.774  0.00  0.00    +0.000 C 
BRANCH   4   6
ATOM      5  N   UNL     1       5.651   2.942  13.373  0.00  0.00    +0.000 N 
ATOM      6  C   UNL     1       6.226   3.801  14.287  0.00  0.00    +0.000 C 
ATOM      7  O   UNL     1       6.885   4.784  13.942  0.00  0.00    +0.000 OA
ATOM      8  H   UNL     1       5.373   2.023  13.705  0.00  0.00    +0.000 HD
BRANCH   5  10
ATOM      9  C   UNL     1       6.540   2.077  11.227  0.00  0.00    +0.000 C 
ATOM     10  C   UNL     1       5.747   3.180  11.929  0.00  0.00    +0.000 C 
ATOM     11  C   UNL     1       4.356   3.319  11.319  0.00  0.00    +0.000 C 
ENDBRANCH   5  10
ENDBRANCH   4   6
ENDBRANCH   1   4
BRANCH   1  12
ATOM     12  C   UNL     1       4.594   5.104  16.835  0.00  0.00    +0.000 C 
BRANCH  12  13
ATOM     13  C   UNL     1       3.552   4.424  17.710  0.00  0.00    +0.000 A 
ATOM     14  C   UNL     1       2.643   3.441  17.254  0.00  0.00    +0.000 A 
ATOM     15  C   UNL     1       1.761   2.800  18.139  0.00  0.00    +0.000 A 
ATOM     16  C   UNL     1       1.805   3.151  19.470  0.00  0.00    +0.000 A 
ATOM     17  C   UNL     1       2.659   4.123  19.925  0.00  0.00    +0.000 A 
ATOM     18  C   UNL     1       3.524   4.781  19.076  0.00  0.00    +0.000 A 
ATOM     19  O   UNL     1       2.550   4.322  21.266  0.00  0.00    +0.000 OA
ATOM     20  C   UNL     1       1.614   3.281  21.618  0.00  0.00    +0.000 C 
ATOM     21  O   UNL     1       1.055   2.610  20.468  0.00  0.00    +0.000 OA
ENDBRANCH  12  13
ENDBRANCH   1  12
BRANCH   2  22
ATOM     22  C   UNL     1       6.835   6.148  18.385  0.00  0.00    +0.000 C 
BRANCH  22  23
ATOM     23  C   UNL     1       8.138   6.809  18.838  0.00  0.00    +0.000 C 
BRANCH  23  24
ATOM     24  C   UNL     1       8.265   8.190  18.220  0.00  0.00    +0.000 C 
ATOM     25  O   UNL     1       7.832   8.436  17.096  0.00  0.00    +0.000 OA
ATOM     26  N   UNL     1       8.906   9.101  19.035  0.00  0.00    +0.000 N 
ATOM     27  C   UNL     1       9.174  10.411  18.626  0.00  0.00    +0.000 A 
ATOM     28  C   UNL     1       8.229  11.183  17.959  0.00  0.00    +0.000 A 
ATOM     29  C   UNL     1       8.584  12.460  17.534  0.00  0.00    +0.000 A 
ATOM     30  C   UNL     1       9.877  12.911  17.761  0.00  0.00    +0.000 A 
ATOM     31  C   UNL     1      10.744  12.082  18.455  0.00  0.00    +0.000 A 
ATOM     32  N   UNL     1      10.408  10.861  18.929  0.00  0.00    +0.000 NA
ATOM     33  H   UNL     1       9.591   8.747  19.688  0.00  0.00    +0.000 HD
ENDBRANCH  23  24
ENDBRANCH  22  23
ENDBRANCH   2  22
TORSDOF 8
ENDMDL
MODEL 2
REMARK VINA RESULT:      -8.7      3.808      5.115
REMARK  Name = 
REMARK  10 active torsions:
REMARK  status: ('A' for Active; 'I' for Inactive)
REMARK    1  A    between atoms: C_1  and  C_2
REMARK    2  A    between atoms: C_2  and  C_3
REMARK    3  A    between atoms: C_2  and  N_4
REMARK    4  A    between atoms: C_5  and  C_7
REMARK    5  A    between atoms: C_7  and  N_8
REMARK    6  A    between atoms: N_8  and  C_9
REMARK    7  A    between atoms: C_9  and  C_10
REMARK    8  A    between atoms: C_19  and  C_21
REMARK    9  A    between atoms: C_21  and  C_22
REMARK   10  A    between atoms: C_22  and  C_23
REMARK                            x       y       z     vdW  Elec       q    Type
REMARK                         _______ _______ _______ _____ _____    ______ ____
ROOT
ATOM      1  N   UNL     1       5.158   4.842  16.469  0.00  0.00    +0.000 N 
ATOM      2  C   UNL     1       5.072   6.220  16.670  0.00  0.00    +0.000 C 
ATOM      3  O   UNL     1       6.009   6.977  16.417  0.00  0.00    +0.000 OA
ENDROOT
BRANCH   1   4
ATOM      4  C   UNL     1       6.373   4.297  15.828  0.00  0.00    +0.000 C 
BRANCH   4   6
ATOM      5  N   UNL     1       5.790   3.460  13.559  0.00  0.00    +0.000 N 
ATOM      6  C   UNL     1       6.487   4.397  14.293  0.00  0.00    +0.000 C 
ATOM      7  O   UNL     1       7.246   5.214  13.767  0.00  0.00    +0.000 OA
ATOM      8  H   UNL     1       5.417   2.658  14.057  0.00  0.00    +0.000 HD
BRANCH   5  10
ATOM      9  C   UNL     1       6.837   2.333  11.615  0.00  0.00    +0.000 C 
ATOM     10  C   UNL     1       5.870   3.416  12.095  0.00  0.00    +0.000 C 
ATOM     11  C   UNL     1       4.484   3.209  11.492  0.00  0.00    +0.000 C 
ENDBRANCH   5  10
ENDBRANCH   4   6
ENDBRANCH   1   4
BRANCH   1  12
ATOM     12  C   UNL     1       4.026   3.923  16.647  0.00  0.00    +0.000 C 
BRANCH  12  13
ATOM     13  C   UNL     1       3.747   3.421  18.055  0.00  0.00    +0.000 A 
ATOM     14  C   UNL     1       4.743   3.006  18.969  0.00  0.00    +0.000 A 
ATOM     15  C   UNL     1       4.416   2.629  20.281  0.00  0.00    +0.000 A 
ATOM     16  C   UNL     1       3.092   2.679  20.662  0.00  0.00    +0.000 A 
ATOM     17  C   UNL     1       2.109   3.051  19.781  0.00  0.00    +0.000 A 
ATOM     18  C   UNL     1       2.401   3.410  18.481  0.00  0.00    +0.000 A 
ATOM     19  O   UNL     1       0.873   3.036  20.347  0.00  0.00    +0.000 OA
ATOM     20  C   UNL     1       1.208   2.725  21.716  0.00  0.00    +0.000 C 
ATOM     21  O   UNL     1       2.601   2.388  21.896  0.00  0.00    +0.000 OA
ENDBRANCH  12  13
ENDBRANCH   1  12
BRANCH   2  22
ATOM     22  C   UNL     1       3.787   6.763  17.275  0.00  0.00    +0.000 C 
BRANCH  22  23
ATOM     23  C   UNL     1       3.731   6.628  18.799  0.00  0.00    +0.000 C 
BRANCH  23  24
ATOM     24  C   UNL     1       2.516   7.360  19.342  0.00  0.00    +0.000 C 
ATOM     25  O   UNL     1       1.881   6.929  20.302  0.00  0.00    +0.000 OA
ATOM     26  N   UNL     1       2.218   8.518  18.653  0.00  0.00    +0.000 N 
ATOM     27  C   UNL     1       1.103   9.304  18.961  0.00  0.00    +0.000 A 
ATOM     28  C   UNL     1       0.755   9.609  20.272  0.00  0.00    +0.000 A 
ATOM     29  C   UNL     1      -0.399  10.352  20.505  0.00  0.00    +0.000 A 
ATOM     30  C   UNL     1      -1.182  10.738  19.426  0.00  0.00    +0.000 A 
ATOM     31  C   UNL     1      -0.744  10.410  18.153  0.00  0.00    +0.000 A 
ATOM     32  N   UNL     1       0.401   9.739  17.896  0.00  0.00    +0.000 NA
ATOM     33  H   UNL     1       2.470   8.562  17.676  0.00  0.00    +0.000 HD
ENDBRANCH  23  24
ENDBRANCH  22  23
ENDBRANCH   2  22
TORSDOF 8
ENDMDL
MODEL 3
REMARK VINA RESULT:      -8.4      3.668      4.877
REMARK  Name = 
REMARK  10 active torsions:
REMARK  status: ('A' for Active; 'I' for Inactive)
REMARK    1  A    between atoms: C_1  and  C_2
REMARK    2  A    between atoms: C_2  and  C_3
REMARK    3  A    between atoms: C_2  and  N_4
REMARK    4  A    between atoms: C_5  and  C_7
REMARK    5  A    between atoms: C_7  and  N_8
REMARK    6  A    between atoms: N_8  and  C_9
REMARK    7  A    between atoms: C_9  and  C_10
REMARK    8  A    between atoms: C_19  and  C_21
REMARK    9  A    between atoms: C_21  and  C_22
REMARK   10  A    between atoms: C_22  and  C_23
REMARK                            x       y       z     vdW  Elec       q    Type
REMARK                         _______ _______ _______ _____ _____    ______ ____
ROOT
ATOM      1  N   UNL     1       5.415   4.815  16.777  0.00  0.00    +0.000 N 
ATOM      2  C   UNL     1       5.397   6.088  17.350  0.00  0.00    +0.000 C 
ATOM      3  O   UNL     1       6.405   6.793  17.406  0.00  0.00    +0.000 OA
ENDROOT
BRANCH   1   4
ATOM      4  C   UNL     1       6.656   4.354  16.121  0.00  0.00    +0.000 C 
BRANCH   4   6
ATOM      5  N   UNL     1       6.105   3.607  13.812  0.00  0.00    +0.000 N 
ATOM      6  C   UNL     1       6.774   4.528  14.593  0.00  0.00    +0.000 C 
ATOM      7  O   UNL     1       7.512   5.388  14.108  0.00  0.00    +0.000 OA
ATOM      8  H   UNL     1       5.752   2.773  14.271  0.00  0.00    +0.000 HD
BRANCH   5  10
ATOM      9  C   UNL     1       7.233   2.642  11.827  0.00  0.00    +0.000 C 
ATOM     10  C   UNL     1       6.192   3.633  12.348  0.00  0.00    +0.000 C 
ATOM     11  C   UNL     1       4.825   3.358  11.728  0.00  0.00    +0.000 C 
ENDBRANCH   5  10
ENDBRANCH   4   6
ENDBRANCH   1   4
BRANCH   1  12
ATOM     12  C   UNL     1       4.212   3.994  16.586  0.00  0.00    +0.000 C 
BRANCH  12  13
ATOM     13  C   UNL     1       3.295   3.807  17.785  0.00  0.00    +0.000 A 
ATOM     14  C   UNL     1       1.905   4.062  17.776  0.00  0.00    +0.000 A 
ATOM     15  C   UNL     1       1.108   3.791  18.900  0.00  0.00    +0.000 A 
ATOM     16  C   UNL     1       1.717   3.262  20.017  0.00  0.00    +0.000 A 
ATOM     17  C   UNL     1       3.070   3.035  20.054  0.00  0.00    +0.000 A 
ATOM     18  C   UNL     1       3.878   3.308  18.970  0.00  0.00    +0.000 A 
ATOM     19  O   UNL     1       3.475   2.511  21.242  0.00  0.00    +0.000 OA
ATOM     20  C   UNL     1       2.205   2.326  21.902  0.00  0.00    +0.000 C 
ATOM     21  O   UNL     1       1.099   2.903  21.175  0.00  0.00    +0.000 OA
ENDBRANCH  12  13
ENDBRANCH   1  12
BRANCH   2  22
ATOM     22  C   UNL     1       4.091   6.563  17.964  0.00  0.00    +0.000 C 
BRANCH  22  23
ATOM     23  C   UNL     1       3.327   7.549  17.078  0.00  0.00    +0.000 C 
BRANCH  23  24
ATOM     24  C   UNL     1       2.532   8.515  17.937  0.00  0.00    +0.000 C 
ATOM     25  O   UNL     1       2.388   9.693  17.618  0.00  0.00    +0.000 OA
ATOM     26  N   UNL     1       2.015   7.939  19.079  0.00  0.00    +0.000 N 
ATOM     27  C   UNL     1       1.301   8.674  20.031  0.00  0.00    +0.000 A 
ATOM     28  C   UNL     1       0.331   9.602  19.670  0.00  0.00    +0.000 A 
ATOM     29  C   UNL     1      -0.300  10.337  20.670  0.00  0.00    +0.000 A 
ATOM     30  C   UNL     1       0.079  10.144  21.991  0.00  0.00    +0.000 A 
ATOM     31  C   UNL     1       1.038   9.180  22.259  0.00  0.00    +0.000 A 
ATOM     32  N   UNL     1       1.625   8.413  21.313  0.00  0.00    +0.000 NA
ATOM     33  H   UNL     1       2.517   7.160  19.483  0.00  0.00    +0.000 HD
ENDBRANCH  23  24
ENDBRANCH  22  23
ENDBRANCH   2  22
TORSDOF 8
ENDMDL
MODEL 4
REMARK VINA RESULT:      -8.4      3.936      5.095
REMARK  Name = 
REMARK  10 active torsions:
REMARK  status: ('A' for Active; 'I' for Inactive)
REMARK    1  A    between atoms: C_1  and  C_2
REMARK    2  A    between atoms: C_2  and  C_3
REMARK    3  A    between atoms: C_2  and  N_4
REMARK    4  A    between atoms: C_5  and  C_7
REMARK    5  A    between atoms: C_7  and  N_8
REMARK    6  A    between atoms: N_8  and  C_9
REMARK    7  A    between atoms: C_9  and  C_10
REMARK    8  A    between atoms: C_19  and  C_21
REMARK    9  A    between atoms: C_21  and  C_22
REMARK   10  A    between atoms: C_22  and  C_23
REMARK                            x       y       z     vdW  Elec       q    Type
REMARK                         _______ _______ _______ _____ _____    ______ ____
ROOT
ATOM      1  N   UNL     1       5.090   4.801  16.487  0.00  0.00    +0.000 N 
ATOM      2  C   UNL     1       4.747   6.148  16.619  0.00  0.00    +0.000 C 
ATOM      3  O   UNL     1       5.540   7.052  16.359  0.00  0.00    +0.000 OA
ENDROOT
BRANCH   1   4
ATOM      4  C   UNL     1       6.408   4.463  15.910  0.00  0.00    +0.000 C 
BRANCH   4   6
ATOM      5  N   UNL     1       5.849   3.589  13.648  0.00  0.00    +0.000 N 
ATOM      6  C   UNL     1       6.562   4.520  14.376  0.00  0.00    +0.000 C 
ATOM      7  O   UNL     1       7.361   5.296  13.849  0.00  0.00    +0.000 OA
ATOM      8  H   UNL     1       5.436   2.814  14.157  0.00  0.00    +0.000 HD
BRANCH   5  10
ATOM      9  C   UNL     1       7.034   2.501  11.762  0.00  0.00    +0.000 C 
ATOM     10  C   UNL     1       5.962   3.505  12.188  0.00  0.00    +0.000 C 
ATOM     11  C   UNL     1       4.614   3.152  11.569  0.00  0.00    +0.000 C 
ENDBRANCH   5  10
ENDBRANCH   4   6
ENDBRANCH   1   4
BRANCH   1  12
ATOM     12  C   UNL     1       4.138   3.698  16.673  0.00  0.00    +0.000 C 
BRANCH  12  13
ATOM     13  C   UNL     1       3.835   3.270  18.101  0.00  0.00    +0.000 A 
ATOM     14  C   UNL     1       4.817   2.922  19.057  0.00  0.00    +0.000 A 
ATOM     15  C   UNL     1       4.466   2.612  20.381  0.00  0.00    +0.000 A 
ATOM     16  C   UNL     1       3.134   2.660  20.729  0.00  0.00    +0.000 A 
ATOM     17  C   UNL     1       2.165   2.968  19.808  0.00  0.00    +0.000 A 
ATOM     18  C   UNL     1       2.480   3.260  18.497  0.00  0.00    +0.000 A 
ATOM     19  O   UNL     1       0.916   2.963  20.348  0.00  0.00    +0.000 OA
ATOM     20  C   UNL     1       1.226   2.733  21.739  0.00  0.00    +0.000 C 
ATOM     21  O   UNL     1       2.619   2.430  21.967  0.00  0.00    +0.000 OA
ENDBRANCH  12  13
ENDBRANCH   1  12
BRANCH   2  22
ATOM     22  C   UNL     1       3.362   6.469  17.158  0.00  0.00    +0.000 C 
BRANCH  22  23
ATOM     23  C   UNL     1       3.390   7.303  18.441  0.00  0.00    +0.000 C 
BRANCH  23  24
ATOM     24  C   UNL     1       2.381   8.433  18.351  0.00  0.00    +0.000 C 
ATOM     25  O   UNL     1       2.213   9.067  17.311  0.00  0.00    +0.000 OA
ATOM     26  N   UNL     1       1.703   8.661  19.531  0.00  0.00    +0.000 N 
ATOM     27  C   UNL     1       0.773   9.696  19.672  0.00  0.00    +0.000 A 
ATOM     28  C   UNL     1      -0.178   9.970  18.695  0.00  0.00    +0.000 A 
ATOM     29  C   UNL     1      -1.037  11.051  18.879  0.00  0.00    +0.000 A 
ATOM     30  C   UNL     1      -0.897  11.838  20.013  0.00  0.00    +0.000 A 
ATOM     31  C   UNL     1       0.063  11.475  20.944  0.00  0.00    +0.000 A 
ATOM     32  N   UNL     1       0.871  10.398  20.818  0.00  0.00    +0.000 NA
ATOM     33  H   UNL     1       2.177   8.441  20.396  0.00  0.00    +0.000 HD
ENDBRANCH  23  24
ENDBRANCH  22  23
ENDBRANCH   2  22
TORSDOF 8
ENDMDL
MODEL 5
REMARK VINA RESULT:      -8.2      2.900      4.775
REMARK  Name = 
REMARK  10 active torsions:
REMARK  status: ('A' for Active; 'I' for Inactive)
REMARK    1  A    between atoms: C_1  and  C_2
REMARK    2  A    between atoms: C_2  and  C_3
REMARK    3  A    between atoms: C_2  and  N_4
REMARK    4  A    between atoms: C_5  and  C_7
REMARK    5  A    between atoms: C_7  and  N_8
REMARK    6  A    between atoms: N_8  and  C_9
REMARK    7  A    between atoms: C_9  and  C_10
REMARK    8  A    between atoms: C_19  and  C_21
REMARK    9  A    between atoms: C_21  and  C_22
REMARK   10  A    between atoms: C_22  and  C_23
REMARK                            x       y       z     vdW  Elec       q    Type
REMARK                         _______ _______ _______ _____ _____    ______ ____
ROOT
ATOM      1  N   UNL     1       4.602   5.265  17.679  0.00  0.00    +0.000 N 
ATOM      2  C   UNL     1       5.730   4.975  18.449  0.00  0.00    +0.000 C 
ATOM      3  O   UNL     1       6.104   3.820  18.650  0.00  0.00    +0.000 OA
ENDROOT
BRANCH   1   4
ATOM      4  C   UNL     1       3.910   4.153  16.996  0.00  0.00    +0.000 C 
BRANCH   4   6
ATOM      5  N   UNL     1       2.862   3.553  19.172  0.00  0.00    +0.000 N 
ATOM      6  C   UNL     1       2.902   3.318  17.813  0.00  0.00    +0.000 C 
ATOM      7  O   UNL     1       2.246   2.420  17.280  0.00  0.00    +0.000 OA
ATOM      8  H   UNL     1       3.616   4.100  19.575  0.00  0.00    +0.000 HD
BRANCH   5  10
ATOM      9  C   UNL     1       2.630   2.559  21.431  0.00  0.00    +0.000 C 
ATOM     10  C   UNL     1       1.989   2.778  20.060  0.00  0.00    +0.000 C 
ATOM     11  C   UNL     1       0.631   3.460  20.201  0.00  0.00    +0.000 C 
ENDBRANCH   5  10
ENDBRANCH   4   6
ENDBRANCH   1   4
BRANCH   1  12
ATOM     12  C   UNL     1       4.193   6.630  17.321  0.00  0.00    +0.000 C 
BRANCH  12  13
ATOM     13  C   UNL     1       3.128   7.290  18.182  0.00  0.00    +0.000 A 
ATOM     14  C   UNL     1       2.736   6.831  19.461  0.00  0.00    +0.000 A 
ATOM     15  C   UNL     1       1.800   7.538  20.233  0.00  0.00    +0.000 A 
ATOM     16  C   UNL     1       1.272   8.700  19.713  0.00  0.00    +0.000 A 
ATOM     17  C   UNL     1       1.618   9.144  18.462  0.00  0.00    +0.000 A 
ATOM     18  C   UNL     1       2.523   8.461  17.676  0.00  0.00    +0.000 A 
ATOM     19  O   UNL     1       0.991  10.305  18.133  0.00  0.00    +0.000 OA
ATOM     20  C   UNL     1       0.303  10.598  19.368  0.00  0.00    +0.000 C 
ATOM     21  O   UNL     1       0.388   9.527  20.332  0.00  0.00    +0.000 OA
ENDBRANCH  12  13
ENDBRANCH   1  12
BRANCH   2  22
ATOM     22  C   UNL     1       6.460   6.143  19.092  0.00  0.00    +0.000 C 
BRANCH  22  23
ATOM     23  C   UNL     1       7.885   6.331  18.566  0.00  0.00    +0.000 C 
BRANCH  23  24
ATOM     24  C   UNL     1       8.064   7.742  18.036  0.00  0.00    +0.000 C 
ATOM     25  O   UNL     1       7.720   8.052  16.898  0.00  0.00    +0.000 OA
ATOM     26  N   UNL     1       8.642   8.602  18.948  0.00  0.00    +0.000 N 
ATOM     27  C   UNL     1       8.945   9.931  18.633  0.00  0.00    +0.000 A 
ATOM     28  C   UNL     1       8.057  10.746  17.939  0.00  0.00    +0.000 A 
ATOM     29  C   UNL     1       8.449  12.041  17.613  0.00  0.00    +0.000 A 
ATOM     30  C   UNL     1       9.722  12.469  17.964  0.00  0.00    +0.000 A 
ATOM     31  C   UNL     1      10.529  11.597  18.676  0.00  0.00    +0.000 A 
ATOM     32  N   UNL     1      10.153  10.355  19.055  0.00  0.00    +0.000 NA
ATOM     33  H   UNL     1       9.273   8.209  19.632  0.00  0.00    +0.000 HD
ENDBRANCH  23  24
ENDBRANCH  22  23
ENDBRANCH   2  22
TORSDOF 8
ENDMDL
MODEL 6
REMARK VINA RESULT:      -8.2      1.647      2.222
REMARK  Name = 
REMARK  10 active torsions:
REMARK  status: ('A' for Active; 'I' for Inactive)
REMARK    1  A    between atoms: C_1  and  C_2
REMARK    2  A    between atoms: C_2  and  C_3
REMARK    3  A    between atoms: C_2  and  N_4
REMARK    4  A    between atoms: C_5  and  C_7
REMARK    5  A    between atoms: C_7  and  N_8
REMARK    6  A    between atoms: N_8  and  C_9
REMARK    7  A    between atoms: C_9  and  C_10
REMARK    8  A    between atoms: C_19  and  C_21
REMARK    9  A    between atoms: C_21  and  C_22
REMARK   10  A    between atoms: C_22  and  C_23
REMARK                            x       y       z     vdW  Elec       q    Type
REMARK                         _______ _______ _______ _____ _____    ______ ____
ROOT
ATOM      1  N   UNL     1       6.772   5.196  17.618  0.00  0.00    +0.000 N 
ATOM      2  C   UNL     1       7.401   6.364  17.185  0.00  0.00    +0.000 C 
ATOM      3  O   UNL     1       7.907   6.457  16.067  0.00  0.00    +0.000 OA
ENDROOT
BRANCH   1   4
ATOM      4  C   UNL     1       6.615   4.082  16.659  0.00  0.00    +0.000 C 
BRANCH   4   6
ATOM      5  N   UNL     1       6.725   3.905  14.179  0.00  0.00    +0.000 N 
ATOM      6  C   UNL     1       6.036   4.404  15.266  0.00  0.00    +0.000 C 
ATOM      7  O   UNL     1       5.065   5.154  15.142  0.00  0.00    +0.000 OA
ATOM      8  H   UNL     1       7.657   3.538  14.345  0.00  0.00    +0.000 HD
BRANCH   5  10
ATOM      9  C   UNL     1       7.443   4.807  11.986  0.00  0.00    +0.000 C 
ATOM     10  C   UNL     1       6.306   4.196  12.805  0.00  0.00    +0.000 C 
ATOM     11  C   UNL     1       5.772   2.935  12.132  0.00  0.00    +0.000 C 
ENDBRANCH   5  10
ENDBRANCH   4   6
ENDBRANCH   1   4
BRANCH   1  12
ATOM     12  C   UNL     1       6.055   5.085  18.896  0.00  0.00    +0.000 C 
BRANCH  12  13
ATOM     13  C   UNL     1       4.563   4.798  18.838  0.00  0.00    +0.000 A 
ATOM     14  C   UNL     1       3.590   5.713  18.372  0.00  0.00    +0.000 A 
ATOM     15  C   UNL     1       2.237   5.348  18.274  0.00  0.00    +0.000 A 
ATOM     16  C   UNL     1       1.879   4.069  18.639  0.00  0.00    +0.000 A 
ATOM     17  C   UNL     1       2.805   3.178  19.120  0.00  0.00    +0.000 A 
ATOM     18  C   UNL     1       4.137   3.514  19.243  0.00  0.00    +0.000 A 
ATOM     19  O   UNL     1       2.254   1.972  19.424  0.00  0.00    +0.000 OA
ATOM     20  C   UNL     1       0.899   2.173  18.967  0.00  0.00    +0.000 C 
ATOM     21  O   UNL     1       0.630   3.535  18.573  0.00  0.00    +0.000 OA
ENDBRANCH  12  13
ENDBRANCH   1  12
BRANCH   2  22
ATOM     22  C   UNL     1       7.496   7.517  18.171  0.00  0.00    +0.000 C 
BRANCH  22  23
ATOM     23  C   UNL     1       7.793   8.862  17.504  0.00  0.00    +0.000 C 
BRANCH  23  24
ATOM     24  C   UNL     1       8.720   9.685  18.380  0.00  0.00    +0.000 C 
ATOM     25  O   UNL     1       9.158   9.251  19.443  0.00  0.00    +0.000 OA
ATOM     26  N   UNL     1       8.998  10.935  17.864  0.00  0.00    +0.000 N 
ATOM     27  C   UNL     1       9.785  11.868  18.548  0.00  0.00    +0.000 A 
ATOM     28  C   UNL     1      10.970  11.509  19.182  0.00  0.00    +0.000 A 
ATOM     29  C   UNL     1      11.673  12.480  19.889  0.00  0.00    +0.000 A 
ATOM     30  C   UNL     1      11.156  13.766  19.965  0.00  0.00    +0.000 A 
ATOM     31  C   UNL     1       9.982  14.038  19.281  0.00  0.00    +0.000 A 
ATOM     32  N   UNL     1       9.309  13.129  18.540  0.00  0.00    +0.000 NA
ATOM     33  H   UNL     1       8.299  11.369  17.278  0.00  0.00    +0.000 HD
ENDBRANCH  23  24
ENDBRANCH  22  23
ENDBRANCH   2  22
TORSDOF 8
ENDMDL
MODEL 7
REMARK VINA RESULT:      -8.1      3.495      6.466
REMARK  Name = 
REMARK  10 active torsions:
REMARK  status: ('A' for Active; 'I' for Inactive)
REMARK    1  A    between atoms: C_1  and  C_2
REMARK    2  A    between atoms: C_2  and  C_3
REMARK    3  A    between atoms: C_2  and  N_4
REMARK    4  A    between atoms: C_5  and  C_7
REMARK    5  A    between atoms: C_7  and  N_8
REMARK    6  A    between atoms: N_8  and  C_9
REMARK    7  A    between atoms: C_9  and  C_10
REMARK    8  A    between atoms: C_19  and  C_21
REMARK    9  A    between atoms: C_21  and  C_22
REMARK   10  A    between atoms: C_22  and  C_23
REMARK                            x       y       z     vdW  Elec       q    Type
REMARK                         _______ _______ _______ _____ _____    ______ ____
ROOT
ATOM      1  N   UNL     1       4.223   5.177  17.781  0.00  0.00    +0.000 N 
ATOM      2  C   UNL     1       5.328   4.722  18.503  0.00  0.00    +0.000 C 
ATOM      3  O   UNL     1       5.550   3.522  18.669  0.00  0.00    +0.000 OA
ENDROOT
BRANCH   1   4
ATOM      4  C   UNL     1       3.364   4.183  17.105  0.00  0.00    +0.000 C 
BRANCH   4   6
ATOM      5  N   UNL     1       2.478   3.487  19.324  0.00  0.00    +0.000 N 
ATOM      6  C   UNL     1       2.593   3.177  17.983  0.00  0.00    +0.000 C 
ATOM      7  O   UNL     1       2.194   2.107  17.519  0.00  0.00    +0.000 OA
ATOM      8  H   UNL     1       3.064   4.234  19.683  0.00  0.00    +0.000 HD
BRANCH   5  10
ATOM      9  C   UNL     1       2.522   2.574  21.627  0.00  0.00    +0.000 C 
ATOM     10  C   UNL     1       1.821   2.578  20.268  0.00  0.00    +0.000 C 
ATOM     11  C   UNL     1       0.347   2.942  20.420  0.00  0.00    +0.000 C 
ENDBRANCH   5  10
ENDBRANCH   4   6
ENDBRANCH   1   4
BRANCH   1  12
ATOM     12  C   UNL     1       3.990   6.592  17.462  0.00  0.00    +0.000 C 
BRANCH  12  13
ATOM     13  C   UNL     1       2.968   7.339  18.306  0.00  0.00    +0.000 A 
ATOM     14  C   UNL     1       2.568   6.953  19.606  0.00  0.00    +0.000 A 
ATOM     15  C   UNL     1       1.677   7.737  20.356  0.00  0.00    +0.000 A 
ATOM     16  C   UNL     1       1.203   8.902  19.793  0.00  0.00    +0.000 A 
ATOM     17  C   UNL     1       1.558   9.278  18.523  0.00  0.00    +0.000 A 
ATOM     18  C   UNL     1       2.418   8.518  17.757  0.00  0.00    +0.000 A 
ATOM     19  O   UNL     1       0.986  10.455  18.152  0.00  0.00    +0.000 OA
ATOM     20  C   UNL     1       0.327  10.832  19.379  0.00  0.00    +0.000 C 
ATOM     21  O   UNL     1       0.369   9.798  20.386  0.00  0.00    +0.000 OA
ENDBRANCH  12  13
ENDBRANCH   1  12
BRANCH   2  22
ATOM     22  C   UNL     1       6.231   5.766  19.139  0.00  0.00    +0.000 C 
BRANCH  22  23
ATOM     23  C   UNL     1       7.632   5.811  18.525  0.00  0.00    +0.000 C 
BRANCH  23  24
ATOM     24  C   UNL     1       7.537   5.911  17.014  0.00  0.00    +0.000 C 
ATOM     25  O   UNL     1       7.598   6.994  16.434  0.00  0.00    +0.000 OA
ATOM     26  N   UNL     1       7.374   4.691  16.390  0.00  0.00    +0.000 N 
ATOM     27  C   UNL     1       7.207   4.575  15.006  0.00  0.00    +0.000 A 
ATOM     28  C   UNL     1       7.986   5.295  14.107  0.00  0.00    +0.000 A 
ATOM     29  C   UNL     1       7.727   5.170  12.745  0.00  0.00    +0.000 A 
ATOM     30  C   UNL     1       6.683   4.355  12.328  0.00  0.00    +0.000 A 
ATOM     31  C   UNL     1       5.977   3.656  13.295  0.00  0.00    +0.000 A 
ATOM     32  N   UNL     1       6.243   3.716  14.619  0.00  0.00    +0.000 NA
ATOM     33  H   UNL     1       6.902   3.959  16.904  0.00  0.00    +0.000 HD
ENDBRANCH  23  24
ENDBRANCH  22  23
ENDBRANCH   2  22
TORSDOF 8
ENDMDL
MODEL 8
REMARK VINA RESULT:      -8.0      7.082     10.593
REMARK  Name = 
REMARK  10 active torsions:
REMARK  status: ('A' for Active; 'I' for Inactive)
REMARK    1  A    between atoms: C_1  and  C_2
REMARK    2  A    between atoms: C_2  and  C_3
REMARK    3  A    between atoms: C_2  and  N_4
REMARK    4  A    between atoms: C_5  and  C_7
REMARK    5  A    between atoms: C_7  and  N_8
REMARK    6  A    between atoms: N_8  and  C_9
REMARK    7  A    between atoms: C_9  and  C_10
REMARK    8  A    between atoms: C_19  and  C_21
REMARK    9  A    between atoms: C_21  and  C_22
REMARK   10  A    between atoms: C_22  and  C_23
REMARK                            x       y       z     vdW  Elec       q    Type
REMARK                         _______ _______ _______ _____ _____    ______ ____
ROOT
ATOM      1  N   UNL     1       0.519   9.492  20.384  0.00  0.00    +0.000 N 
ATOM      2  C   UNL     1       1.437   8.522  19.980  0.00  0.00    +0.000 C 
ATOM      3  O   UNL     1       1.544   7.442  20.560  0.00  0.00    +0.000 OA
ENDROOT
BRANCH   1   4
ATOM      4  C   UNL     1      -0.425   9.160  21.471  0.00  0.00    +0.000 C 
BRANCH   4   6
ATOM      5  N   UNL     1      -1.550  11.158  22.439  0.00  0.00    +0.000 N 
ATOM      6  C   UNL     1      -0.595  10.178  22.618  0.00  0.00    +0.000 C 
ATOM      7  O   UNL     1       0.159  10.165  23.593  0.00  0.00    +0.000 OA
ATOM      8  H   UNL     1      -1.934  11.273  21.506  0.00  0.00    +0.000 HD
BRANCH   5  10
ATOM      9  C   UNL     1      -1.155  13.545  22.976  0.00  0.00    +0.000 C 
ATOM     10  C   UNL     1      -1.760  12.217  23.431  0.00  0.00    +0.000 C 
ATOM     11  C   UNL     1      -3.247  12.375  23.735  0.00  0.00    +0.000 C 
ENDBRANCH   5  10
ENDBRANCH   4   6
ENDBRANCH   1   4
BRANCH   1  12
ATOM     12  C   UNL     1       0.280  10.741  19.648  0.00  0.00    +0.000 C 
BRANCH  12  13
ATOM     13  C   UNL     1      -1.008  10.844  18.846  0.00  0.00    +0.000 A 
ATOM     14  C   UNL     1      -2.108  11.658  19.201  0.00  0.00    +0.000 A 
ATOM     15  C   UNL     1      -3.234  11.762  18.369  0.00  0.00    +0.000 A 
ATOM     16  C   UNL     1      -3.239  11.052  17.188  0.00  0.00    +0.000 A 
ATOM     17  C   UNL     1      -2.193  10.235  16.841  0.00  0.00    +0.000 A 
ATOM     18  C   UNL     1      -1.082  10.101  17.648  0.00  0.00    +0.000 A 
ATOM     19  O   UNL     1      -2.389   9.623  15.642  0.00  0.00    +0.000 OA
ATOM     20  C   UNL     1      -3.624  10.243  15.223  0.00  0.00    +0.000 C 
ATOM     21  O   UNL     1      -4.223  11.064  16.248  0.00  0.00    +0.000 OA
ENDBRANCH  12  13
ENDBRANCH   1  12
BRANCH   2  22
ATOM     22  C   UNL     1       2.357   8.866  18.819  0.00  0.00    +0.000 C 
BRANCH  22  23
ATOM     23  C   UNL     1       2.214   7.913  17.630  0.00  0.00    +0.000 C 
BRANCH  23  24
ATOM     24  C   UNL     1       2.950   6.615  17.910  0.00  0.00    +0.000 C 
ATOM     25  O   UNL     1       4.177   6.565  17.954  0.00  0.00    +0.000 OA
ATOM     26  N   UNL     1       2.109   5.536  18.097  0.00  0.00    +0.000 N 
ATOM     27  C   UNL     1       2.592   4.241  18.309  0.00  0.00    +0.000 A 
ATOM     28  C   UNL     1       3.650   3.980  19.174  0.00  0.00    +0.000 A 
ATOM     29  C   UNL     1       4.112   2.672  19.294  0.00  0.00    +0.000 A 
ATOM     30  C   UNL     1       3.525   1.676  18.526  0.00  0.00    +0.000 A 
ATOM     31  C   UNL     1       2.461   2.024  17.710  0.00  0.00    +0.000 A 
ATOM     32  N   UNL     1       1.955   3.275  17.618  0.00  0.00    +0.000 NA
ATOM     33  H   UNL     1       1.216   5.548  17.626  0.00  0.00    +0.000 HD
ENDBRANCH  23  24
ENDBRANCH  22  23
ENDBRANCH   2  22
TORSDOF 8
ENDMDL
MODEL 9
REMARK VINA RESULT:      -7.9      1.705      2.166
REMARK  Name = 
REMARK  10 active torsions:
REMARK  status: ('A' for Active; 'I' for Inactive)
REMARK    1  A    between atoms: C_1  and  C_2
REMARK    2  A    between atoms: C_2  and  C_3
REMARK    3  A    between atoms: C_2  and  N_4
REMARK    4  A    between atoms: C_5  and  C_7
REMARK    5  A    between atoms: C_7  and  N_8
REMARK    6  A    between atoms: N_8  and  C_9
REMARK    7  A    between atoms: C_9  and  C_10
REMARK    8  A    between atoms: C_19  and  C_21
REMARK    9  A    between atoms: C_21  and  C_22
REMARK   10  A    between atoms: C_22  and  C_23
REMARK                            x       y       z     vdW  Elec       q    Type
REMARK                         _______ _______ _______ _____ _____    ______ ____
ROOT
ATOM      1  N   UNL     1       6.921   5.583  17.639  0.00  0.00    +0.000 N 
ATOM      2  C   UNL     1       7.416   6.744  17.043  0.00  0.00    +0.000 C 
ATOM      3  O   UNL     1       7.970   6.728  15.944  0.00  0.00    +0.000 OA
ENDROOT
BRANCH   1   4
ATOM      4  C   UNL     1       6.968   4.321  16.872  0.00  0.00    +0.000 C 
BRANCH   4   6
ATOM      5  N   UNL     1       7.072   4.340  14.385  0.00  0.00    +0.000 N 
ATOM      6  C   UNL     1       6.261   4.282  15.501  0.00  0.00    +0.000 C 
ATOM      7  O   UNL     1       5.031   4.300  15.422  0.00  0.00    +0.000 OA
ATOM      8  H   UNL     1       8.042   4.603  14.525  0.00  0.00    +0.000 HD
BRANCH   5  10
ATOM      9  C   UNL     1       7.488   4.996  12.032  0.00  0.00    +0.000 C 
ATOM     10  C   UNL     1       6.512   4.373  13.030  0.00  0.00    +0.000 C 
ATOM     11  C   UNL     1       6.106   2.970  12.588  0.00  0.00    +0.000 C 
ENDBRANCH   5  10
ENDBRANCH   4   6
ENDBRANCH   1   4
BRANCH   1  12
ATOM     12  C   UNL     1       6.152   5.578  18.891  0.00  0.00    +0.000 C 
BRANCH  12  13
ATOM     13  C   UNL     1       4.694   5.153  18.813  0.00  0.00    +0.000 A 
ATOM     14  C   UNL     1       3.659   5.940  18.258  0.00  0.00    +0.000 A 
ATOM     15  C   UNL     1       2.348   5.448  18.149  0.00  0.00    +0.000 A 
ATOM     16  C   UNL     1       2.094   4.170  18.595  0.00  0.00    +0.000 A 
ATOM     17  C   UNL     1       3.079   3.402  19.163  0.00  0.00    +0.000 A 
ATOM     18  C   UNL     1       4.371   3.866  19.297  0.00  0.00    +0.000 A 
ATOM     19  O   UNL     1       2.628   2.174  19.537  0.00  0.00    +0.000 OA
ATOM     20  C   UNL     1       1.277   2.219  19.031  0.00  0.00    +0.000 C 
ATOM     21  O   UNL     1       0.900   3.521  18.533  0.00  0.00    +0.000 OA
ENDBRANCH  12  13
ENDBRANCH   1  12
BRANCH   2  22
ATOM     22  C   UNL     1       7.302   8.041  17.827  0.00  0.00    +0.000 C 
BRANCH  22  23
ATOM     23  C   UNL     1       8.572   8.393  18.605  0.00  0.00    +0.000 C 
BRANCH  23  24
ATOM     24  C   UNL     1       8.810   9.891  18.564  0.00  0.00    +0.000 C 
ATOM     25  O   UNL     1       8.268  10.608  17.725  0.00  0.00    +0.000 OA
ATOM     26  N   UNL     1       9.679  10.337  19.539  0.00  0.00    +0.000 N 
ATOM     27  C   UNL     1      10.074  11.675  19.633  0.00  0.00    +0.000 A 
ATOM     28  C   UNL     1       9.168  12.722  19.506  0.00  0.00    +0.000 A 
ATOM     29  C   UNL     1       9.642  14.031  19.557  0.00  0.00    +0.000 A 
ATOM     30  C   UNL     1      11.005  14.249  19.703  0.00  0.00    +0.000 A 
ATOM     31  C   UNL     1      11.830  13.145  19.847  0.00  0.00    +0.000 A 
ATOM     32  N   UNL     1      11.389  11.867  19.858  0.00  0.00    +0.000 NA
ATOM     33  H   UNL     1      10.389   9.696  19.866  0.00  0.00    +0.000 HD
ENDBRANCH  23  24
ENDBRANCH  22  23
ENDBRANCH   2  22
TORSDOF 8
ENDMDL
