MODEL 1
REMARK VINA RESULT:      -8.4      0.000      0.000
REMARK  Name = 
REMARK  9 active torsions:
REMARK  status: ('A' for Active; 'I' for Inactive)
REMARK    1  A    between atoms: C_1  and  C_2
REMARK    2  A    between atoms: C_5  and  C_6
REMARK    3  A    between atoms: C_7  and  C_8
REMARK    4  A    between atoms: C_8  and  N_9
REMARK    5  A    between atoms: C_15  and  C_16
REMARK    6  A    between atoms: C_16  and  N_17
REMARK    7  A    between atoms: C_18  and  C_20
REMARK    8  A    between atoms: C_22  and  C_23
REMARK    9  A    between atoms: C_25  and  C_26
REMARK                            x       y       z     vdW  Elec       q    Type
REMARK                         _______ _______ _______ _____ _____    ______ ____
ROOT
ATOM      1  N   UNL     1       3.367   6.358  18.261  0.00  0.00    +0.000 NA
ATOM      2  C   UNL     1       2.310   5.742  19.060  0.00  0.00    +0.000 C 
ATOM      3  C   UNL     1       2.047   6.328  20.441  0.00  0.00    +0.000 C 
ATOM      4  C   UNL     1       1.520   7.718  20.485  0.00  0.00    +0.000 A 
ATOM      5  N   UNL     1       1.043   8.280  21.582  0.00  0.00    +0.000 NA
ATOM      6  N   UNL     1       0.624   9.538  21.277  0.00  0.00    +0.000 NA
ATOM      7  C   UNL     1       0.833   9.741  19.991  0.00  0.00    +0.000 A 
ATOM      8  N   UNL     1       1.435   8.619  19.457  0.00  0.00    +0.000 N 
ATOM      9  C   UNL     1       1.782   8.401  18.069  0.00  0.00    +0.000 C 
ATOM     10  C   UNL     1       3.143   7.733  17.812  0.00  0.00    +0.000 C 
ENDROOT
BRANCH   1  11
ATOM     11  C   UNL     1       4.753   6.121  18.712  0.00  0.00    +0.000 C 
BRANCH  11  18
ATOM     12  C   UNL     1       5.080   4.204  14.100  0.00  0.00    +0.000 C 
ATOM     13  C   UNL     1       5.720   4.422  15.440  0.00  0.00    +0.000 A 
ATOM     14  C   UNL     1       7.105   4.317  15.581  0.00  0.00    +0.000 A 
ATOM     15  C   UNL     1       7.718   4.654  16.786  0.00  0.00    +0.000 A 
ATOM     16  C   UNL     1       6.969   5.163  17.856  0.00  0.00    +0.000 A 
ATOM     17  C   UNL     1       7.681   5.571  19.116  0.00  0.00    +0.000 C 
ATOM     18  C   UNL     1       5.577   5.343  17.699  0.00  0.00    +0.000 A 
ATOM     19  C   UNL     1       4.959   4.895  16.516  0.00  0.00    +0.000 A 
ENDBRANCH  11  18
ENDBRANCH   1  11
BRANCH   7  20
ATOM     20  C   UNL     1       0.443  10.969  19.260  0.00  0.00    +0.000 C 
BRANCH  20  21
ATOM     21  N   UNL     1      -0.982  10.957  19.053  0.00  0.00    +0.000 N 
ATOM     22  C   UNL     1      -1.598  11.869  18.237  0.00  0.00    +0.000 C 
ATOM     23  O   UNL     1      -0.974  12.828  17.790  0.00  0.00    +0.000 OA
ATOM     24  H   UNL     1      -1.501  10.163  19.423  0.00  0.00    +0.000 HD
BRANCH  22  25
ATOM     25  C   UNL     1      -3.002  11.639  17.946  0.00  0.00    +0.000 A 
ATOM     26  C   UNL     1      -4.168  11.814  18.753  0.00  0.00    +0.000 A 
ATOM     27  C   UNL     1      -5.240  11.413  17.987  0.00  0.00    +0.000 A 
ATOM     28  C   UNL     1      -6.691  11.332  18.232  0.00  0.00    +0.000 C 
ATOM     29  O   UNL     1      -4.816  11.029  16.751  0.00  0.00    +0.000 OA
ATOM     30  C   UNL     1      -3.460  11.160  16.736  0.00  0.00    +0.000 A 
ATOM     31  C   UNL     1      -2.772  10.758  15.488  0.00  0.00    +0.000 C 
ENDBRANCH  22  25
ENDBRANCH  20  21
ENDBRANCH   7  20
TORSDOF 5
ENDMDL
MODEL 2
REMARK VINA RESULT:      -8.3      3.819     10.278
REMARK  Name = 
REMARK  9 active torsions:
REMARK  status: ('A' for Active; 'I' for Inactive)
REMARK    1  A    between atoms: C_1  and  C_2
REMARK    2  A    between atoms: C_5  and  C_6
REMARK    3  A    between atoms: C_7  and  C_8
REMARK    4  A    between atoms: C_8  and  N_9
REMARK    5  A    between atoms: C_15  and  C_16
REMARK    6  A    between atoms: C_16  and  N_17
REMARK    7  A    between atoms: C_18  and  C_20
REMARK    8  A    between atoms: C_22  and  C_23
REMARK    9  A    between atoms: C_25  and  C_26
REMARK                            x       y       z     vdW  Elec       q    Type
REMARK                         _______ _______ _______ _____ _____    ______ ____
ROOT
ATOM      1  N   UNL     1      -0.103   9.894  21.347  0.00  0.00    +0.000 NA
ATOM      2  C   UNL     1      -0.674   9.951  20.004  0.00  0.00    +0.000 C 
ATOM      3  C   UNL     1       0.272  10.280  18.856  0.00  0.00    +0.000 C 
ATOM      4  C   UNL     1       1.331   9.278  18.560  0.00  0.00    +0.000 A 
ATOM      5  N   UNL     1       2.081   9.314  17.473  0.00  0.00    +0.000 NA
ATOM      6  N   UNL     1       2.929   8.249  17.497  0.00  0.00    +0.000 NA
ATOM      7  C   UNL     1       2.688   7.555  18.591  0.00  0.00    +0.000 A 
ATOM      8  N   UNL     1       1.701   8.196  19.314  0.00  0.00    +0.000 N 
ATOM      9  C   UNL     1       1.099   7.741  20.549  0.00  0.00    +0.000 C 
ATOM     10  C   UNL     1       0.853   8.820  21.617  0.00  0.00    +0.000 C 
ENDROOT
BRANCH   1  11
ATOM     11  C   UNL     1       0.301  11.183  21.944  0.00  0.00    +0.000 C 
BRANCH  11  18
ATOM     12  C   UNL     1      -3.892  12.464  24.361  0.00  0.00    +0.000 C 
ATOM     13  C   UNL     1      -2.898  12.770  23.279  0.00  0.00    +0.000 A 
ATOM     14  C   UNL     1      -2.805  14.062  22.758  0.00  0.00    +0.000 A 
ATOM     15  C   UNL     1      -1.794  14.387  21.856  0.00  0.00    +0.000 A 
ATOM     16  C   UNL     1      -0.816  13.446  21.503  0.00  0.00    +0.000 A 
ATOM     17  C   UNL     1       0.291  13.860  20.573  0.00  0.00    +0.000 C 
ATOM     18  C   UNL     1      -0.859  12.158  22.080  0.00  0.00    +0.000 A 
ATOM     19  C   UNL     1      -1.947  11.813  22.903  0.00  0.00    +0.000 A 
ENDBRANCH  11  18
ENDBRANCH   1  11
BRANCH   7  20
ATOM     20  C   UNL     1       3.358   6.282  18.943  0.00  0.00    +0.000 C 
BRANCH  20  21
ATOM     21  N   UNL     1       4.455   6.065  18.035  0.00  0.00    +0.000 N 
ATOM     22  C   UNL     1       4.568   4.910  17.307  0.00  0.00    +0.000 C 
ATOM     23  O   UNL     1       3.829   3.955  17.533  0.00  0.00    +0.000 OA
ATOM     24  H   UNL     1       5.069   6.855  17.847  0.00  0.00    +0.000 HD
BRANCH  22  25
ATOM     25  C   UNL     1       5.596   4.884  16.282  0.00  0.00    +0.000 A 
ATOM     26  C   UNL     1       5.501   4.944  14.857  0.00  0.00    +0.000 A 
ATOM     27  C   UNL     1       6.787   4.848  14.374  0.00  0.00    +0.000 A 
ATOM     28  C   UNL     1       7.365   4.831  13.018  0.00  0.00    +0.000 C 
ATOM     29  O   UNL     1       7.672   4.761  15.406  0.00  0.00    +0.000 OA
ATOM     30  C   UNL     1       6.943   4.775  16.557  0.00  0.00    +0.000 A 
ATOM     31  C   UNL     1       7.704   4.651  17.821  0.00  0.00    +0.000 C 
ENDBRANCH  22  25
ENDBRANCH  20  21
ENDBRANCH   7  20
TORSDOF 5
ENDMDL
MODEL 3
REMARK VINA RESULT:      -8.2      0.852      1.631
REMARK  Name = 
REMARK  9 active torsions:
REMARK  status: ('A' for Active; 'I' for Inactive)
REMARK    1  A    between atoms: C_1  and  C_2
REMARK    2  A    between atoms: C_5  and  C_6
REMARK    3  A    between atoms: C_7  and  C_8
REMARK    4  A    between atoms: C_8  and  N_9
REMARK    5  A    between atoms: C_15  and  C_16
REMARK    6  A    between atoms: C_16  and  N_17
REMARK    7  A    between atoms: C_18  and  C_20
REMARK    8  A    between atoms: C_22  and  C_23
REMARK    9  A    between atoms: C_25  and  C_26
REMARK                            x       y       z     vdW  Elec       q    Type
REMARK                         _______ _______ _______ _____ _____    ______ ____
ROOT
ATOM      1  N   UNL     1       3.335   5.865  18.174  0.00  0.00    +0.000 NA
ATOM      2  C   UNL     1       2.233   5.387  19.005  0.00  0.00    +0.000 C 
ATOM      3  C   UNL     1       2.045   6.049  20.365  0.00  0.00    +0.000 C 
ATOM      4  C   UNL     1       1.656   7.484  20.357  0.00  0.00    +0.000 A 
ATOM      5  N   UNL     1       1.249   8.132  21.434  0.00  0.00    +0.000 NA
ATOM      6  N   UNL     1       0.951   9.413  21.082  0.00  0.00    +0.000 NA
ATOM      7  C   UNL     1       1.162   9.545  19.788  0.00  0.00    +0.000 A 
ATOM      8  N   UNL     1       1.646   8.349  19.295  0.00  0.00    +0.000 N 
ATOM      9  C   UNL     1       1.954   8.044  17.913  0.00  0.00    +0.000 C 
ATOM     10  C   UNL     1       3.241   7.237  17.672  0.00  0.00    +0.000 C 
ENDROOT
BRANCH   1  11
ATOM     11  C   UNL     1       4.697   5.512  18.623  0.00  0.00    +0.000 C 
BRANCH  11  18
ATOM     12  C   UNL     1       5.125   3.885  13.909  0.00  0.00    +0.000 C 
ATOM     13  C   UNL     1       5.801   4.343  15.167  0.00  0.00    +0.000 A 
ATOM     14  C   UNL     1       7.119   4.804  15.127  0.00  0.00    +0.000 A 
ATOM     15  C   UNL     1       7.706   5.360  16.262  0.00  0.00    +0.000 A 
ATOM     16  C   UNL     1       6.970   5.526  17.444  0.00  0.00    +0.000 A 
ATOM     17  C   UNL     1       7.627   6.186  18.624  0.00  0.00    +0.000 C 
ATOM     18  C   UNL     1       5.615   5.130  17.473  0.00  0.00    +0.000 A 
ATOM     19  C   UNL     1       5.070   4.471  16.355  0.00  0.00    +0.000 A 
ENDBRANCH  11  18
ENDBRANCH   1  11
BRANCH   7  20
ATOM     20  C   UNL     1       0.886  10.775  19.012  0.00  0.00    +0.000 C 
BRANCH  20  21
ATOM     21  N   UNL     1      -0.195  10.516  18.096  0.00  0.00    +0.000 N 
ATOM     22  C   UNL     1      -1.472  10.942  18.351  0.00  0.00    +0.000 C 
ATOM     23  O   UNL     1      -1.766  11.412  19.447  0.00  0.00    +0.000 OA
ATOM     24  H   UNL     1       0.047  10.126  17.187  0.00  0.00    +0.000 HD
BRANCH  22  25
ATOM     25  C   UNL     1      -2.434  10.802  17.272  0.00  0.00    +0.000 A 
ATOM     26  C   UNL     1      -2.289  10.279  15.949  0.00  0.00    +0.000 A 
ATOM     27  C   UNL     1      -3.516  10.416  15.338  0.00  0.00    +0.000 A 
ATOM     28  C   UNL     1      -4.022  10.091  13.992  0.00  0.00    +0.000 C 
ATOM     29  O   UNL     1      -4.415  10.962  16.203  0.00  0.00    +0.000 OA
ATOM     30  C   UNL     1      -3.751  11.200  17.369  0.00  0.00    +0.000 A 
ATOM     31  C   UNL     1      -4.532  11.835  18.455  0.00  0.00    +0.000 C 
ENDBRANCH  22  25
ENDBRANCH  20  21
ENDBRANCH   7  20
TORSDOF 5
ENDMDL
MODEL 4
REMARK VINA RESULT:      -8.0      3.629      6.151
REMARK  Name = 
REMARK  9 active torsions:
REMARK  status: ('A' for Active; 'I' for Inactive)
REMARK    1  A    between atoms: C_1  and  C_2
REMARK    2  A    between atoms: C_5  and  C_6
REMARK    3  A    between atoms: C_7  and  C_8
REMARK    4  A    between atoms: C_8  and  N_9
REMARK    5  A    between atoms: C_15  and  C_16
REMARK    6  A    between atoms: C_16  and  N_17
REMARK    7  A    between atoms: C_18  and  C_20
REMARK    8  A    between atoms: C_22  and  C_23
REMARK    9  A    between atoms: C_25  and  C_26
REMARK                            x       y       z     vdW  Elec       q    Type
REMARK                         _______ _______ _______ _____ _____    ______ ____
ROOT
ATOM      1  N   UNL     1       0.393   8.634  20.360  0.00  0.00    +0.000 NA
ATOM      2  C   UNL     1      -0.586   8.556  21.442  0.00  0.00    +0.000 C 
ATOM      3  C   UNL     1      -0.405   9.506  22.619  0.00  0.00    +0.000 C 
ATOM      4  C   UNL     1      -0.567  10.957  22.333  0.00  0.00    +0.000 A 
ATOM      5  N   UNL     1      -0.655  11.878  23.276  0.00  0.00    +0.000 NA
ATOM      6  N   UNL     1      -0.819  13.092  22.682  0.00  0.00    +0.000 NA
ATOM      7  C   UNL     1      -0.845  12.912  21.377  0.00  0.00    +0.000 A 
ATOM      8  N   UNL     1      -0.652  11.570  21.111  0.00  0.00    +0.000 N 
ATOM      9  C   UNL     1      -0.668  10.935  19.810  0.00  0.00    +0.000 C 
ATOM     10  C   UNL     1       0.411   9.866  19.570  0.00  0.00    +0.000 C 
ENDROOT
BRANCH   1  11
ATOM     11  C   UNL     1       1.747   8.129  20.663  0.00  0.00    +0.000 C 
BRANCH  11  18
ATOM     12  C   UNL     1       1.088   3.167  20.720  0.00  0.00    +0.000 C 
ATOM     13  C   UNL     1       1.692   4.367  20.051  0.00  0.00    +0.000 A 
ATOM     14  C   UNL     1       2.091   4.297  18.715  0.00  0.00    +0.000 A 
ATOM     15  C   UNL     1       2.522   5.442  18.047  0.00  0.00    +0.000 A 
ATOM     16  C   UNL     1       2.504   6.693  18.681  0.00  0.00    +0.000 A 
ATOM     17  C   UNL     1       2.921   7.910  17.903  0.00  0.00    +0.000 C 
ATOM     18  C   UNL     1       2.034   6.786  20.009  0.00  0.00    +0.000 A 
ATOM     19  C   UNL     1       1.706   5.606  20.704  0.00  0.00    +0.000 A 
ENDBRANCH  11  18
ENDBRANCH   1  11
BRANCH   7  20
ATOM     20  C   UNL     1      -1.079  13.986  20.385  0.00  0.00    +0.000 C 
BRANCH  20  21
ATOM     21  N   UNL     1       0.150  14.709  20.183  0.00  0.00    +0.000 N 
ATOM     22  C   UNL     1       0.934  14.500  19.078  0.00  0.00    +0.000 C 
ATOM     23  O   UNL     1       0.697  13.569  18.312  0.00  0.00    +0.000 OA
ATOM     24  H   UNL     1       0.349  15.480  20.817  0.00  0.00    +0.000 HD
BRANCH  22  25
ATOM     25  C   UNL     1       2.039  15.421  18.879  0.00  0.00    +0.000 A 
ATOM     26  C   UNL     1       3.441  15.269  19.116  0.00  0.00    +0.000 A 
ATOM     27  C   UNL     1       4.027  16.470  18.782  0.00  0.00    +0.000 A 
ATOM     28  C   UNL     1       5.414  16.967  18.811  0.00  0.00    +0.000 C 
ATOM     29  O   UNL     1       3.085  17.343  18.329  0.00  0.00    +0.000 OA
ATOM     30  C   UNL     1       1.883  16.704  18.398  0.00  0.00    +0.000 A 
ATOM     31  C   UNL     1       0.695  17.486  17.986  0.00  0.00    +0.000 C 
ENDBRANCH  22  25
ENDBRANCH  20  21
ENDBRANCH   7  20
TORSDOF 5
ENDMDL
MODEL 5
REMARK VINA RESULT:      -7.8      3.838      9.209
REMARK  Name = 
REMARK  9 active torsions:
REMARK  status: ('A' for Active; 'I' for Inactive)
REMARK    1  A    between atoms: C_1  and  C_2
REMARK    2  A    between atoms: C_5  and  C_6
REMARK    3  A    between atoms: C_7  and  C_8
REMARK    4  A    between atoms: C_8  and  N_9
REMARK    5  A    between atoms: C_15  and  C_16
REMARK    6  A    between atoms: C_16  and  N_17
REMARK    7  A    between atoms: C_18  and  C_20
REMARK    8  A    between atoms: C_22  and  C_23
REMARK    9  A    between atoms: C_25  and  C_26
REMARK                            x       y       z     vdW  Elec       q    Type
REMARK                         _______ _______ _______ _____ _____    ______ ____
ROOT
ATOM      1  N   UNL     1       2.180   8.255  19.046  0.00  0.00    +0.000 NA
ATOM      2  C   UNL     1       1.752   7.971  20.413  0.00  0.00    +0.000 C 
ATOM      3  C   UNL     1       0.880   6.741  20.631  0.00  0.00    +0.000 C 
ATOM      4  C   UNL     1       1.512   5.422  20.363  0.00  0.00    +0.000 A 
ATOM      5  N   UNL     1       0.966   4.270  20.709  0.00  0.00    +0.000 NA
ATOM      6  N   UNL     1       1.806   3.264  20.342  0.00  0.00    +0.000 NA
ATOM      7  C   UNL     1       2.872   3.801  19.784  0.00  0.00    +0.000 A 
ATOM      8  N   UNL     1       2.709   5.172  19.746  0.00  0.00    +0.000 N 
ATOM      9  C   UNL     1       3.669   6.144  19.267  0.00  0.00    +0.000 C 
ATOM     10  C   UNL     1       3.097   7.297  18.426  0.00  0.00    +0.000 C 
ENDROOT
BRANCH   1  11
ATOM     11  C   UNL     1       1.136   8.731  18.117  0.00  0.00    +0.000 C 
BRANCH  11  18
ATOM     12  C   UNL     1       2.561  13.509  18.560  0.00  0.00    +0.000 C 
ATOM     13  C   UNL     1       1.449  12.502  18.578  0.00  0.00    +0.000 A 
ATOM     14  C   UNL     1       0.127  12.915  18.396  0.00  0.00    +0.000 A 
ATOM     15  C   UNL     1      -0.894  11.974  18.272  0.00  0.00    +0.000 A 
ATOM     16  C   UNL     1      -0.609  10.601  18.264  0.00  0.00    +0.000 A 
ATOM     17  C   UNL     1      -1.735   9.625  18.066  0.00  0.00    +0.000 C 
ATOM     18  C   UNL     1       0.733  10.175  18.374  0.00  0.00    +0.000 A 
ATOM     19  C   UNL     1       1.738  11.132  18.608  0.00  0.00    +0.000 A 
ENDBRANCH  11  18
ENDBRANCH   1  11
BRANCH   7  20
ATOM     20  C   UNL     1       4.051   3.036  19.316  0.00  0.00    +0.000 C 
BRANCH  20  21
ATOM     21  N   UNL     1       4.523   3.615  18.084  0.00  0.00    +0.000 N 
ATOM     22  C   UNL     1       5.789   4.126  17.968  0.00  0.00    +0.000 C 
ATOM     23  O   UNL     1       6.502   4.258  18.960  0.00  0.00    +0.000 OA
ATOM     24  H   UNL     1       3.933   3.507  17.261  0.00  0.00    +0.000 HD
BRANCH  22  25
ATOM     25  C   UNL     1       6.221   4.499  16.633  0.00  0.00    +0.000 A 
ATOM     26  C   UNL     1       6.077   3.828  15.379  0.00  0.00    +0.000 A 
ATOM     27  C   UNL     1       6.703   4.616  14.438  0.00  0.00    +0.000 A 
ATOM     28  C   UNL     1       6.921   4.486  12.986  0.00  0.00    +0.000 C 
ATOM     29  O   UNL     1       7.200   5.741  15.023  0.00  0.00    +0.000 OA
ATOM     30  C   UNL     1       6.911   5.660  16.352  0.00  0.00    +0.000 A 
ATOM     31  C   UNL     1       7.396   6.772  17.202  0.00  0.00    +0.000 C 
ENDBRANCH  22  25
ENDBRANCH  20  21
ENDBRANCH   7  20
TORSDOF 5
ENDMDL
MODEL 6
REMARK VINA RESULT:      -7.7      1.376      2.012
REMARK  Name = 
REMARK  9 active torsions:
REMARK  status: ('A' for Active; 'I' for Inactive)
REMARK    1  A    between atoms: C_1  and  C_2
REMARK    2  A    between atoms: C_5  and  C_6
REMARK    3  A    between atoms: C_7  and  C_8
REMARK    4  A    between atoms: C_8  and  N_9
REMARK    5  A    between atoms: C_15  and  C_16
REMARK    6  A    between atoms: C_16  and  N_17
REMARK    7  A    between atoms: C_18  and  C_20
REMARK    8  A    between atoms: C_22  and  C_23
REMARK    9  A    between atoms: C_25  and  C_26
REMARK                            x       y       z     vdW  Elec       q    Type
REMARK                         _______ _______ _______ _____ _____    ______ ____
ROOT
ATOM      1  N   UNL     1       2.675   7.640  17.979  0.00  0.00    +0.000 NA
ATOM      2  C   UNL     1       1.837   6.872  18.896  0.00  0.00    +0.000 C 
ATOM      3  C   UNL     1       1.905   7.235  20.374  0.00  0.00    +0.000 C 
ATOM      4  C   UNL     1       1.400   8.581  20.752  0.00  0.00    +0.000 A 
ATOM      5  N   UNL     1       1.193   8.955  22.003  0.00  0.00    +0.000 NA
ATOM      6  N   UNL     1       0.711  10.228  22.000  0.00  0.00    +0.000 NA
ATOM      7  C   UNL     1       0.611  10.628  20.748  0.00  0.00    +0.000 A 
ATOM      8  N   UNL     1       1.074   9.622  19.923  0.00  0.00    +0.000 N 
ATOM      9  C   UNL     1       1.085   9.626  18.475  0.00  0.00    +0.000 C 
ATOM     10  C   UNL     1       2.350   9.056  17.810  0.00  0.00    +0.000 C 
ENDROOT
BRANCH   1  11
ATOM     11  C   UNL     1       4.129   7.392  18.054  0.00  0.00    +0.000 C 
BRANCH  11  18
ATOM     12  C   UNL     1       3.955   2.636  19.605  0.00  0.00    +0.000 C 
ATOM     13  C   UNL     1       4.389   3.623  18.562  0.00  0.00    +0.000 A 
ATOM     14  C   UNL     1       4.691   3.189  17.269  0.00  0.00    +0.000 A 
ATOM     15  C   UNL     1       4.959   4.113  16.260  0.00  0.00    +0.000 A 
ATOM     16  C   UNL     1       4.870   5.490  16.505  0.00  0.00    +0.000 A 
ATOM     17  C   UNL     1       5.107   6.449  15.371  0.00  0.00    +0.000 C 
ATOM     18  C   UNL     1       4.493   5.939  17.790  0.00  0.00    +0.000 A 
ATOM     19  C   UNL     1       4.334   4.998  18.824  0.00  0.00    +0.000 A 
ENDBRANCH  11  18
ENDBRANCH   1  11
BRANCH   7  20
ATOM     20  C   UNL     1       0.058  11.936  20.325  0.00  0.00    +0.000 C 
BRANCH  20  21
ATOM     21  N   UNL     1      -1.313  11.755  19.925  0.00  0.00    +0.000 N 
ATOM     22  C   UNL     1      -1.753  12.120  18.680  0.00  0.00    +0.000 C 
ATOM     23  O   UNL     1      -1.029  12.768  17.927  0.00  0.00    +0.000 OA
ATOM     24  H   UNL     1      -1.914  11.218  20.547  0.00  0.00    +0.000 HD
BRANCH  22  25
ATOM     25  C   UNL     1      -3.098  11.710  18.317  0.00  0.00    +0.000 A 
ATOM     26  C   UNL     1      -4.348  11.900  18.984  0.00  0.00    +0.000 A 
ATOM     27  C   UNL     1      -5.303  11.276  18.211  0.00  0.00    +0.000 A 
ATOM     28  C   UNL     1      -6.760  11.095  18.346  0.00  0.00    +0.000 C 
ATOM     29  O   UNL     1      -4.730  10.738  17.099  0.00  0.00    +0.000 OA
ATOM     30  C   UNL     1      -3.394  10.997  17.174  0.00  0.00    +0.000 A 
ATOM     31  C   UNL     1      -2.556  10.465  16.075  0.00  0.00    +0.000 C 
ENDBRANCH  22  25
ENDBRANCH  20  21
ENDBRANCH   7  20
TORSDOF 5
ENDMDL
MODEL 7
REMARK VINA RESULT:      -7.7      1.588      2.515
REMARK  Name = 
REMARK  9 active torsions:
REMARK  status: ('A' for Active; 'I' for Inactive)
REMARK    1  A    between atoms: C_1  and  C_2
REMARK    2  A    between atoms: C_5  and  C_6
REMARK    3  A    between atoms: C_7  and  C_8
REMARK    4  A    between atoms: C_8  and  N_9
REMARK    5  A    between atoms: C_15  and  C_16
REMARK    6  A    between atoms: C_16  and  N_17
REMARK    7  A    between atoms: C_18  and  C_20
REMARK    8  A    between atoms: C_22  and  C_23
REMARK    9  A    between atoms: C_25  and  C_26
REMARK                            x       y       z     vdW  Elec       q    Type
REMARK                         _______ _______ _______ _____ _____    ______ ____
ROOT
ATOM      1  N   UNL     1       3.659   5.109  17.087  0.00  0.00    +0.000 NA
ATOM      2  C   UNL     1       2.407   4.433  17.419  0.00  0.00    +0.000 C 
ATOM      3  C   UNL     1       2.103   4.211  18.895  0.00  0.00    +0.000 C 
ATOM      4  C   UNL     1       1.874   5.429  19.717  0.00  0.00    +0.000 A 
ATOM      5  N   UNL     1       1.392   5.395  20.947  0.00  0.00    +0.000 NA
ATOM      6  N   UNL     1       1.284   6.672  21.405  0.00  0.00    +0.000 NA
ATOM      7  C   UNL     1       1.686   7.488  20.451  0.00  0.00    +0.000 A 
ATOM      8  N   UNL     1       2.104   6.734  19.372  0.00  0.00    +0.000 N 
ATOM      9  C   UNL     1       2.567   7.234  18.094  0.00  0.00    +0.000 C 
ATOM     10  C   UNL     1       3.782   6.511  17.488  0.00  0.00    +0.000 C 
ENDROOT
BRANCH   1  11
ATOM     11  C   UNL     1       4.900   4.340  17.309  0.00  0.00    +0.000 C 
BRANCH  11  18
ATOM     12  C   UNL     1       5.679   3.347  12.465  0.00  0.00    +0.000 C 
ATOM     13  C   UNL     1       6.204   3.910  13.753  0.00  0.00    +0.000 A 
ATOM     14  C   UNL     1       7.277   4.804  13.741  0.00  0.00    +0.000 A 
ATOM     15  C   UNL     1       7.679   5.438  14.915  0.00  0.00    +0.000 A 
ATOM     16  C   UNL     1       6.979   5.241  16.114  0.00  0.00    +0.000 A 
ATOM     17  C   UNL     1       7.412   5.993  17.342  0.00  0.00    +0.000 C 
ATOM     18  C   UNL     1       5.848   4.396  16.121  0.00  0.00    +0.000 A 
ATOM     19  C   UNL     1       5.521   3.680  14.954  0.00  0.00    +0.000 A 
ENDBRANCH  11  18
ENDBRANCH   1  11
BRANCH   7  20
ATOM     20  C   UNL     1       1.652   8.966  20.538  0.00  0.00    +0.000 C 
BRANCH  20  21
ATOM     21  N   UNL     1       0.398   9.436  20.008  0.00  0.00    +0.000 N 
ATOM     22  C   UNL     1       0.346  10.329  18.970  0.00  0.00    +0.000 C 
ATOM     23  O   UNL     1       1.368  10.884  18.573  0.00  0.00    +0.000 OA
ATOM     24  H   UNL     1      -0.449   8.977  20.337  0.00  0.00    +0.000 HD
BRANCH  22  25
ATOM     25  C   UNL     1      -0.961  10.577  18.389  0.00  0.00    +0.000 A 
ATOM     26  C   UNL     1      -1.587  10.038  17.222  0.00  0.00    +0.000 A 
ATOM     27  C   UNL     1      -2.819  10.646  17.121  0.00  0.00    +0.000 A 
ATOM     28  C   UNL     1      -3.925  10.545  16.152  0.00  0.00    +0.000 C 
ATOM     29  O   UNL     1      -3.007  11.503  18.162  0.00  0.00    +0.000 OA
ATOM     30  C   UNL     1      -1.875  11.462  18.921  0.00  0.00    +0.000 A 
ATOM     31  C   UNL     1      -1.840  12.356  20.101  0.00  0.00    +0.000 C 
ENDBRANCH  22  25
ENDBRANCH  20  21
ENDBRANCH   7  20
TORSDOF 5
ENDMDL
MODEL 8
REMARK VINA RESULT:      -7.7      1.282      1.485
REMARK  Name = 
REMARK  9 active torsions:
REMARK  status: ('A' for Active; 'I' for Inactive)
REMARK    1  A    between atoms: C_1  and  C_2
REMARK    2  A    between atoms: C_5  and  C_6
REMARK    3  A    between atoms: C_7  and  C_8
REMARK    4  A    between atoms: C_8  and  N_9
REMARK    5  A    between atoms: C_15  and  C_16
REMARK    6  A    between atoms: C_16  and  N_17
REMARK    7  A    between atoms: C_18  and  C_20
REMARK    8  A    between atoms: C_22  and  C_23
REMARK    9  A    between atoms: C_25  and  C_26
REMARK                            x       y       z     vdW  Elec       q    Type
REMARK                         _______ _______ _______ _____ _____    ______ ____
ROOT
ATOM      1  N   UNL     1       3.102   5.163  18.459  0.00  0.00    +0.000 NA
ATOM      2  C   UNL     1       1.926   4.948  19.298  0.00  0.00    +0.000 C 
ATOM      3  C   UNL     1       1.818   5.773  20.574  0.00  0.00    +0.000 C 
ATOM      4  C   UNL     1       1.653   7.241  20.404  0.00  0.00    +0.000 A 
ATOM      5  N   UNL     1       1.331   8.056  21.394  0.00  0.00    +0.000 NA
ATOM      6  N   UNL     1       1.239   9.321  20.901  0.00  0.00    +0.000 NA
ATOM      7  C   UNL     1       1.490   9.279  19.608  0.00  0.00    +0.000 A 
ATOM      8  N   UNL     1       1.794   7.978  19.258  0.00  0.00    +0.000 N 
ATOM      9  C   UNL     1       2.075   7.483  17.927  0.00  0.00    +0.000 C 
ATOM     10  C   UNL     1       3.227   6.471  17.814  0.00  0.00    +0.000 C 
ENDROOT
BRANCH   1  11
ATOM     11  C   UNL     1       4.386   4.660  18.987  0.00  0.00    +0.000 C 
BRANCH  11  18
ATOM     12  C   UNL     1       5.472   3.861  14.166  0.00  0.00    +0.000 C 
ATOM     13  C   UNL     1       5.963   4.151  15.554  0.00  0.00    +0.000 A 
ATOM     14  C   UNL     1       7.233   4.700  15.748  0.00  0.00    +0.000 A 
ATOM     15  C   UNL     1       7.641   5.100  17.019  0.00  0.00    +0.000 A 
ATOM     16  C   UNL     1       6.767   5.020  18.112  0.00  0.00    +0.000 A 
ATOM     17  C   UNL     1       7.230   5.521  19.453  0.00  0.00    +0.000 C 
ATOM     18  C   UNL     1       5.456   4.535  17.913  0.00  0.00    +0.000 A 
ATOM     19  C   UNL     1       5.097   4.033  16.649  0.00  0.00    +0.000 A 
ENDBRANCH  11  18
ENDBRANCH   1  11
BRANCH   7  20
ATOM     20  C   UNL     1       1.417  10.446  18.699  0.00  0.00    +0.000 C 
BRANCH  20  21
ATOM     21  N   UNL     1       0.188  11.154  18.946  0.00  0.00    +0.000 N 
ATOM     22  C   UNL     1      -0.991  10.777  18.358  0.00  0.00    +0.000 C 
ATOM     23  O   UNL     1      -1.000   9.926  17.471  0.00  0.00    +0.000 OA
ATOM     24  H   UNL     1       0.195  11.859  19.680  0.00  0.00    +0.000 HD
BRANCH  22  25
ATOM     25  C   UNL     1      -2.196  11.433  18.832  0.00  0.00    +0.000 A 
ATOM     26  C   UNL     1      -2.426  12.256  19.978  0.00  0.00    +0.000 A 
ATOM     27  C   UNL     1      -3.764  12.585  19.961  0.00  0.00    +0.000 A 
ATOM     28  C   UNL     1      -4.626  13.381  20.854  0.00  0.00    +0.000 C 
ATOM     29  O   UNL     1      -4.368  12.045  18.867  0.00  0.00    +0.000 OA
ATOM     30  C   UNL     1      -3.414  11.342  18.192  0.00  0.00    +0.000 A 
ATOM     31  C   UNL     1      -3.859  10.629  16.973  0.00  0.00    +0.000 C 
ENDBRANCH  22  25
ENDBRANCH  20  21
ENDBRANCH   7  20
TORSDOF 5
ENDMDL
MODEL 9
REMARK VINA RESULT:      -7.7      3.258      4.673
REMARK  Name = 
REMARK  9 active torsions:
REMARK  status: ('A' for Active; 'I' for Inactive)
REMARK    1  A    between atoms: C_1  and  C_2
REMARK    2  A    between atoms: C_5  and  C_6
REMARK    3  A    between atoms: C_7  and  C_8
REMARK    4  A    between atoms: C_8  and  N_9
REMARK    5  A    between atoms: C_15  and  C_16
REMARK    6  A    between atoms: C_16  and  N_17
REMARK    7  A    between atoms: C_18  and  C_20
REMARK    8  A    between atoms: C_22  and  C_23
REMARK    9  A    between atoms: C_25  and  C_26
REMARK                            x       y       z     vdW  Elec       q    Type
REMARK                         _______ _______ _______ _____ _____    ______ ____
ROOT
ATOM      1  N   UNL     1       2.328   7.536  19.128  0.00  0.00    +0.000 NA
ATOM      2  C   UNL     1       2.439   8.691  18.241  0.00  0.00    +0.000 C 
ATOM      3  C   UNL     1       1.145   9.375  17.818  0.00  0.00    +0.000 C 
ATOM      4  C   UNL     1       0.367  10.047  18.893  0.00  0.00    +0.000 A 
ATOM      5  N   UNL     1      -0.649  10.858  18.656  0.00  0.00    +0.000 NA
ATOM      6  N   UNL     1      -1.122  11.319  19.847  0.00  0.00    +0.000 NA
ATOM      7  C   UNL     1      -0.387  10.801  20.810  0.00  0.00    +0.000 A 
ATOM      8  N   UNL     1       0.550   9.957  20.248  0.00  0.00    +0.000 N 
ATOM      9  C   UNL     1       1.591   9.232  20.945  0.00  0.00    +0.000 C 
ATOM     10  C   UNL     1       1.831   7.785  20.482  0.00  0.00    +0.000 C 
ENDROOT
BRANCH   1  11
ATOM     11  C   UNL     1       1.777   6.302  18.533  0.00  0.00    +0.000 C 
BRANCH  11  18
ATOM     12  C   UNL     1       1.499   2.465  21.736  0.00  0.00    +0.000 C 
ATOM     13  C   UNL     1       2.262   3.172  20.654  0.00  0.00    +0.000 A 
ATOM     14  C   UNL     1       3.235   2.488  19.922  0.00  0.00    +0.000 A 
ATOM     15  C   UNL     1       3.847   3.095  18.826  0.00  0.00    +0.000 A 
ATOM     16  C   UNL     1       3.456   4.372  18.400  0.00  0.00    +0.000 A 
ATOM     17  C   UNL     1       4.101   4.961  17.176  0.00  0.00    +0.000 C 
ATOM     18  C   UNL     1       2.422   5.042  19.089  0.00  0.00    +0.000 A 
ATOM     19  C   UNL     1       1.891   4.463  20.257  0.00  0.00    +0.000 A 
ENDBRANCH  11  18
ENDBRANCH   1  11
BRANCH   7  20
ATOM     20  C   UNL     1      -0.543  11.118  22.249  0.00  0.00    +0.000 C 
BRANCH  20  21
ATOM     21  N   UNL     1      -1.934  11.373  22.522  0.00  0.00    +0.000 N 
ATOM     22  C   UNL     1      -2.356  12.561  23.058  0.00  0.00    +0.000 C 
ATOM     23  O   UNL     1      -1.541  13.380  23.477  0.00  0.00    +0.000 OA
ATOM     24  H   UNL     1      -2.610  10.695  22.175  0.00  0.00    +0.000 HD
BRANCH  22  25
ATOM     25  C   UNL     1      -3.790  12.783  23.103  0.00  0.00    +0.000 A 
ATOM     26  C   UNL     1      -4.701  12.809  24.204  0.00  0.00    +0.000 A 
ATOM     27  C   UNL     1      -5.952  13.031  23.673  0.00  0.00    +0.000 A 
ATOM     28  C   UNL     1      -7.299  13.149  24.260  0.00  0.00    +0.000 C 
ATOM     29  O   UNL     1      -5.871  13.171  22.320  0.00  0.00    +0.000 OA
ATOM     30  C   UNL     1      -4.560  13.012  21.982  0.00  0.00    +0.000 A 
ATOM     31  C   UNL     1      -4.238  13.087  20.538  0.00  0.00    +0.000 C 
ENDBRANCH  22  25
ENDBRANCH  20  21
ENDBRANCH   7  20
TORSDOF 5
ENDMDL
