MODEL 1
REMARK VINA RESULT:      -7.8      0.000      0.000
REMARK  Name = 
REMARK  6 active torsions:
REMARK  status: ('A' for Active; 'I' for Inactive)
REMARK    1  A    between atoms: N_1  and  C_2
REMARK    2  A    between atoms: C_2  and  C_3
REMARK    3  A    between atoms: C_7  and  C_8
REMARK    4  A    between atoms: C_12  and  C_14
REMARK    5  A    between atoms: C_17  and  C_18
REMARK    6  A    between atoms: C_19  and  C_20
REMARK                            x       y       z     vdW  Elec       q    Type
REMARK                         _______ _______ _______ _____ _____    ______ ____
ROOT
ATOM      1  C   UNL     1       7.074   5.724  16.241  0.00  0.00    +0.000 C 
ATOM      2  C   UNL     1       7.538   4.662  17.263  0.00  0.00    +0.000 C 
ATOM      3  C   UNL     1       6.464   3.612  17.559  0.00  0.00    +0.000 C 
ATOM      4  N   UNL     1       5.207   4.238  17.960  0.00  0.00    +0.000 N 
ATOM      5  C   UNL     1       4.563   3.774  19.119  0.00  0.00    +0.000 C 
ATOM      6  O   UNL     1       5.118   2.960  19.859  0.00  0.00    +0.000 OA
ATOM      7  C   UNL     1       4.697   5.248  17.033  0.00  0.00    +0.000 C 
ATOM      8  C   UNL     1       5.746   6.317  16.742  0.00  0.00    +0.000 C 
ENDROOT
BRANCH   1  13
ATOM      9  C   UNL     1       6.102   3.915  12.964  0.00  0.00    +0.000 A 
ATOM     10  C   UNL     1       7.076   4.402  12.091  0.00  0.00    +0.000 A 
ATOM     11  C   UNL     1       8.029   5.310  12.547  0.00  0.00    +0.000 A 
ATOM     12  C   UNL     1       8.016   5.738  13.878  0.00  0.00    +0.000 A 
ATOM     13  C   UNL     1       7.034   5.288  14.778  0.00  0.00    +0.000 A 
ATOM     14  C   UNL     1       6.093   4.367  14.295  0.00  0.00    +0.000 A 
BRANCH   9  15
ATOM     15  C   UNL     1       5.088   2.891  12.525  0.00  0.00    +0.000 C 
BRANCH  15  16
ATOM     16  N   UNL     1       5.711   1.820  11.757  0.00  0.00    +0.000 NA
ATOM     17  H   UNL     1       6.680   2.065  11.567  0.00  0.00    +0.000 HD
ATOM     18  H   UNL     1       5.245   1.751  10.854  0.00  0.00    +0.000 HD
ENDBRANCH  15  16
ENDBRANCH   9  15
ENDBRANCH   1  13
BRANCH   5  19
ATOM     19  C   UNL     1       3.261   4.310  19.477  0.00  0.00    +0.000 A 
ATOM     20  C   UNL     1       2.014   3.704  19.430  0.00  0.00    +0.000 A 
ATOM     21  C   UNL     1       1.078   4.641  19.928  0.00  0.00    +0.000 A 
ATOM     22  C   UNL     1       1.800   5.776  20.202  0.00  0.00    +0.000 A 
ATOM     23  O   UNL     1       3.108   5.609  19.891  0.00  0.00    +0.000 OA
BRANCH  22  24
ATOM     24  C   UNL     1       1.411   7.020  20.748  0.00  0.00    +0.000 C 
ATOM     25  C   UNL     1       1.024   8.061  21.204  0.00  0.00    +0.000 C 
BRANCH  25  26
ATOM     26  C   UNL     1       0.492   9.289  21.701  0.00  0.00    +0.000 A 
ATOM     27  C   UNL     1      -0.468   9.299  22.709  0.00  0.00    +0.000 A 
ATOM     28  C   UNL     1      -1.022  10.511  23.114  0.00  0.00    +0.000 A 
ATOM     29  C   UNL     1      -0.584  11.673  22.496  0.00  0.00    +0.000 A 
ATOM     30  N   UNL     1       0.359  11.701  21.530  0.00  0.00    +0.000 NA
ATOM     31  C   UNL     1       0.877  10.506  21.153  0.00  0.00    +0.000 A 
ENDBRANCH  25  26
ENDBRANCH  22  24
ENDBRANCH   5  19
TORSDOF 6
ENDMDL
MODEL 2
REMARK VINA RESULT:      -7.6      0.806      1.024
REMARK  Name = 
REMARK  6 active torsions:
REMARK  status: ('A' for Active; 'I' for Inactive)
REMARK    1  A    between atoms: N_1  and  C_2
REMARK    2  A    between atoms: C_2  and  C_3
REMARK    3  A    between atoms: C_7  and  C_8
REMARK    4  A    between atoms: C_12  and  C_14
REMARK    5  A    between atoms: C_17  and  C_18
REMARK    6  A    between atoms: C_19  and  C_20
REMARK                            x       y       z     vdW  Elec       q    Type
REMARK                         _______ _______ _______ _____ _____    ______ ____
ROOT
ATOM      1  C   UNL     1       6.695   5.840  15.956  0.00  0.00    +0.000 C 
ATOM      2  C   UNL     1       7.364   4.985  17.055  0.00  0.00    +0.000 C 
ATOM      3  C   UNL     1       6.489   3.817  17.516  0.00  0.00    +0.000 C 
ATOM      4  N   UNL     1       5.162   4.276  17.918  0.00  0.00    +0.000 N 
ATOM      5  C   UNL     1       4.645   3.847  19.152  0.00  0.00    +0.000 C 
ATOM      6  O   UNL     1       5.354   3.218  19.941  0.00  0.00    +0.000 OA
ATOM      7  C   UNL     1       4.460   5.084  16.921  0.00  0.00    +0.000 C 
ATOM      8  C   UNL     1       5.308   6.267  16.465  0.00  0.00    +0.000 C 
ENDROOT
BRANCH   1  13
ATOM      9  C   UNL     1       5.614   3.866  12.812  0.00  0.00    +0.000 A 
ATOM     10  C   UNL     1       6.727   4.045  11.988  0.00  0.00    +0.000 A 
ATOM     11  C   UNL     1       7.809   4.800  12.433  0.00  0.00    +0.000 A 
ATOM     12  C   UNL     1       7.787   5.383  13.704  0.00  0.00    +0.000 A 
ATOM     13  C   UNL     1       6.673   5.245  14.550  0.00  0.00    +0.000 A 
ATOM     14  C   UNL     1       5.602   4.471  14.080  0.00  0.00    +0.000 A 
BRANCH   9  15
ATOM     15  C   UNL     1       4.448   3.011  12.389  0.00  0.00    +0.000 C 
BRANCH  15  16
ATOM     16  N   UNL     1       4.013   3.334  11.035  0.00  0.00    +0.000 NA
ATOM     17  H   UNL     1       3.594   2.510  10.613  0.00  0.00    +0.000 HD
ATOM     18  H   UNL     1       4.833   3.564  10.475  0.00  0.00    +0.000 HD
ENDBRANCH  15  16
ENDBRANCH   9  15
ENDBRANCH   1  13
BRANCH   5  19
ATOM     19  C   UNL     1       3.287   4.206  19.524  0.00  0.00    +0.000 A 
ATOM     20  C   UNL     1       2.143   3.424  19.544  0.00  0.00    +0.000 A 
ATOM     21  C   UNL     1       1.091   4.239  20.025  0.00  0.00    +0.000 A 
ATOM     22  C   UNL     1       1.645   5.480  20.220  0.00  0.00    +0.000 A 
ATOM     23  O   UNL     1       2.956   5.489  19.879  0.00  0.00    +0.000 OA
BRANCH  22  24
ATOM     24  C   UNL     1       1.090   6.681  20.717  0.00  0.00    +0.000 C 
ATOM     25  C   UNL     1       0.649   7.731  21.097  0.00  0.00    +0.000 C 
BRANCH  25  26
ATOM     26  C   UNL     1       0.192   9.017  21.516  0.00  0.00    +0.000 A 
ATOM     27  C   UNL     1      -0.053  10.028  20.589  0.00  0.00    +0.000 A 
ATOM     28  C   UNL     1      -0.421  11.293  21.039  0.00  0.00    +0.000 A 
ATOM     29  C   UNL     1      -0.538  11.497  22.406  0.00  0.00    +0.000 A 
ATOM     30  N   UNL     1      -0.329  10.534  23.330  0.00  0.00    +0.000 NA
ATOM     31  C   UNL     1       0.033   9.314  22.863  0.00  0.00    +0.000 A 
ENDBRANCH  25  26
ENDBRANCH  22  24
ENDBRANCH   5  19
TORSDOF 6
ENDMDL
MODEL 3
REMARK VINA RESULT:      -7.6      1.113      1.385
REMARK  Name = 
REMARK  6 active torsions:
REMARK  status: ('A' for Active; 'I' for Inactive)
REMARK    1  A    between atoms: N_1  and  C_2
REMARK    2  A    between atoms: C_2  and  C_3
REMARK    3  A    between atoms: C_7  and  C_8
REMARK    4  A    between atoms: C_12  and  C_14
REMARK    5  A    between atoms: C_17  and  C_18
REMARK    6  A    between atoms: C_19  and  C_20
REMARK                            x       y       z     vdW  Elec       q    Type
REMARK                         _______ _______ _______ _____ _____    ______ ____
ROOT
ATOM      1  C   UNL     1       6.242   5.643  14.768  0.00  0.00    +0.000 C 
ATOM      2  C   UNL     1       7.236   5.294  15.898  0.00  0.00    +0.000 C 
ATOM      3  C   UNL     1       6.716   4.197  16.831  0.00  0.00    +0.000 C 
ATOM      4  N   UNL     1       5.394   4.530  17.355  0.00  0.00    +0.000 N 
ATOM      5  C   UNL     1       5.171   4.423  18.737  0.00  0.00    +0.000 C 
ATOM      6  O   UNL     1       6.108   4.197  19.506  0.00  0.00    +0.000 OA
ATOM      7  C   UNL     1       4.393   4.860  16.340  0.00  0.00    +0.000 C 
ATOM      8  C   UNL     1       4.884   5.968  15.413  0.00  0.00    +0.000 C 
ENDROOT
BRANCH   1  13
ATOM      9  C   UNL     1       4.833   3.375  11.971  0.00  0.00    +0.000 A 
ATOM     10  C   UNL     1       5.985   2.695  11.572  0.00  0.00    +0.000 A 
ATOM     11  C   UNL     1       7.205   2.970  12.187  0.00  0.00    +0.000 A 
ATOM     12  C   UNL     1       7.281   3.926  13.205  0.00  0.00    +0.000 A 
ATOM     13  C   UNL     1       6.146   4.646  13.615  0.00  0.00    +0.000 A 
ATOM     14  C   UNL     1       4.930   4.342  12.985  0.00  0.00    +0.000 A 
BRANCH   9  15
ATOM     15  C   UNL     1       3.487   3.067  11.369  0.00  0.00    +0.000 C 
BRANCH  15  16
ATOM     16  N   UNL     1       3.283   3.793  10.121  0.00  0.00    +0.000 NA
ATOM     17  H   UNL     1       2.292   3.993  10.008  0.00  0.00    +0.000 HD
ATOM     18  H   UNL     1       3.548   3.188   9.344  0.00  0.00    +0.000 HD
ENDBRANCH  15  16
ENDBRANCH   9  15
ENDBRANCH   1  13
BRANCH   5  19
ATOM     19  C   UNL     1       3.837   4.648  19.267  0.00  0.00    +0.000 A 
ATOM     20  C   UNL     1       2.794   3.751  19.438  0.00  0.00    +0.000 A 
ATOM     21  C   UNL     1       1.725   4.464  20.031  0.00  0.00    +0.000 A 
ATOM     22  C   UNL     1       2.162   5.762  20.140  0.00  0.00    +0.000 A 
ATOM     23  O   UNL     1       3.414   5.898  19.641  0.00  0.00    +0.000 OA
BRANCH  22  24
ATOM     24  C   UNL     1       1.544   6.911  20.683  0.00  0.00    +0.000 C 
ATOM     25  C   UNL     1       1.060   7.920  21.115  0.00  0.00    +0.000 C 
BRANCH  25  26
ATOM     26  C   UNL     1       0.560   9.158  21.620  0.00  0.00    +0.000 A 
ATOM     27  C   UNL     1      -0.371   9.187  22.656  0.00  0.00    +0.000 A 
ATOM     28  C   UNL     1      -0.897  10.410  23.068  0.00  0.00    +0.000 A 
ATOM     29  C   UNL     1      -0.463  11.561  22.429  0.00  0.00    +0.000 A 
ATOM     30  N   UNL     1       0.453  11.571  21.436  0.00  0.00    +0.000 NA
ATOM     31  C   UNL     1       0.943  10.367  21.053  0.00  0.00    +0.000 A 
ENDBRANCH  25  26
ENDBRANCH  22  24
ENDBRANCH   5  19
TORSDOF 6
ENDMDL
MODEL 4
REMARK VINA RESULT:      -7.5      4.131     12.665
REMARK  Name = 
REMARK  6 active torsions:
REMARK  status: ('A' for Active; 'I' for Inactive)
REMARK    1  A    between atoms: N_1  and  C_2
REMARK    2  A    between atoms: C_2  and  C_3
REMARK    3  A    between atoms: C_7  and  C_8
REMARK    4  A    between atoms: C_12  and  C_14
REMARK    5  A    between atoms: C_17  and  C_18
REMARK    6  A    between atoms: C_19  and  C_20
REMARK                            x       y       z     vdW  Elec       q    Type
REMARK                         _______ _______ _______ _____ _____    ______ ____
ROOT
ATOM      1  C   UNL     1      -1.613  13.542  23.510  0.00  0.00    +0.000 C 
ATOM      2  C   UNL     1      -0.584  14.476  22.834  0.00  0.00    +0.000 C 
ATOM      3  C   UNL     1      -0.744  14.535  21.313  0.00  0.00    +0.000 C 
ATOM      4  N   UNL     1      -0.731  13.198  20.726  0.00  0.00    +0.000 N 
ATOM      5  C   UNL     1       0.108  12.952  19.627  0.00  0.00    +0.000 C 
ATOM      6  O   UNL     1       0.922  13.802  19.261  0.00  0.00    +0.000 OA
ATOM      7  C   UNL     1      -1.690  12.259  21.309  0.00  0.00    +0.000 C 
ATOM      8  C   UNL     1      -1.531  12.169  22.824  0.00  0.00    +0.000 C 
ENDROOT
BRANCH   1  13
ATOM      9  C   UNL     1      -5.458  13.724  23.869  0.00  0.00    +0.000 A 
ATOM     10  C   UNL     1      -5.676  15.096  23.733  0.00  0.00    +0.000 A 
ATOM     11  C   UNL     1      -4.597  15.956  23.539  0.00  0.00    +0.000 A 
ATOM     12  C   UNL     1      -3.294  15.451  23.479  0.00  0.00    +0.000 A 
ATOM     13  C   UNL     1      -3.037  14.078  23.637  0.00  0.00    +0.000 A 
ATOM     14  C   UNL     1      -4.142  13.234  23.822  0.00  0.00    +0.000 A 
BRANCH   9  15
ATOM     15  C   UNL     1      -6.602  12.755  24.025  0.00  0.00    +0.000 C 
BRANCH  15  16
ATOM     16  N   UNL     1      -7.764  13.395  24.630  0.00  0.00    +0.000 NA
ATOM     17  H   UNL     1      -8.064  14.169  24.041  0.00  0.00    +0.000 HD
ATOM     18  H   UNL     1      -7.486  13.800  25.523  0.00  0.00    +0.000 HD
ENDBRANCH  15  16
ENDBRANCH   9  15
ENDBRANCH   1  13
BRANCH   5  19
ATOM     19  C   UNL     1       0.059  11.660  18.964  0.00  0.00    +0.000 A 
ATOM     20  C   UNL     1      -0.981  11.067  18.266  0.00  0.00    +0.000 A 
ATOM     21  C   UNL     1      -0.502   9.828  17.779  0.00  0.00    +0.000 A 
ATOM     22  C   UNL     1       0.783   9.717  18.250  0.00  0.00    +0.000 A 
ATOM     23  O   UNL     1       1.120  10.791  19.004  0.00  0.00    +0.000 OA
BRANCH  22  24
ATOM     24  C   UNL     1       1.763   8.717  18.062  0.00  0.00    +0.000 C 
ATOM     25  C   UNL     1       2.552   7.829  17.892  0.00  0.00    +0.000 C 
BRANCH  25  26
ATOM     26  C   UNL     1       3.429   6.717  17.711  0.00  0.00    +0.000 A 
ATOM     27  C   UNL     1       3.006   5.418  17.981  0.00  0.00    +0.000 A 
ATOM     28  C   UNL     1       3.913   4.366  17.870  0.00  0.00    +0.000 A 
ATOM     29  C   UNL     1       5.213   4.657  17.484  0.00  0.00    +0.000 A 
ATOM     30  N   UNL     1       5.650   5.902  17.195  0.00  0.00    +0.000 NA
ATOM     31  C   UNL     1       4.747   6.905  17.316  0.00  0.00    +0.000 A 
ENDBRANCH  25  26
ENDBRANCH  22  24
ENDBRANCH   5  19
TORSDOF 6
ENDMDL
MODEL 5
REMARK VINA RESULT:      -7.4      4.220     12.774
REMARK  Name = 
REMARK  6 active torsions:
REMARK  status: ('A' for Active; 'I' for Inactive)
REMARK    1  A    between atoms: N_1  and  C_2
REMARK    2  A    between atoms: C_2  and  C_3
REMARK    3  A    between atoms: C_7  and  C_8
REMARK    4  A    between atoms: C_12  and  C_14
REMARK    5  A    between atoms: C_17  and  C_18
REMARK    6  A    between atoms: C_19  and  C_20
REMARK                            x       y       z     vdW  Elec       q    Type
REMARK                         _______ _______ _______ _____ _____    ______ ____
ROOT
ATOM      1  C   UNL     1      -2.342  13.259  23.846  0.00  0.00    +0.000 C 
ATOM      2  C   UNL     1      -1.241  14.237  23.379  0.00  0.00    +0.000 C 
ATOM      3  C   UNL     1      -1.250  14.463  21.865  0.00  0.00    +0.000 C 
ATOM      4  N   UNL     1      -1.194  13.197  21.140  0.00  0.00    +0.000 N 
ATOM      5  C   UNL     1      -0.253  13.053  20.107  0.00  0.00    +0.000 C 
ATOM      6  O   UNL     1       0.603  13.919  19.917  0.00  0.00    +0.000 OA
ATOM      7  C   UNL     1      -2.216  12.222  21.521  0.00  0.00    +0.000 C 
ATOM      8  C   UNL     1      -2.209  11.966  23.025  0.00  0.00    +0.000 C 
ENDROOT
BRANCH   1  13
ATOM      9  C   UNL     1      -6.202  13.492  23.787  0.00  0.00    +0.000 A 
ATOM     10  C   UNL     1      -6.387  14.874  23.845  0.00  0.00    +0.000 A 
ATOM     11  C   UNL     1      -5.284  15.723  23.914  0.00  0.00    +0.000 A 
ATOM     12  C   UNL     1      -3.989  15.196  23.925  0.00  0.00    +0.000 A 
ATOM     13  C   UNL     1      -3.766  13.809  23.893  0.00  0.00    +0.000 A 
ATOM     14  C   UNL     1      -4.893  12.979  23.813  0.00  0.00    +0.000 A 
BRANCH   9  15
ATOM     15  C   UNL     1      -7.365  12.544  23.656  0.00  0.00    +0.000 C 
BRANCH  15  16
ATOM     16  N   UNL     1      -7.238  11.706  22.469  0.00  0.00    +0.000 NA
ATOM     17  H   UNL     1      -8.057  11.833  21.880  0.00  0.00    +0.000 HD
ATOM     18  H   UNL     1      -7.236  10.728  22.758  0.00  0.00    +0.000 HD
ENDBRANCH  15  16
ENDBRANCH   9  15
ENDBRANCH   1  13
BRANCH   5  19
ATOM     19  C   UNL     1      -0.250  11.841  19.305  0.00  0.00    +0.000 A 
ATOM     20  C   UNL     1      -1.196  11.380  18.403  0.00  0.00    +0.000 A 
ATOM     21  C   UNL     1      -0.696  10.174  17.856  0.00  0.00    +0.000 A 
ATOM     22  C   UNL     1       0.498   9.947  18.494  0.00  0.00    +0.000 A 
ATOM     23  O   UNL     1       0.758  10.917  19.403  0.00  0.00    +0.000 OA
BRANCH  22  24
ATOM     24  C   UNL     1       1.457   8.920  18.340  0.00  0.00    +0.000 C 
ATOM     25  C   UNL     1       2.241   8.029  18.163  0.00  0.00    +0.000 C 
BRANCH  25  26
ATOM     26  C   UNL     1       3.112   6.926  17.912  0.00  0.00    +0.000 A 
ATOM     27  C   UNL     1       4.329   7.107  17.259  0.00  0.00    +0.000 A 
ATOM     28  C   UNL     1       5.116   5.997  16.960  0.00  0.00    +0.000 A 
ATOM     29  C   UNL     1       4.656   4.744  17.336  0.00  0.00    +0.000 A 
ATOM     30  N   UNL     1       3.492   4.536  17.988  0.00  0.00    +0.000 NA
ATOM     31  C   UNL     1       2.745   5.633  18.261  0.00  0.00    +0.000 A 
ENDBRANCH  25  26
ENDBRANCH  22  24
ENDBRANCH   5  19
TORSDOF 6
ENDMDL
MODEL 6
REMARK VINA RESULT:      -7.4      1.449      2.016
REMARK  Name = 
REMARK  6 active torsions:
REMARK  status: ('A' for Active; 'I' for Inactive)
REMARK    1  A    between atoms: N_1  and  C_2
REMARK    2  A    between atoms: C_2  and  C_3
REMARK    3  A    between atoms: C_7  and  C_8
REMARK    4  A    between atoms: C_12  and  C_14
REMARK    5  A    between atoms: C_17  and  C_18
REMARK    6  A    between atoms: C_19  and  C_20
REMARK                            x       y       z     vdW  Elec       q    Type
REMARK                         _______ _______ _______ _____ _____    ______ ____
ROOT
ATOM      1  C   UNL     1       6.162   5.410  14.268  0.00  0.00    +0.000 C 
ATOM      2  C   UNL     1       7.309   5.198  15.282  0.00  0.00    +0.000 C 
ATOM      3  C   UNL     1       6.984   4.134  16.333  0.00  0.00    +0.000 C 
ATOM      4  N   UNL     1       5.715   4.417  16.999  0.00  0.00    +0.000 N 
ATOM      5  C   UNL     1       5.670   4.386  18.403  0.00  0.00    +0.000 C 
ATOM      6  O   UNL     1       6.707   4.269  19.059  0.00  0.00    +0.000 OA
ATOM      7  C   UNL     1       4.578   4.618  16.102  0.00  0.00    +0.000 C 
ATOM      8  C   UNL     1       4.874   5.692  15.059  0.00  0.00    +0.000 C 
ENDROOT
BRANCH   1  13
ATOM      9  C   UNL     1       4.624   3.128  11.552  0.00  0.00    +0.000 A 
ATOM     10  C   UNL     1       5.683   2.252  11.307  0.00  0.00    +0.000 A 
ATOM     11  C   UNL     1       6.882   2.399  12.000  0.00  0.00    +0.000 A 
ATOM     12  C   UNL     1       7.033   3.422  12.941  0.00  0.00    +0.000 A 
ATOM     13  C   UNL     1       5.996   4.337  13.194  0.00  0.00    +0.000 A 
ATOM     14  C   UNL     1       4.796   4.160  12.490  0.00  0.00    +0.000 A 
BRANCH   9  15
ATOM     15  C   UNL     1       3.292   2.969  10.865  0.00  0.00    +0.000 C 
BRANCH  15  16
ATOM     16  N   UNL     1       3.040   4.062   9.933  0.00  0.00    +0.000 NA
ATOM     17  H   UNL     1       2.707   3.680   9.051  0.00  0.00    +0.000 HD
ATOM     18  H   UNL     1       3.922   4.531   9.733  0.00  0.00    +0.000 HD
ENDBRANCH  15  16
ENDBRANCH   9  15
ENDBRANCH   1  13
BRANCH   5  19
ATOM     19  C   UNL     1       4.397   4.562  19.082  0.00  0.00    +0.000 A 
ATOM     20  C   UNL     1       3.539   3.608  19.607  0.00  0.00    +0.000 A 
ATOM     21  C   UNL     1       2.459   4.302  20.201  0.00  0.00    +0.000 A 
ATOM     22  C   UNL     1       2.697   5.633  19.960  0.00  0.00    +0.000 A 
ATOM     23  O   UNL     1       3.836   5.803  19.247  0.00  0.00    +0.000 OA
BRANCH  22  24
ATOM     24  C   UNL     1       1.984   6.792  20.340  0.00  0.00    +0.000 C 
ATOM     25  C   UNL     1       1.430   7.803  20.672  0.00  0.00    +0.000 C 
BRANCH  25  26
ATOM     26  C   UNL     1       0.840   9.026  21.112  0.00  0.00    +0.000 A 
ATOM     27  C   UNL     1       0.651  10.089  20.232  0.00  0.00    +0.000 A 
ATOM     28  C   UNL     1       0.146  11.295  20.714  0.00  0.00    +0.000 A 
ATOM     29  C   UNL     1      -0.159  11.387  22.064  0.00  0.00    +0.000 A 
ATOM     30  N   UNL     1      -0.008  10.370  22.940  0.00  0.00    +0.000 NA
ATOM     31  C   UNL     1       0.490   9.211  22.443  0.00  0.00    +0.000 A 
ENDBRANCH  25  26
ENDBRANCH  22  24
ENDBRANCH   5  19
TORSDOF 6
ENDMDL
MODEL 7
REMARK VINA RESULT:      -7.3      2.343      3.567
REMARK  Name = 
REMARK  6 active torsions:
REMARK  status: ('A' for Active; 'I' for Inactive)
REMARK    1  A    between atoms: N_1  and  C_2
REMARK    2  A    between atoms: C_2  and  C_3
REMARK    3  A    between atoms: C_7  and  C_8
REMARK    4  A    between atoms: C_12  and  C_14
REMARK    5  A    between atoms: C_17  and  C_18
REMARK    6  A    between atoms: C_19  and  C_20
REMARK                            x       y       z     vdW  Elec       q    Type
REMARK                         _______ _______ _______ _____ _____    ______ ____
ROOT
ATOM      1  C   UNL     1       6.295   5.741  17.529  0.00  0.00    +0.000 C 
ATOM      2  C   UNL     1       5.632   4.998  18.710  0.00  0.00    +0.000 C 
ATOM      3  C   UNL     1       4.103   5.000  18.630  0.00  0.00    +0.000 C 
ATOM      4  N   UNL     1       3.583   6.357  18.481  0.00  0.00    +0.000 N 
ATOM      5  C   UNL     1       2.543   6.777  19.328  0.00  0.00    +0.000 C 
ATOM      6  O   UNL     1       2.181   6.070  20.270  0.00  0.00    +0.000 OA
ATOM      7  C   UNL     1       4.157   7.120  17.373  0.00  0.00    +0.000 C 
ATOM      8  C   UNL     1       5.681   7.148  17.447  0.00  0.00    +0.000 C 
ENDROOT
BRANCH   1  13
ATOM      9  C   UNL     1       7.084   4.794  13.863  0.00  0.00    +0.000 A 
ATOM     10  C   UNL     1       6.237   3.700  13.681  0.00  0.00    +0.000 A 
ATOM     11  C   UNL     1       5.429   3.263  14.728  0.00  0.00    +0.000 A 
ATOM     12  C   UNL     1       5.461   3.916  15.964  0.00  0.00    +0.000 A 
ATOM     13  C   UNL     1       6.320   5.006  16.190  0.00  0.00    +0.000 A 
ATOM     14  C   UNL     1       7.115   5.431  15.116  0.00  0.00    +0.000 A 
BRANCH   9  15
ATOM     15  C   UNL     1       7.932   5.332  12.740  0.00  0.00    +0.000 C 
BRANCH  15  16
ATOM     16  N   UNL     1       9.078   6.077  13.248  0.00  0.00    +0.000 NA
ATOM     17  H   UNL     1       9.794   5.423  13.555  0.00  0.00    +0.000 HD
ATOM     18  H   UNL     1       8.788   6.600  14.073  0.00  0.00    +0.000 HD
ENDBRANCH  15  16
ENDBRANCH   9  15
ENDBRANCH   1  13
BRANCH   5  19
ATOM     19  C   UNL     1       1.941   8.084  19.128  0.00  0.00    +0.000 A 
ATOM     20  C   UNL     1       1.993   8.918  18.021  0.00  0.00    +0.000 A 
ATOM     21  C   UNL     1       1.204  10.054  18.320  0.00  0.00    +0.000 A 
ATOM     22  C   UNL     1       0.760   9.868  19.607  0.00  0.00    +0.000 A 
ATOM     23  O   UNL     1       1.234   8.709  20.123  0.00  0.00    +0.000 OA
BRANCH  22  24
ATOM     24  C   UNL     1      -0.087  10.651  20.423  0.00  0.00    +0.000 C 
ATOM     25  C   UNL     1      -0.848  11.310  21.076  0.00  0.00    +0.000 C 
BRANCH  25  26
ATOM     26  C   UNL     1      -1.795  12.114  21.780  0.00  0.00    +0.000 A 
ATOM     27  C   UNL     1      -2.167  11.805  23.086  0.00  0.00    +0.000 A 
ATOM     28  C   UNL     1      -3.152  12.564  23.714  0.00  0.00    +0.000 A 
ATOM     29  C   UNL     1      -3.722  13.613  23.009  0.00  0.00    +0.000 A 
ATOM     30  N   UNL     1      -3.371  13.952  21.750  0.00  0.00    +0.000 NA
ATOM     31  C   UNL     1      -2.413  13.193  21.163  0.00  0.00    +0.000 A 
ENDBRANCH  25  26
ENDBRANCH  22  24
ENDBRANCH   5  19
TORSDOF 6
ENDMDL
MODEL 8
REMARK VINA RESULT:      -7.3      7.703     11.539
REMARK  Name = 
REMARK  6 active torsions:
REMARK  status: ('A' for Active; 'I' for Inactive)
REMARK    1  A    between atoms: N_1  and  C_2
REMARK    2  A    between atoms: C_2  and  C_3
REMARK    3  A    between atoms: C_7  and  C_8
REMARK    4  A    between atoms: C_12  and  C_14
REMARK    5  A    between atoms: C_17  and  C_18
REMARK    6  A    between atoms: C_19  and  C_20
REMARK                            x       y       z     vdW  Elec       q    Type
REMARK                         _______ _______ _______ _____ _____    ______ ____
ROOT
ATOM      1  C   UNL     1      -0.196  10.957  19.425  0.00  0.00    +0.000 C 
ATOM      2  C   UNL     1      -0.273  11.886  20.657  0.00  0.00    +0.000 C 
ATOM      3  C   UNL     1      -0.183  13.369  20.289  0.00  0.00    +0.000 C 
ATOM      4  N   UNL     1       0.999  13.643  19.476  0.00  0.00    +0.000 N 
ATOM      5  C   UNL     1       1.837  14.709  19.842  0.00  0.00    +0.000 C 
ATOM      6  O   UNL     1       1.660  15.306  20.906  0.00  0.00    +0.000 OA
ATOM      7  C   UNL     1       1.134  12.808  18.282  0.00  0.00    +0.000 C 
ATOM      8  C   UNL     1       1.069  11.324  18.631  0.00  0.00    +0.000 C 
ENDROOT
BRANCH   1  13
ATOM      9  C   UNL     1      -3.817  11.388  18.139  0.00  0.00    +0.000 A 
ATOM     10  C   UNL     1      -3.802  10.562  17.013  0.00  0.00    +0.000 A 
ATOM     11  C   UNL     1      -2.637   9.882  16.665  0.00  0.00    +0.000 A 
ATOM     12  C   UNL     1      -1.480  10.022  17.437  0.00  0.00    +0.000 A 
ATOM     13  C   UNL     1      -1.453  10.865  18.562  0.00  0.00    +0.000 A 
ATOM     14  C   UNL     1      -2.642  11.529  18.896  0.00  0.00    +0.000 A 
BRANCH   9  15
ATOM     15  C   UNL     1      -5.071  12.097  18.581  0.00  0.00    +0.000 C 
BRANCH  15  16
ATOM     16  N   UNL     1      -4.770  13.188  19.500  0.00  0.00    +0.000 NA
ATOM     17  H   UNL     1      -5.609  13.427  20.023  0.00  0.00    +0.000 HD
ATOM     18  H   UNL     1      -4.521  14.014  18.956  0.00  0.00    +0.000 HD
ENDBRANCH  15  16
ENDBRANCH   9  15
ENDBRANCH   1  13
BRANCH   5  19
ATOM     19  C   UNL     1       2.959  15.064  18.989  0.00  0.00    +0.000 A 
ATOM     20  C   UNL     1       3.039  16.025  17.993  0.00  0.00    +0.000 A 
ATOM     21  C   UNL     1       4.364  15.999  17.497  0.00  0.00    +0.000 A 
ATOM     22  C   UNL     1       4.997  14.992  18.183  0.00  0.00    +0.000 A 
ATOM     23  O   UNL     1       4.151  14.389  19.052  0.00  0.00    +0.000 OA
BRANCH  22  24
ATOM     24  C   UNL     1       6.331  14.528  18.139  0.00  0.00    +0.000 C 
ATOM     25  C   UNL     1       7.450  14.104  18.052  0.00  0.00    +0.000 C 
BRANCH  25  26
ATOM     26  C   UNL     1       8.750  13.534  17.904  0.00  0.00    +0.000 A 
ATOM     27  C   UNL     1       8.928  12.153  17.864  0.00  0.00    +0.000 A 
ATOM     28  C   UNL     1      10.219  11.632  17.799  0.00  0.00    +0.000 A 
ATOM     29  C   UNL     1      11.285  12.518  17.769  0.00  0.00    +0.000 A 
ATOM     30  N   UNL     1      11.147  13.861  17.786  0.00  0.00    +0.000 NA
ATOM     31  C   UNL     1       9.880  14.340  17.854  0.00  0.00    +0.000 A 
ENDBRANCH  25  26
ENDBRANCH  22  24
ENDBRANCH   5  19
TORSDOF 6
ENDMDL
MODEL 9
REMARK VINA RESULT:      -7.3      4.634     11.499
REMARK  Name = 
REMARK  6 active torsions:
REMARK  status: ('A' for Active; 'I' for Inactive)
REMARK    1  A    between atoms: N_1  and  C_2
REMARK    2  A    between atoms: C_2  and  C_3
REMARK    3  A    between atoms: C_7  and  C_8
REMARK    4  A    between atoms: C_12  and  C_14
REMARK    5  A    between atoms: C_17  and  C_18
REMARK    6  A    between atoms: C_19  and  C_20
REMARK                            x       y       z     vdW  Elec       q    Type
REMARK                         _______ _______ _______ _____ _____    ______ ____
ROOT
ATOM      1  C   UNL     1      -1.661  12.149  23.297  0.00  0.00    +0.000 C 
ATOM      2  C   UNL     1      -0.681  13.284  22.924  0.00  0.00    +0.000 C 
ATOM      3  C   UNL     1      -0.485  13.428  21.413  0.00  0.00    +0.000 C 
ATOM      4  N   UNL     1      -0.099  12.157  20.806  0.00  0.00    +0.000 N 
ATOM      5  C   UNL     1       1.007  12.132  19.940  0.00  0.00    +0.000 C 
ATOM      6  O   UNL     1       1.723  13.127  19.812  0.00  0.00    +0.000 OA
ATOM      7  C   UNL     1      -0.989  11.035  21.104  0.00  0.00    +0.000 C 
ATOM      8  C   UNL     1      -1.180  10.861  22.608  0.00  0.00    +0.000 C 
ENDROOT
BRANCH   1  13
ATOM      9  C   UNL     1      -5.045  13.004  21.631  0.00  0.00    +0.000 A 
ATOM     10  C   UNL     1      -5.877  13.098  22.748  0.00  0.00    +0.000 A 
ATOM     11  C   UNL     1      -5.359  12.879  24.023  0.00  0.00    +0.000 A 
ATOM     12  C   UNL     1      -4.007  12.563  24.190  0.00  0.00    +0.000 A 
ATOM     13  C   UNL     1      -3.146  12.436  23.086  0.00  0.00    +0.000 A 
ATOM     14  C   UNL     1      -3.692  12.672  21.816  0.00  0.00    +0.000 A 
BRANCH   9  15
ATOM     15  C   UNL     1      -5.553  13.288  20.242  0.00  0.00    +0.000 C 
BRANCH  15  16
ATOM     16  N   UNL     1      -4.563  12.938  19.230  0.00  0.00    +0.000 NA
ATOM     17  H   UNL     1      -4.946  12.219  18.622  0.00  0.00    +0.000 HD
ATOM     18  H   UNL     1      -3.754  12.526  19.694  0.00  0.00    +0.000 HD
ENDBRANCH  15  16
ENDBRANCH   9  15
ENDBRANCH   1  13
BRANCH   5  19
ATOM     19  C   UNL     1       1.344  10.902  19.244  0.00  0.00    +0.000 A 
ATOM     20  C   UNL     1       1.571  10.687  17.893  0.00  0.00    +0.000 A 
ATOM     21  C   UNL     1       1.907   9.321  17.741  0.00  0.00    +0.000 A 
ATOM     22  C   UNL     1       1.815   8.775  18.997  0.00  0.00    +0.000 A 
ATOM     23  O   UNL     1       1.431   9.703  19.906  0.00  0.00    +0.000 OA
BRANCH  22  24
ATOM     24  C   UNL     1       2.066   7.465  19.466  0.00  0.00    +0.000 C 
ATOM     25  C   UNL     1       2.312   6.344  19.815  0.00  0.00    +0.000 C 
BRANCH  25  26
ATOM     26  C   UNL     1       2.617   4.990  20.149  0.00  0.00    +0.000 A 
ATOM     27  C   UNL     1       1.917   4.323  21.152  0.00  0.00    +0.000 A 
ATOM     28  C   UNL     1       2.295   3.030  21.505  0.00  0.00    +0.000 A 
ATOM     29  C   UNL     1       3.359   2.448  20.831  0.00  0.00    +0.000 A 
ATOM     30  N   UNL     1       4.045   3.058  19.841  0.00  0.00    +0.000 NA
ATOM     31  C   UNL     1       3.658   4.318  19.522  0.00  0.00    +0.000 A 
ENDBRANCH  25  26
ENDBRANCH  22  24
ENDBRANCH   5  19
TORSDOF 6
ENDMDL
