MODEL 1
REMARK VINA RESULT:      -8.5      0.000      0.000
REMARK  Name = 
REMARK  7 active torsions:
REMARK  status: ('A' for Active; 'I' for Inactive)
REMARK    1  A    between atoms: C_1  and  O_2
REMARK    2  A    between atoms: O_2  and  C_3
REMARK    3  A    between atoms: C_6  and  N_7
REMARK    4  A    between atoms: C_8  and  C_9
REMARK    5  A    between atoms: C_11  and  C_12
REMARK    6  A    between atoms: C_12  and  N_13
REMARK    7  A    between atoms: C_27  and  C_28
REMARK                            x       y       z     vdW  Elec       q    Type
REMARK                         _______ _______ _______ _____ _____    ______ ____
ROOT
ATOM      1  N   UNL     1       3.562   5.411  18.891  0.00  0.00    +0.000 N 
ATOM      2  C   UNL     1       3.294   4.539  19.956  0.00  0.00    +0.000 A 
ATOM      3  C   UNL     1       3.772   3.129  20.060  0.00  0.00    +0.000 C 
ATOM      4  C   UNL     1       2.402   5.149  20.791  0.00  0.00    +0.000 A 
ATOM      5  C   UNL     1       1.900   6.302  20.143  0.00  0.00    +0.000 A 
ATOM      6  C   UNL     1       2.696   6.502  19.013  0.00  0.00    +0.000 A 
ATOM      7  C   UNL     1       2.749   7.703  18.126  0.00  0.00    +0.000 C 
ENDROOT
BRANCH   1  11
ATOM      8  C   UNL     1       6.699   5.081  16.071  0.00  0.00    +0.000 A 
ATOM      9  C   UNL     1       5.461   4.490  15.799  0.00  0.00    +0.000 A 
ATOM     10  C   UNL     1       4.410   4.578  16.720  0.00  0.00    +0.000 A 
ATOM     11  C   UNL     1       4.608   5.254  17.930  0.00  0.00    +0.000 A 
ATOM     12  C   UNL     1       5.857   5.818  18.214  0.00  0.00    +0.000 A 
ATOM     13  C   UNL     1       6.896   5.724  17.290  0.00  0.00    +0.000 A 
BRANCH   8  15
ATOM     14  C   UNL     1       7.163   4.742  13.783  0.00  0.00    +0.000 C 
ATOM     15  O   UNL     1       7.659   4.943  15.105  0.00  0.00    +0.000 OA
ENDBRANCH   8  15
ENDBRANCH   1  11
BRANCH   5  16
ATOM     16  C   UNL     1       0.730   7.105  20.648  0.00  0.00    +0.000 C 
BRANCH  16  17
ATOM     17  N   UNL     1       1.151   8.485  20.868  0.00  0.00    +0.000 NA
ATOM     18  C   UNL     1       0.748   9.482  19.870  0.00  0.00    +0.000 C 
ATOM     19  C   UNL     1      -0.370  10.468  20.306  0.00  0.00    +0.000 C 
ATOM     20  C   UNL     1       0.058  11.131  21.631  0.00  0.00    +0.000 C 
ATOM     21  C   UNL     1       0.081   9.949  22.625  0.00  0.00    +0.000 C 
ATOM     22  C   UNL     1       1.158   8.932  22.256  0.00  0.00    +0.000 C 
ATOM     23  O   UNL     1       1.427  11.616  21.443  0.00  0.00    +0.000 OA
ATOM     24  C   UNL     1       1.485  12.787  20.608  0.00  0.00    +0.000 C 
ATOM     25  C   UNL     1       0.978  13.996  21.384  0.00  0.00    +0.000 C 
ATOM     26  C   UNL     1      -0.250  13.601  22.138  0.00  0.00    +0.000 A 
ATOM     27  S   UNL     1      -1.034  14.712  23.155  0.00  0.00    +0.000 S 
ATOM     28  C   UNL     1      -2.127  13.513  23.684  0.00  0.00    +0.000 A 
ATOM     29  C   UNL     1      -1.912  12.296  23.063  0.00  0.00    +0.000 A 
ATOM     30  C   UNL     1      -0.754  12.306  22.211  0.00  0.00    +0.000 A 
ENDBRANCH  16  17
ENDBRANCH   5  16
TORSDOF 4
ENDMDL
MODEL 2
REMARK VINA RESULT:      -7.2      3.428      4.289
REMARK  Name = 
REMARK  7 active torsions:
REMARK  status: ('A' for Active; 'I' for Inactive)
REMARK    1  A    between atoms: C_1  and  O_2
REMARK    2  A    between atoms: O_2  and  C_3
REMARK    3  A    between atoms: C_6  and  N_7
REMARK    4  A    between atoms: C_8  and  C_9
REMARK    5  A    between atoms: C_11  and  C_12
REMARK    6  A    between atoms: C_12  and  N_13
REMARK    7  A    between atoms: C_27  and  C_28
REMARK                            x       y       z     vdW  Elec       q    Type
REMARK                         _______ _______ _______ _____ _____    ______ ____
ROOT
ATOM      1  N   UNL     1       2.369   7.048  19.080  0.00  0.00    +0.000 N 
ATOM      2  C   UNL     1       1.838   6.719  20.335  0.00  0.00    +0.000 A 
ATOM      3  C   UNL     1       1.616   5.333  20.844  0.00  0.00    +0.000 C 
ATOM      4  C   UNL     1       1.421   7.872  20.936  0.00  0.00    +0.000 A 
ATOM      5  C   UNL     1       1.447   8.911  19.977  0.00  0.00    +0.000 A 
ATOM      6  C   UNL     1       2.124   8.407  18.864  0.00  0.00    +0.000 A 
ATOM      7  C   UNL     1       2.636   9.161  17.680  0.00  0.00    +0.000 C 
ENDROOT
BRANCH   1  11
ATOM      8  C   UNL     1       4.538   4.338  16.661  0.00  0.00    +0.000 A 
ATOM      9  C   UNL     1       5.116   5.559  17.018  0.00  0.00    +0.000 A 
ATOM     10  C   UNL     1       4.415   6.477  17.811  0.00  0.00    +0.000 A 
ATOM     11  C   UNL     1       3.118   6.170  18.237  0.00  0.00    +0.000 A 
ATOM     12  C   UNL     1       2.528   4.960  17.853  0.00  0.00    +0.000 A 
ATOM     13  C   UNL     1       3.235   4.054  17.064  0.00  0.00    +0.000 A 
BRANCH   8  15
ATOM     14  C   UNL     1       6.307   4.161  15.111  0.00  0.00    +0.000 C 
ATOM     15  O   UNL     1       5.305   3.508  15.889  0.00  0.00    +0.000 OA
ENDBRANCH   8  15
ENDBRANCH   1  11
BRANCH   5  16
ATOM     16  C   UNL     1       0.841  10.272  20.198  0.00  0.00    +0.000 C 
BRANCH  16  17
ATOM     17  N   UNL     1       0.032  10.633  19.039  0.00  0.00    +0.000 NA
ATOM     18  C   UNL     1      -0.897   9.622  18.521  0.00  0.00    +0.000 C 
ATOM     19  C   UNL     1      -2.404   9.876  18.802  0.00  0.00    +0.000 C 
ATOM     20  C   UNL     1      -2.760  11.288  18.295  0.00  0.00    +0.000 C 
ATOM     21  C   UNL     1      -1.931  12.212  19.214  0.00  0.00    +0.000 C 
ATOM     22  C   UNL     1      -0.433  12.015  18.996  0.00  0.00    +0.000 C 
ATOM     23  O   UNL     1      -2.245  11.394  16.929  0.00  0.00    +0.000 OA
ATOM     24  C   UNL     1      -3.028  10.642  15.985  0.00  0.00    +0.000 C 
ATOM     25  C   UNL     1      -4.348  11.358  15.728  0.00  0.00    +0.000 C 
ATOM     26  C   UNL     1      -4.896  11.837  17.033  0.00  0.00    +0.000 A 
ATOM     27  S   UNL     1      -6.339  12.730  17.089  0.00  0.00    +0.000 S 
ATOM     28  C   UNL     1      -6.163  12.980  18.768  0.00  0.00    +0.000 A 
ATOM     29  C   UNL     1      -5.038  12.357  19.276  0.00  0.00    +0.000 A 
ATOM     30  C   UNL     1      -4.230  11.750  18.252  0.00  0.00    +0.000 A 
ENDBRANCH  16  17
ENDBRANCH   5  16
TORSDOF 4
ENDMDL
MODEL 3
REMARK VINA RESULT:      -7.2      0.907      1.027
REMARK  Name = 
REMARK  7 active torsions:
REMARK  status: ('A' for Active; 'I' for Inactive)
REMARK    1  A    between atoms: C_1  and  O_2
REMARK    2  A    between atoms: O_2  and  C_3
REMARK    3  A    between atoms: C_6  and  N_7
REMARK    4  A    between atoms: C_8  and  C_9
REMARK    5  A    between atoms: C_11  and  C_12
REMARK    6  A    between atoms: C_12  and  N_13
REMARK    7  A    between atoms: C_27  and  C_28
REMARK                            x       y       z     vdW  Elec       q    Type
REMARK                         _______ _______ _______ _____ _____    ______ ____
ROOT
ATOM      1  N   UNL     1       3.212   6.368  18.733  0.00  0.00    +0.000 N 
ATOM      2  C   UNL     1       2.884   5.641  19.886  0.00  0.00    +0.000 A 
ATOM      3  C   UNL     1       3.334   4.250  20.188  0.00  0.00    +0.000 C 
ATOM      4  C   UNL     1       1.967   6.361  20.597  0.00  0.00    +0.000 A 
ATOM      5  C   UNL     1       1.512   7.428  19.787  0.00  0.00    +0.000 A 
ATOM      6  C   UNL     1       2.359   7.474  18.678  0.00  0.00    +0.000 A 
ATOM      7  C   UNL     1       2.469   8.552  17.649  0.00  0.00    +0.000 C 
ENDROOT
BRANCH   1  11
ATOM      8  C   UNL     1       6.450   5.653  16.107  0.00  0.00    +0.000 A 
ATOM      9  C   UNL     1       5.261   4.937  15.946  0.00  0.00    +0.000 A 
ATOM     10  C   UNL     1       4.178   5.150  16.808  0.00  0.00    +0.000 A 
ATOM     11  C   UNL     1       4.295   6.079  17.847  0.00  0.00    +0.000 A 
ATOM     12  C   UNL     1       5.497   6.773  18.026  0.00  0.00    +0.000 A 
ATOM     13  C   UNL     1       6.570   6.553  17.163  0.00  0.00    +0.000 A 
BRANCH   8  15
ATOM     14  C   UNL     1       7.018   4.758  14.000  0.00  0.00    +0.000 C 
ATOM     15  O   UNL     1       7.448   5.377  15.211  0.00  0.00    +0.000 OA
ENDBRANCH   8  15
ENDBRANCH   1  11
BRANCH   5  16
ATOM     16  C   UNL     1       0.334   8.301  20.134  0.00  0.00    +0.000 C 
BRANCH  16  17
ATOM     17  N   UNL     1       0.814   9.605  20.576  0.00  0.00    +0.000 NA
ATOM     18  C   UNL     1       0.512  10.761  19.724  0.00  0.00    +0.000 C 
ATOM     19  C   UNL     1      -0.574  11.735  20.259  0.00  0.00    +0.000 C 
ATOM     20  C   UNL     1      -0.176  12.168  21.685  0.00  0.00    +0.000 C 
ATOM     21  C   UNL     1      -0.263  10.853  22.490  0.00  0.00    +0.000 C 
ATOM     22  C   UNL     1       0.777   9.841  22.015  0.00  0.00    +0.000 C 
ATOM     23  O   UNL     1       1.223  12.595  21.627  0.00  0.00    +0.000 OA
ATOM     24  C   UNL     1       1.382  13.872  20.981  0.00  0.00    +0.000 C 
ATOM     25  C   UNL     1       0.901  14.980  21.909  0.00  0.00    +0.000 C 
ATOM     26  C   UNL     1      -0.381  14.549  22.545  0.00  0.00    +0.000 A 
ATOM     27  S   UNL     1      -1.155  15.542  23.686  0.00  0.00    +0.000 S 
ATOM     28  C   UNL     1      -2.332  14.342  23.984  0.00  0.00    +0.000 A 
ATOM     29  C   UNL     1      -2.151  13.221  23.195  0.00  0.00    +0.000 A 
ATOM     30  C   UNL     1      -0.954  13.289  22.402  0.00  0.00    +0.000 A 
ENDBRANCH  16  17
ENDBRANCH   5  16
TORSDOF 4
ENDMDL
MODEL 4
REMARK VINA RESULT:      -7.1      3.675      4.972
REMARK  Name = 
REMARK  7 active torsions:
REMARK  status: ('A' for Active; 'I' for Inactive)
REMARK    1  A    between atoms: C_1  and  O_2
REMARK    2  A    between atoms: O_2  and  C_3
REMARK    3  A    between atoms: C_6  and  N_7
REMARK    4  A    between atoms: C_8  and  C_9
REMARK    5  A    between atoms: C_11  and  C_12
REMARK    6  A    between atoms: C_12  and  N_13
REMARK    7  A    between atoms: C_27  and  C_28
REMARK                            x       y       z     vdW  Elec       q    Type
REMARK                         _______ _______ _______ _____ _____    ______ ____
ROOT
ATOM      1  N   UNL     1       2.757   7.031  18.871  0.00  0.00    +0.000 N 
ATOM      2  C   UNL     1       3.037   7.773  17.715  0.00  0.00    +0.000 A 
ATOM      3  C   UNL     1       4.094   7.447  16.713  0.00  0.00    +0.000 C 
ATOM      4  C   UNL     1       2.289   8.915  17.751  0.00  0.00    +0.000 A 
ATOM      5  C   UNL     1       1.720   9.036  19.040  0.00  0.00    +0.000 A 
ATOM      6  C   UNL     1       1.940   7.818  19.688  0.00  0.00    +0.000 A 
ATOM      7  C   UNL     1       1.336   7.333  20.966  0.00  0.00    +0.000 C 
ENDROOT
BRANCH   1  11
ATOM      8  C   UNL     1       4.034   3.044  19.484  0.00  0.00    +0.000 A 
ATOM      9  C   UNL     1       2.674   3.314  19.312  0.00  0.00    +0.000 A 
ATOM     10  C   UNL     1       2.225   4.627  19.116  0.00  0.00    +0.000 A 
ATOM     11  C   UNL     1       3.150   5.677  19.106  0.00  0.00    +0.000 A 
ATOM     12  C   UNL     1       4.508   5.409  19.309  0.00  0.00    +0.000 A 
ATOM     13  C   UNL     1       4.944   4.099  19.504  0.00  0.00    +0.000 A 
BRANCH   8  15
ATOM     14  C   UNL     1       4.982   1.429  20.917  0.00  0.00    +0.000 C 
ATOM     15  O   UNL     1       4.373   1.730  19.663  0.00  0.00    +0.000 OA
ENDBRANCH   8  15
ENDBRANCH   1  11
BRANCH   5  16
ATOM     16  C   UNL     1       1.022  10.276  19.537  0.00  0.00    +0.000 C 
BRANCH  16  17
ATOM     17  N   UNL     1       0.083  10.740  18.521  0.00  0.00    +0.000 NA
ATOM     18  C   UNL     1      -0.832   9.749  17.943  0.00  0.00    +0.000 C 
ATOM     19  C   UNL     1      -2.316   9.851  18.391  0.00  0.00    +0.000 C 
ATOM     20  C   UNL     1      -2.802  11.292  18.134  0.00  0.00    +0.000 C 
ATOM     21  C   UNL     1      -1.941  12.133  19.103  0.00  0.00    +0.000 C 
ATOM     22  C   UNL     1      -0.463  12.077  18.725  0.00  0.00    +0.000 C 
ATOM     23  O   UNL     1      -2.430  11.629  16.759  0.00  0.00    +0.000 OA
ATOM     24  C   UNL     1      -3.258  10.965  15.787  0.00  0.00    +0.000 C 
ATOM     25  C   UNL     1      -4.635  11.614  15.757  0.00  0.00    +0.000 C 
ATOM     26  C   UNL     1      -5.079  11.862  17.163  0.00  0.00    +0.000 A 
ATOM     27  S   UNL     1      -6.559  12.633  17.479  0.00  0.00    +0.000 S 
ATOM     28  C   UNL     1      -6.233  12.652  19.154  0.00  0.00    +0.000 A 
ATOM     29  C   UNL     1      -5.029  12.046  19.461  0.00  0.00    +0.000 A 
ATOM     30  C   UNL     1      -4.293  11.650  18.291  0.00  0.00    +0.000 A 
ENDBRANCH  16  17
ENDBRANCH   5  16
TORSDOF 4
ENDMDL
MODEL 5
REMARK VINA RESULT:      -7.0      2.130      3.007
REMARK  Name = 
REMARK  7 active torsions:
REMARK  status: ('A' for Active; 'I' for Inactive)
REMARK    1  A    between atoms: C_1  and  O_2
REMARK    2  A    between atoms: O_2  and  C_3
REMARK    3  A    between atoms: C_6  and  N_7
REMARK    4  A    between atoms: C_8  and  C_9
REMARK    5  A    between atoms: C_11  and  C_12
REMARK    6  A    between atoms: C_12  and  N_13
REMARK    7  A    between atoms: C_27  and  C_28
REMARK                            x       y       z     vdW  Elec       q    Type
REMARK                         _______ _______ _______ _____ _____    ______ ____
ROOT
ATOM      1  N   UNL     1       2.471   6.742  19.047  0.00  0.00    +0.000 N 
ATOM      2  C   UNL     1       2.042   6.487  20.357  0.00  0.00    +0.000 A 
ATOM      3  C   UNL     1       2.087   5.159  21.038  0.00  0.00    +0.000 C 
ATOM      4  C   UNL     1       1.440   7.616  20.835  0.00  0.00    +0.000 A 
ATOM      5  C   UNL     1       1.252   8.513  19.757  0.00  0.00    +0.000 A 
ATOM      6  C   UNL     1       1.979   7.999  18.681  0.00  0.00    +0.000 A 
ATOM      7  C   UNL     1       2.314   8.675  17.391  0.00  0.00    +0.000 C 
ENDROOT
BRANCH   1  11
ATOM      8  C   UNL     1       5.111   4.396  16.718  0.00  0.00    +0.000 A 
ATOM      9  C   UNL     1       3.792   3.973  16.901  0.00  0.00    +0.000 A 
ATOM     10  C   UNL     1       2.901   4.728  17.675  0.00  0.00    +0.000 A 
ATOM     11  C   UNL     1       3.343   5.910  18.279  0.00  0.00    +0.000 A 
ATOM     12  C   UNL     1       4.673   6.317  18.120  0.00  0.00    +0.000 A 
ATOM     13  C   UNL     1       5.551   5.557  17.349  0.00  0.00    +0.000 A 
BRANCH   8  15
ATOM     14  C   UNL     1       6.251   4.137  14.669  0.00  0.00    +0.000 C 
ATOM     15  O   UNL     1       5.902   3.593  15.941  0.00  0.00    +0.000 OA
ENDBRANCH   8  15
ENDBRANCH   1  11
BRANCH   5  16
ATOM     16  C   UNL     1       0.416   9.763  19.843  0.00  0.00    +0.000 C 
BRANCH  16  17
ATOM     17  N   UNL     1       1.294  10.924  19.945  0.00  0.00    +0.000 NA
ATOM     18  C   UNL     1       1.616  11.639  18.706  0.00  0.00    +0.000 C 
ATOM     19  C   UNL     1       0.932  13.022  18.520  0.00  0.00    +0.000 C 
ATOM     20  C   UNL     1       1.231  13.880  19.766  0.00  0.00    +0.000 C 
ATOM     21  C   UNL     1       0.502  13.124  20.899  0.00  0.00    +0.000 C 
ATOM     22  C   UNL     1       1.120  11.748  21.136  0.00  0.00    +0.000 C 
ATOM     23  O   UNL     1       2.674  13.806  20.001  0.00  0.00    +0.000 OA
ATOM     24  C   UNL     1       3.427  14.575  19.046  0.00  0.00    +0.000 C 
ATOM     25  C   UNL     1       3.279  16.060  19.352  0.00  0.00    +0.000 C 
ATOM     26  C   UNL     1       1.846  16.343  19.669  0.00  0.00    +0.000 A 
ATOM     27  S   UNL     1       1.352  17.906  20.113  0.00  0.00    +0.000 S 
ATOM     28  C   UNL     1      -0.234  17.357  20.420  0.00  0.00    +0.000 A 
ATOM     29  C   UNL     1      -0.384  16.010  20.151  0.00  0.00    +0.000 A 
ATOM     30  C   UNL     1       0.854  15.375  19.789  0.00  0.00    +0.000 A 
ENDBRANCH  16  17
ENDBRANCH   5  16
TORSDOF 4
ENDMDL
MODEL 6
REMARK VINA RESULT:      -6.8      1.605      2.503
REMARK  Name = 
REMARK  7 active torsions:
REMARK  status: ('A' for Active; 'I' for Inactive)
REMARK    1  A    between atoms: C_1  and  O_2
REMARK    2  A    between atoms: O_2  and  C_3
REMARK    3  A    between atoms: C_6  and  N_7
REMARK    4  A    between atoms: C_8  and  C_9
REMARK    5  A    between atoms: C_11  and  C_12
REMARK    6  A    between atoms: C_12  and  N_13
REMARK    7  A    between atoms: C_27  and  C_28
REMARK                            x       y       z     vdW  Elec       q    Type
REMARK                         _______ _______ _______ _____ _____    ______ ____
ROOT
ATOM      1  N   UNL     1       2.528   6.859  19.030  0.00  0.00    +0.000 N 
ATOM      2  C   UNL     1       2.075   6.495  20.306  0.00  0.00    +0.000 A 
ATOM      3  C   UNL     1       2.204   5.139  20.916  0.00  0.00    +0.000 C 
ATOM      4  C   UNL     1       1.367   7.544  20.821  0.00  0.00    +0.000 A 
ATOM      5  C   UNL     1       1.145   8.483  19.787  0.00  0.00    +0.000 A 
ATOM      6  C   UNL     1       1.949   8.091  18.714  0.00  0.00    +0.000 A 
ATOM      7  C   UNL     1       2.273   8.865  17.478  0.00  0.00    +0.000 C 
ENDROOT
BRANCH   1  11
ATOM      8  C   UNL     1       5.334   4.620  16.791  0.00  0.00    +0.000 A 
ATOM      9  C   UNL     1       5.712   5.847  17.343  0.00  0.00    +0.000 A 
ATOM     10  C   UNL     1       4.799   6.610  18.081  0.00  0.00    +0.000 A 
ATOM     11  C   UNL     1       3.492   6.144  18.254  0.00  0.00    +0.000 A 
ATOM     12  C   UNL     1       3.104   4.930  17.675  0.00  0.00    +0.000 A 
ATOM     13  C   UNL     1       4.021   4.178  16.942  0.00  0.00    +0.000 A 
BRANCH   8  15
ATOM     14  C   UNL     1       6.151   3.980  14.673  0.00  0.00    +0.000 C 
ATOM     15  O   UNL     1       6.299   3.947  16.092  0.00  0.00    +0.000 OA
ENDBRANCH   8  15
ENDBRANCH   1  11
BRANCH   5  16
ATOM     16  C   UNL     1       0.207   9.657  19.907  0.00  0.00    +0.000 C 
BRANCH  16  17
ATOM     17  N   UNL     1       0.912  10.776  20.523  0.00  0.00    +0.000 NA
ATOM     18  C   UNL     1       1.408  11.833  19.635  0.00  0.00    +0.000 C 
ATOM     19  C   UNL     1       0.632  13.178  19.679  0.00  0.00    +0.000 C 
ATOM     20  C   UNL     1       0.566  13.651  21.145  0.00  0.00    +0.000 C 
ATOM     21  C   UNL     1      -0.297  12.567  21.828  0.00  0.00    +0.000 C 
ATOM     22  C   UNL     1       0.403  11.211  21.818  0.00  0.00    +0.000 C 
ATOM     23  O   UNL     1       1.927  13.576  21.680  0.00  0.00    +0.000 OA
ATOM     24  C   UNL     1       2.775  14.622  21.172  0.00  0.00    +0.000 C 
ATOM     25  C   UNL     1       2.406  15.946  21.828  0.00  0.00    +0.000 C 
ATOM     26  C   UNL     1       0.916  16.062  21.868  0.00  0.00    +0.000 A 
ATOM     27  S   UNL     1       0.173  17.405  22.593  0.00  0.00    +0.000 S 
ATOM     28  C   UNL     1      -1.373  16.721  22.362  0.00  0.00    +0.000 A 
ATOM     29  C   UNL     1      -1.316  15.504  21.709  0.00  0.00    +0.000 A 
ATOM     30  C   UNL     1       0.032  15.057  21.486  0.00  0.00    +0.000 A 
ENDBRANCH  16  17
ENDBRANCH   5  16
TORSDOF 4
ENDMDL
MODEL 7
REMARK VINA RESULT:      -6.7      3.541      4.902
REMARK  Name = 
REMARK  7 active torsions:
REMARK  status: ('A' for Active; 'I' for Inactive)
REMARK    1  A    between atoms: C_1  and  O_2
REMARK    2  A    between atoms: O_2  and  C_3
REMARK    3  A    between atoms: C_6  and  N_7
REMARK    4  A    between atoms: C_8  and  C_9
REMARK    5  A    between atoms: C_11  and  C_12
REMARK    6  A    between atoms: C_12  and  N_13
REMARK    7  A    between atoms: C_27  and  C_28
REMARK                            x       y       z     vdW  Elec       q    Type
REMARK                         _______ _______ _______ _____ _____    ______ ____
ROOT
ATOM      1  N   UNL     1       2.436   7.265  18.765  0.00  0.00    +0.000 N 
ATOM      2  C   UNL     1       2.942   8.029  17.703  0.00  0.00    +0.000 A 
ATOM      3  C   UNL     1       4.040   7.612  16.784  0.00  0.00    +0.000 C 
ATOM      4  C   UNL     1       2.367   9.267  17.760  0.00  0.00    +0.000 A 
ATOM      5  C   UNL     1       1.688   9.389  18.994  0.00  0.00    +0.000 A 
ATOM      6  C   UNL     1       1.660   8.113  19.560  0.00  0.00    +0.000 A 
ATOM      7  C   UNL     1       0.860   7.644  20.733  0.00  0.00    +0.000 C 
ENDROOT
BRANCH   1  11
ATOM      8  C   UNL     1       2.789   3.072  19.208  0.00  0.00    +0.000 A 
ATOM      9  C   UNL     1       3.419   3.919  20.125  0.00  0.00    +0.000 A 
ATOM     10  C   UNL     1       3.324   5.310  19.995  0.00  0.00    +0.000 A 
ATOM     11  C   UNL     1       2.602   5.855  18.927  0.00  0.00    +0.000 A 
ATOM     12  C   UNL     1       1.997   5.007  17.992  0.00  0.00    +0.000 A 
ATOM     13  C   UNL     1       2.099   3.623  18.131  0.00  0.00    +0.000 A 
BRANCH   8  15
ATOM     14  C   UNL     1       3.773   1.054  18.486  0.00  0.00    +0.000 C 
ATOM     15  O   UNL     1       2.937   1.729  19.424  0.00  0.00    +0.000 OA
ENDBRANCH   8  15
ENDBRANCH   1  11
BRANCH   5  16
ATOM     16  C   UNL     1       1.129  10.686  19.519  0.00  0.00    +0.000 C 
BRANCH  16  17
ATOM     17  N   UNL     1       0.014  11.106  18.677  0.00  0.00    +0.000 NA
ATOM     18  C   UNL     1      -0.999  10.099  18.344  0.00  0.00    +0.000 C 
ATOM     19  C   UNL     1      -2.369  10.248  19.061  0.00  0.00    +0.000 C 
ATOM     20  C   UNL     1      -2.889  11.679  18.818  0.00  0.00    +0.000 C 
ATOM     21  C   UNL     1      -1.855  12.560  19.554  0.00  0.00    +0.000 C 
ATOM     22  C   UNL     1      -0.477  12.461  18.904  0.00  0.00    +0.000 C 
ATOM     23  O   UNL     1      -2.787  11.933  17.380  0.00  0.00    +0.000 OA
ATOM     24  C   UNL     1      -3.788  11.228  16.625  0.00  0.00    +0.000 C 
ATOM     25  C   UNL     1      -5.144  11.895  16.822  0.00  0.00    +0.000 C 
ATOM     26  C   UNL     1      -5.308  12.228  18.270  0.00  0.00    +0.000 A 
ATOM     27  S   UNL     1      -6.697  13.037  18.818  0.00  0.00    +0.000 S 
ATOM     28  C   UNL     1      -6.055  13.145  20.396  0.00  0.00    +0.000 A 
ATOM     29  C   UNL     1      -4.817  12.539  20.502  0.00  0.00    +0.000 A 
ATOM     30  C   UNL     1      -4.320  12.068  19.237  0.00  0.00    +0.000 A 
ENDBRANCH  16  17
ENDBRANCH   5  16
TORSDOF 4
ENDMDL
MODEL 8
REMARK VINA RESULT:      -6.7      3.002      5.206
REMARK  Name = 
REMARK  7 active torsions:
REMARK  status: ('A' for Active; 'I' for Inactive)
REMARK    1  A    between atoms: C_1  and  O_2
REMARK    2  A    between atoms: O_2  and  C_3
REMARK    3  A    between atoms: C_6  and  N_7
REMARK    4  A    between atoms: C_8  and  C_9
REMARK    5  A    between atoms: C_11  and  C_12
REMARK    6  A    between atoms: C_12  and  N_13
REMARK    7  A    between atoms: C_27  and  C_28
REMARK                            x       y       z     vdW  Elec       q    Type
REMARK                         _______ _______ _______ _____ _____    ______ ____
ROOT
ATOM      1  N   UNL     1       1.563   8.594  19.925  0.00  0.00    +0.000 N 
ATOM      2  C   UNL     1       1.332   9.273  18.721  0.00  0.00    +0.000 A 
ATOM      3  C   UNL     1       1.835   8.852  17.380  0.00  0.00    +0.000 C 
ATOM      4  C   UNL     1       0.708  10.454  19.011  0.00  0.00    +0.000 A 
ATOM      5  C   UNL     1       0.763  10.656  20.410  0.00  0.00    +0.000 A 
ATOM      6  C   UNL     1       1.208   9.455  20.968  0.00  0.00    +0.000 A 
ATOM      7  C   UNL     1       1.209   9.055  22.407  0.00  0.00    +0.000 C 
ENDROOT
BRANCH   1  11
ATOM      8  C   UNL     1       2.838   4.566  20.145  0.00  0.00    +0.000 A 
ATOM      9  C   UNL     1       1.658   4.953  20.788  0.00  0.00    +0.000 A 
ATOM     10  C   UNL     1       1.220   6.282  20.737  0.00  0.00    +0.000 A 
ATOM     11  C   UNL     1       1.979   7.232  20.046  0.00  0.00    +0.000 A 
ATOM     12  C   UNL     1       3.176   6.850  19.429  0.00  0.00    +0.000 A 
ATOM     13  C   UNL     1       3.604   5.525  19.487  0.00  0.00    +0.000 A 
BRANCH   8  15
ATOM     14  C   UNL     1       3.792   2.686  19.089  0.00  0.00    +0.000 C 
ATOM     15  O   UNL     1       3.178   3.244  20.249  0.00  0.00    +0.000 OA
ENDBRANCH   8  15
ENDBRANCH   1  11
BRANCH   5  16
ATOM     16  C   UNL     1       0.388  11.949  21.086  0.00  0.00    +0.000 C 
BRANCH  16  17
ATOM     17  N   UNL     1      -0.968  11.843  21.611  0.00  0.00    +0.000 NA
ATOM     18  C   UNL     1      -1.172  12.167  23.028  0.00  0.00    +0.000 C 
ATOM     19  C   UNL     1      -1.889  13.513  23.322  0.00  0.00    +0.000 C 
ATOM     20  C   UNL     1      -3.217  13.536  22.537  0.00  0.00    +0.000 C 
ATOM     21  C   UNL     1      -2.754  13.542  21.063  0.00  0.00    +0.000 C 
ATOM     22  C   UNL     1      -2.035  12.245  20.701  0.00  0.00    +0.000 C 
ATOM     23  O   UNL     1      -3.898  12.271  22.813  0.00  0.00    +0.000 OA
ATOM     24  C   UNL     1      -4.454  12.223  24.140  0.00  0.00    +0.000 C 
ATOM     25  C   UNL     1      -5.694  13.106  24.208  0.00  0.00    +0.000 C 
ATOM     26  C   UNL     1      -5.409  14.388  23.496  0.00  0.00    +0.000 A 
ATOM     27  S   UNL     1      -6.613  15.576  23.340  0.00  0.00    +0.000 S 
ATOM     28  C   UNL     1      -5.594  16.532  22.361  0.00  0.00    +0.000 A 
ATOM     29  C   UNL     1      -4.345  15.965  22.191  0.00  0.00    +0.000 A 
ATOM     30  C   UNL     1      -4.245  14.658  22.782  0.00  0.00    +0.000 A 
ENDBRANCH  16  17
ENDBRANCH   5  16
TORSDOF 4
ENDMDL
MODEL 9
REMARK VINA RESULT:      -6.6      3.521      6.481
REMARK  Name = 
REMARK  7 active torsions:
REMARK  status: ('A' for Active; 'I' for Inactive)
REMARK    1  A    between atoms: C_1  and  O_2
REMARK    2  A    between atoms: O_2  and  C_3
REMARK    3  A    between atoms: C_6  and  N_7
REMARK    4  A    between atoms: C_8  and  C_9
REMARK    5  A    between atoms: C_11  and  C_12
REMARK    6  A    between atoms: C_12  and  N_13
REMARK    7  A    between atoms: C_27  and  C_28
REMARK                            x       y       z     vdW  Elec       q    Type
REMARK                         _______ _______ _______ _____ _____    ______ ____
ROOT
ATOM      1  N   UNL     1       0.092  10.989  18.950  0.00  0.00    +0.000 N 
ATOM      2  C   UNL     1      -1.180  11.123  18.376  0.00  0.00    +0.000 A 
ATOM      3  C   UNL     1      -1.829  10.131  17.469  0.00  0.00    +0.000 C 
ATOM      4  C   UNL     1      -1.645  12.375  18.663  0.00  0.00    +0.000 A 
ATOM      5  C   UNL     1      -0.581  13.135  19.201  0.00  0.00    +0.000 A 
ATOM      6  C   UNL     1       0.458  12.238  19.460  0.00  0.00    +0.000 A 
ATOM      7  C   UNL     1       1.705  12.477  20.248  0.00  0.00    +0.000 C 
ENDROOT
BRANCH   1  11
ATOM      8  C   UNL     1       2.289   7.410  19.469  0.00  0.00    +0.000 A 
ATOM      9  C   UNL     1       2.292   8.047  18.225  0.00  0.00    +0.000 A 
ATOM     10  C   UNL     1       1.565   9.228  18.026  0.00  0.00    +0.000 A 
ATOM     11  C   UNL     1       0.821   9.766  19.082  0.00  0.00    +0.000 A 
ATOM     12  C   UNL     1       0.794   9.110  20.318  0.00  0.00    +0.000 A 
ATOM     13  C   UNL     1       1.520   7.935  20.505  0.00  0.00    +0.000 A 
BRANCH   8  15
ATOM     14  C   UNL     1       4.013   6.095  18.541  0.00  0.00    +0.000 C 
ATOM     15  O   UNL     1       3.034   6.266  19.564  0.00  0.00    +0.000 OA
ENDBRANCH   8  15
ENDBRANCH   1  11
BRANCH   5  16
ATOM     16  C   UNL     1      -0.642  14.624  19.424  0.00  0.00    +0.000 C 
BRANCH  16  17
ATOM     17  N   UNL     1      -1.369  14.897  20.659  0.00  0.00    +0.000 NA
ATOM     18  C   UNL     1      -2.415  15.925  20.616  0.00  0.00    +0.000 C 
ATOM     19  C   UNL     1      -3.879  15.408  20.666  0.00  0.00    +0.000 C 
ATOM     20  C   UNL     1      -4.029  14.497  21.901  0.00  0.00    +0.000 C 
ATOM     21  C   UNL     1      -3.102  13.305  21.574  0.00  0.00    +0.000 C 
ATOM     22  C   UNL     1      -1.641  13.740  21.504  0.00  0.00    +0.000 C 
ATOM     23  O   UNL     1      -3.473  15.228  23.041  0.00  0.00    +0.000 OA
ATOM     24  C   UNL     1      -4.331  16.297  23.479  0.00  0.00    +0.000 C 
ATOM     25  C   UNL     1      -5.535  15.722  24.214  0.00  0.00    +0.000 C 
ATOM     26  C   UNL     1      -6.041  14.540  23.451  0.00  0.00    +0.000 A 
ATOM     27  S   UNL     1      -7.350  13.630  24.036  0.00  0.00    +0.000 S 
ATOM     28  C   UNL     1      -7.179  12.501  22.768  0.00  0.00    +0.000 A 
ATOM     29  C   UNL     1      -6.161  12.840  21.897  0.00  0.00    +0.000 A 
ATOM     30  C   UNL     1      -5.421  13.994  22.331  0.00  0.00    +0.000 A 
ENDBRANCH  16  17
ENDBRANCH   5  16
TORSDOF 4
ENDMDL
