MODEL 1
REMARK VINA RESULT:      -7.1      0.000      0.000
REMARK  Name = 
REMARK  12 active torsions:
REMARK  status: ('A' for Active; 'I' for Inactive)
REMARK    1  A    between atoms: C_3  and  C_4
REMARK    2  A    between atoms: C_4  and  C_5
REMARK    3  A    between atoms: C_5  and  C_6
REMARK    4  A    between atoms: C_6  and  C_7
REMARK    5  A    between atoms: C_8  and  C_9
REMARK    6  A    between atoms: N_13  and  C_14
REMARK    7  A    between atoms: C_16  and  O_17
REMARK    8  A    between atoms: O_17  and  C_18
REMARK    9  A    between atoms: C_19  and  O_20
REMARK   10  A    between atoms: O_20  and  C_21
REMARK   11  A    between atoms: C_22  and  O_23
REMARK   12  A    between atoms: O_23  and  C_24
REMARK                            x       y       z     vdW  Elec       q    Type
REMARK                         _______ _______ _______ _____ _____    ______ ____
ROOT
ATOM      1  C   UNL     1       2.064   5.886  20.685  0.00  0.00    +0.000 C 
ATOM      2  C   UNL     1       2.036   7.047  20.017  0.00  0.00    +0.000 C 
ATOM      3  C   UNL     1       1.478   8.307  20.464  0.00  0.00    +0.000 C 
ATOM      4  C   UNL     1       1.440   9.167  19.427  0.00  0.00    +0.000 C 
ATOM      5  C   UNL     1       2.061   8.500  18.259  0.00  0.00    +0.000 C 
ATOM      6  O   UNL     1       2.227   9.022  17.173  0.00  0.00    +0.000 OA
ATOM      7  N   UNL     1       2.459   7.234  18.715  0.00  0.00    +0.000 N 
ENDROOT
BRANCH   7   8
ATOM      8  C   UNL     1       3.383   6.448  17.983  0.00  0.00    +0.000 A 
ATOM      9  C   UNL     1       3.085   5.105  17.738  0.00  0.00    +0.000 A 
ATOM     10  C   UNL     1       3.997   4.272  17.090  0.00  0.00    +0.000 A 
ATOM     11  C   UNL     1       5.239   4.790  16.668  0.00  0.00    +0.000 A 
ATOM     12  C   UNL     1       5.552   6.145  16.917  0.00  0.00    +0.000 A 
ATOM     13  C   UNL     1       4.618   6.957  17.581  0.00  0.00    +0.000 A 
BRANCH  10  14
ATOM     14  O   UNL     1       3.757   2.935  16.872  0.00  0.00    +0.000 OA
ATOM     15  C   UNL     1       3.095   2.233  17.920  0.00  0.00    +0.000 C 
ENDBRANCH  10  14
BRANCH  11  16
ATOM     16  O   UNL     1       6.088   3.867  16.097  0.00  0.00    +0.000 OA
ATOM     17  C   UNL     1       6.192   3.865  14.680  0.00  0.00    +0.000 C 
ENDBRANCH  11  16
BRANCH  12  18
ATOM     18  O   UNL     1       6.786   6.602  16.530  0.00  0.00    +0.000 OA
ATOM     19  C   UNL     1       7.501   7.452  17.417  0.00  0.00    +0.000 C 
ENDBRANCH  12  18
ENDBRANCH   7   8
BRANCH   4  20
ATOM     20  C   UNL     1       1.002  10.504  19.416  0.00  0.00    +0.000 C 
ATOM     21  N   UNL     1       0.677  11.617  19.374  0.00  0.00    +0.000 NA
ENDBRANCH   4  20
BRANCH   3  22
ATOM     22  C   UNL     1       1.062   8.571  21.881  0.00  0.00    +0.000 C 
BRANCH  22  23
ATOM     23  C   UNL     1      -0.404   9.004  22.055  0.00  0.00    +0.000 C 
BRANCH  23  24
ATOM     24  C   UNL     1      -0.649   9.941  23.240  0.00  0.00    +0.000 C 
ATOM     25  C   UNL     1      -1.190  11.283  22.762  0.00  0.00    +0.000 C 
ENDBRANCH  23  24
ENDBRANCH  22  23
ENDBRANCH   3  22
TORSDOF 8
ENDMDL
MODEL 2
REMARK VINA RESULT:      -6.9      0.180      2.549
REMARK  Name = 
REMARK  12 active torsions:
REMARK  status: ('A' for Active; 'I' for Inactive)
REMARK    1  A    between atoms: C_3  and  C_4
REMARK    2  A    between atoms: C_4  and  C_5
REMARK    3  A    between atoms: C_5  and  C_6
REMARK    4  A    between atoms: C_6  and  C_7
REMARK    5  A    between atoms: C_8  and  C_9
REMARK    6  A    between atoms: N_13  and  C_14
REMARK    7  A    between atoms: C_16  and  O_17
REMARK    8  A    between atoms: O_17  and  C_18
REMARK    9  A    between atoms: C_19  and  O_20
REMARK   10  A    between atoms: O_20  and  C_21
REMARK   11  A    between atoms: C_22  and  O_23
REMARK   12  A    between atoms: O_23  and  C_24
REMARK                            x       y       z     vdW  Elec       q    Type
REMARK                         _______ _______ _______ _____ _____    ______ ____
ROOT
ATOM      1  C   UNL     1       2.046   5.927  20.872  0.00  0.00    +0.000 C 
ATOM      2  C   UNL     1       2.037   7.040  20.128  0.00  0.00    +0.000 C 
ATOM      3  C   UNL     1       1.486   8.332  20.483  0.00  0.00    +0.000 C 
ATOM      4  C   UNL     1       1.469   9.123  19.391  0.00  0.00    +0.000 C 
ATOM      5  C   UNL     1       2.098   8.374  18.278  0.00  0.00    +0.000 C 
ATOM      6  O   UNL     1       2.283   8.821  17.162  0.00  0.00    +0.000 OA
ATOM      7  N   UNL     1       2.479   7.138  18.822  0.00  0.00    +0.000 N 
ENDROOT
BRANCH   7   8
ATOM      8  C   UNL     1       3.404   6.296  18.156  0.00  0.00    +0.000 A 
ATOM      9  C   UNL     1       4.603   6.841  17.691  0.00  0.00    +0.000 A 
ATOM     10  C   UNL     1       5.509   6.070  16.962  0.00  0.00    +0.000 A 
ATOM     11  C   UNL     1       5.216   4.718  16.690  0.00  0.00    +0.000 A 
ATOM     12  C   UNL     1       4.002   4.160  17.150  0.00  0.00    +0.000 A 
ATOM     13  C   UNL     1       3.105   4.963  17.873  0.00  0.00    +0.000 A 
BRANCH  10  14
ATOM     14  O   UNL     1       6.678   6.584  16.450  0.00  0.00    +0.000 OA
ATOM     15  C   UNL     1       7.546   7.226  17.380  0.00  0.00    +0.000 C 
ENDBRANCH  10  14
BRANCH  11  16
ATOM     16  O   UNL     1       6.147   4.069  15.908  0.00  0.00    +0.000 OA
ATOM     17  C   UNL     1       5.942   4.084  14.502  0.00  0.00    +0.000 C 
ENDBRANCH  11  16
BRANCH  12  18
ATOM     18  O   UNL     1       3.733   2.853  16.830  0.00  0.00    +0.000 OA
ATOM     19  C   UNL     1       3.300   1.980  17.865  0.00  0.00    +0.000 C 
ENDBRANCH  12  18
ENDBRANCH   7   8
BRANCH   4  20
ATOM     20  C   UNL     1       1.044  10.459  19.285  0.00  0.00    +0.000 C 
ATOM     21  N   UNL     1       0.728  11.569  19.164  0.00  0.00    +0.000 NA
ENDBRANCH   4  20
BRANCH   3  22
ATOM     22  C   UNL     1       1.054   8.694  21.874  0.00  0.00    +0.000 C 
BRANCH  22  23
ATOM     23  C   UNL     1      -0.421   9.112  22.006  0.00  0.00    +0.000 C 
BRANCH  23  24
ATOM     24  C   UNL     1      -0.721   9.991  23.221  0.00  0.00    +0.000 C 
ATOM     25  C   UNL     1      -1.195  11.371  22.783  0.00  0.00    +0.000 C 
ENDBRANCH  23  24
ENDBRANCH  22  23
ENDBRANCH   3  22
TORSDOF 8
ENDMDL
MODEL 3
REMARK VINA RESULT:      -6.6      2.540      4.442
REMARK  Name = 
REMARK  12 active torsions:
REMARK  status: ('A' for Active; 'I' for Inactive)
REMARK    1  A    between atoms: C_3  and  C_4
REMARK    2  A    between atoms: C_4  and  C_5
REMARK    3  A    between atoms: C_5  and  C_6
REMARK    4  A    between atoms: C_6  and  C_7
REMARK    5  A    between atoms: C_8  and  C_9
REMARK    6  A    between atoms: N_13  and  C_14
REMARK    7  A    between atoms: C_16  and  O_17
REMARK    8  A    between atoms: O_17  and  C_18
REMARK    9  A    between atoms: C_19  and  O_20
REMARK   10  A    between atoms: O_20  and  C_21
REMARK   11  A    between atoms: C_22  and  O_23
REMARK   12  A    between atoms: O_23  and  C_24
REMARK                            x       y       z     vdW  Elec       q    Type
REMARK                         _______ _______ _______ _____ _____    ______ ____
ROOT
ATOM      1  C   UNL     1       1.644   8.893  17.664  0.00  0.00    +0.000 C 
ATOM      2  C   UNL     1       1.311   9.033  18.954  0.00  0.00    +0.000 C 
ATOM      3  C   UNL     1       0.536  10.101  19.552  0.00  0.00    +0.000 C 
ATOM      4  C   UNL     1       0.612  10.006  20.894  0.00  0.00    +0.000 C 
ATOM      5  C   UNL     1       1.397   8.793  21.220  0.00  0.00    +0.000 C 
ATOM      6  O   UNL     1       1.612   8.391  22.348  0.00  0.00    +0.000 OA
ATOM      7  N   UNL     1       1.732   8.216  19.985  0.00  0.00    +0.000 N 
ENDROOT
BRANCH   7   8
ATOM      8  C   UNL     1       2.186   6.877  19.899  0.00  0.00    +0.000 A 
ATOM      9  C   UNL     1       3.411   6.615  19.282  0.00  0.00    +0.000 A 
ATOM     10  C   UNL     1       3.862   5.306  19.105  0.00  0.00    +0.000 A 
ATOM     11  C   UNL     1       3.075   4.228  19.559  0.00  0.00    +0.000 A 
ATOM     12  C   UNL     1       1.830   4.483  20.178  0.00  0.00    +0.000 A 
ATOM     13  C   UNL     1       1.397   5.810  20.333  0.00  0.00    +0.000 A 
BRANCH  10  14
ATOM     14  O   UNL     1       5.042   5.008  18.463  0.00  0.00    +0.000 OA
ATOM     15  C   UNL     1       6.239   5.395  19.130  0.00  0.00    +0.000 C 
ENDBRANCH  10  14
BRANCH  11  16
ATOM     16  O   UNL     1       3.584   2.979  19.275  0.00  0.00    +0.000 OA
ATOM     17  C   UNL     1       3.064   2.306  18.137  0.00  0.00    +0.000 C 
ENDBRANCH  11  16
BRANCH  12  18
ATOM     18  O   UNL     1       1.074   3.408  20.568  0.00  0.00    +0.000 OA
ATOM     19  C   UNL     1       1.448   2.710  21.749  0.00  0.00    +0.000 C 
ENDBRANCH  12  18
ENDBRANCH   7   8
BRANCH   4  20
ATOM     20  C   UNL     1      -0.006  10.815  21.865  0.00  0.00    +0.000 C 
ATOM     21  N   UNL     1      -0.477  11.476  22.695  0.00  0.00    +0.000 NA
ENDBRANCH   4  20
BRANCH   3  22
ATOM     22  C   UNL     1      -0.243  11.106  18.754  0.00  0.00    +0.000 C 
BRANCH  22  23
ATOM     23  C   UNL     1      -1.751  10.821  18.649  0.00  0.00    +0.000 C 
BRANCH  23  24
ATOM     24  C   UNL     1      -2.357  11.123  17.277  0.00  0.00    +0.000 C 
ATOM     25  C   UNL     1      -2.360   9.874  16.404  0.00  0.00    +0.000 C 
ENDBRANCH  23  24
ENDBRANCH  22  23
ENDBRANCH   3  22
TORSDOF 8
ENDMDL
MODEL 4
REMARK VINA RESULT:      -6.4      2.637      4.714
REMARK  Name = 
REMARK  12 active torsions:
REMARK  status: ('A' for Active; 'I' for Inactive)
REMARK    1  A    between atoms: C_3  and  C_4
REMARK    2  A    between atoms: C_4  and  C_5
REMARK    3  A    between atoms: C_5  and  C_6
REMARK    4  A    between atoms: C_6  and  C_7
REMARK    5  A    between atoms: C_8  and  C_9
REMARK    6  A    between atoms: N_13  and  C_14
REMARK    7  A    between atoms: C_16  and  O_17
REMARK    8  A    between atoms: O_17  and  C_18
REMARK    9  A    between atoms: C_19  and  O_20
REMARK   10  A    between atoms: O_20  and  C_21
REMARK   11  A    between atoms: C_22  and  O_23
REMARK   12  A    between atoms: O_23  and  C_24
REMARK                            x       y       z     vdW  Elec       q    Type
REMARK                         _______ _______ _______ _____ _____    ______ ____
ROOT
ATOM      1  C   UNL     1       4.100   2.694  18.952  0.00  0.00    +0.000 C 
ATOM      2  C   UNL     1       3.721   3.973  19.076  0.00  0.00    +0.000 C 
ATOM      3  C   UNL     1       2.866   4.542  20.098  0.00  0.00    +0.000 C 
ATOM      4  C   UNL     1       2.540   5.803  19.751  0.00  0.00    +0.000 C 
ATOM      5  C   UNL     1       3.255   6.128  18.495  0.00  0.00    +0.000 C 
ATOM      6  O   UNL     1       3.214   7.208  17.936  0.00  0.00    +0.000 OA
ATOM      7  N   UNL     1       4.007   4.985  18.182  0.00  0.00    +0.000 N 
ENDROOT
BRANCH   7   8
ATOM      8  C   UNL     1       5.069   5.040  17.245  0.00  0.00    +0.000 A 
ATOM      9  C   UNL     1       6.055   6.017  17.395  0.00  0.00    +0.000 A 
ATOM     10  C   UNL     1       7.076   6.159  16.454  0.00  0.00    +0.000 A 
ATOM     11  C   UNL     1       7.120   5.302  15.336  0.00  0.00    +0.000 A 
ATOM     12  C   UNL     1       6.123   4.315  15.172  0.00  0.00    +0.000 A 
ATOM     13  C   UNL     1       5.101   4.203  16.129  0.00  0.00    +0.000 A 
BRANCH  10  14
ATOM     14  O   UNL     1       8.039   7.138  16.545  0.00  0.00    +0.000 OA
ATOM     15  C   UNL     1       7.867   8.098  17.584  0.00  0.00    +0.000 C 
ENDBRANCH  10  14
BRANCH  11  16
ATOM     16  O   UNL     1       8.131   5.571  14.438  0.00  0.00    +0.000 OA
ATOM     17  C   UNL     1       7.802   5.537  13.056  0.00  0.00    +0.000 C 
ENDBRANCH  11  16
BRANCH  12  18
ATOM     18  O   UNL     1       6.174   3.528  14.050  0.00  0.00    +0.000 OA
ATOM     19  C   UNL     1       5.090   3.586  13.133  0.00  0.00    +0.000 C 
ENDBRANCH  12  18
ENDBRANCH   7   8
BRANCH   4  20
ATOM     20  C   UNL     1       1.754   6.730  20.460  0.00  0.00    +0.000 C 
ATOM     21  N   UNL     1       1.145   7.525  21.045  0.00  0.00    +0.000 NA
ENDBRANCH   4  20
BRANCH   3  22
ATOM     22  C   UNL     1       2.470   3.811  21.348  0.00  0.00    +0.000 C 
BRANCH  22  23
ATOM     23  C   UNL     1       1.205   2.945  21.218  0.00  0.00    +0.000 C 
BRANCH  23  24
ATOM     24  C   UNL     1       0.388   3.208  19.952  0.00  0.00    +0.000 C 
ATOM     25  C   UNL     1       0.716   2.178  18.877  0.00  0.00    +0.000 C 
ENDBRANCH  23  24
ENDBRANCH  22  23
ENDBRANCH   3  22
TORSDOF 8
ENDMDL
MODEL 5
REMARK VINA RESULT:      -6.4      2.840      7.654
REMARK  Name = 
REMARK  12 active torsions:
REMARK  status: ('A' for Active; 'I' for Inactive)
REMARK    1  A    between atoms: C_3  and  C_4
REMARK    2  A    between atoms: C_4  and  C_5
REMARK    3  A    between atoms: C_5  and  C_6
REMARK    4  A    between atoms: C_6  and  C_7
REMARK    5  A    between atoms: C_8  and  C_9
REMARK    6  A    between atoms: N_13  and  C_14
REMARK    7  A    between atoms: C_16  and  O_17
REMARK    8  A    between atoms: O_17  and  C_18
REMARK    9  A    between atoms: C_19  and  O_20
REMARK   10  A    between atoms: O_20  and  C_21
REMARK   11  A    between atoms: C_22  and  O_23
REMARK   12  A    between atoms: O_23  and  C_24
REMARK                            x       y       z     vdW  Elec       q    Type
REMARK                         _______ _______ _______ _____ _____    ______ ____
ROOT
ATOM      1  C   UNL     1       1.255   8.301  21.506  0.00  0.00    +0.000 C 
ATOM      2  C   UNL     1       1.653   7.903  20.291  0.00  0.00    +0.000 C 
ATOM      3  C   UNL     1       2.122   6.588  19.905  0.00  0.00    +0.000 C 
ATOM      4  C   UNL     1       2.639   6.649  18.661  0.00  0.00    +0.000 C 
ATOM      5  C   UNL     1       2.446   8.028  18.156  0.00  0.00    +0.000 C 
ATOM      6  O   UNL     1       2.759   8.407  17.043  0.00  0.00    +0.000 OA
ATOM      7  N   UNL     1       1.778   8.716  19.181  0.00  0.00    +0.000 N 
ENDROOT
BRANCH   7   8
ATOM      8  C   UNL     1       1.129   9.951  18.934  0.00  0.00    +0.000 A 
ATOM      9  C   UNL     1       1.897  11.115  18.851  0.00  0.00    +0.000 A 
ATOM     10  C   UNL     1       1.295  12.364  18.688  0.00  0.00    +0.000 A 
ATOM     11  C   UNL     1      -0.109  12.457  18.598  0.00  0.00    +0.000 A 
ATOM     12  C   UNL     1      -0.894  11.286  18.688  0.00  0.00    +0.000 A 
ATOM     13  C   UNL     1      -0.262  10.044  18.863  0.00  0.00    +0.000 A 
BRANCH  10  14
ATOM     14  O   UNL     1       2.015  13.535  18.647  0.00  0.00    +0.000 OA
ATOM     15  C   UNL     1       2.767  13.855  19.814  0.00  0.00    +0.000 C 
ENDBRANCH  10  14
BRANCH  11  16
ATOM     16  O   UNL     1      -0.600  13.741  18.503  0.00  0.00    +0.000 OA
ATOM     17  C   UNL     1      -0.983  14.384  19.711  0.00  0.00    +0.000 C 
ENDBRANCH  11  16
BRANCH  12  18
ATOM     18  O   UNL     1      -2.258  11.420  18.639  0.00  0.00    +0.000 OA
ATOM     19  C   UNL     1      -2.906  11.289  17.380  0.00  0.00    +0.000 C 
ENDBRANCH  12  18
ENDBRANCH   7   8
BRANCH   4  20
ATOM     20  C   UNL     1       3.180   5.607  17.888  0.00  0.00    +0.000 C 
ATOM     21  N   UNL     1       3.668   4.775  17.242  0.00  0.00    +0.000 NA
ENDBRANCH   4  20
BRANCH   3  22
ATOM     22  C   UNL     1       1.992   5.374  20.777  0.00  0.00    +0.000 C 
BRANCH  22  23
ATOM     23  C   UNL     1       0.869   4.402  20.371  0.00  0.00    +0.000 C 
BRANCH  23  24
ATOM     24  C   UNL     1       1.358   3.017  19.944  0.00  0.00    +0.000 C 
ATOM     25  C   UNL     1       2.767   2.760  20.462  0.00  0.00    +0.000 C 
ENDBRANCH  23  24
ENDBRANCH  22  23
ENDBRANCH   3  22
TORSDOF 8
ENDMDL
MODEL 6
REMARK VINA RESULT:      -6.4      2.551      3.796
REMARK  Name = 
REMARK  12 active torsions:
REMARK  status: ('A' for Active; 'I' for Inactive)
REMARK    1  A    between atoms: C_3  and  C_4
REMARK    2  A    between atoms: C_4  and  C_5
REMARK    3  A    between atoms: C_5  and  C_6
REMARK    4  A    between atoms: C_6  and  C_7
REMARK    5  A    between atoms: C_8  and  C_9
REMARK    6  A    between atoms: N_13  and  C_14
REMARK    7  A    between atoms: C_16  and  O_17
REMARK    8  A    between atoms: O_17  and  C_18
REMARK    9  A    between atoms: C_19  and  O_20
REMARK   10  A    between atoms: O_20  and  C_21
REMARK   11  A    between atoms: C_22  and  O_23
REMARK   12  A    between atoms: O_23  and  C_24
REMARK                            x       y       z     vdW  Elec       q    Type
REMARK                         _______ _______ _______ _____ _____    ______ ____
ROOT
ATOM      1  C   UNL     1       1.883   8.726  17.531  0.00  0.00    +0.000 C 
ATOM      2  C   UNL     1       1.464   8.784  18.802  0.00  0.00    +0.000 C 
ATOM      3  C   UNL     1       0.605   9.785  19.402  0.00  0.00    +0.000 C 
ATOM      4  C   UNL     1       0.602   9.622  20.740  0.00  0.00    +0.000 C 
ATOM      5  C   UNL     1       1.420   8.428  21.054  0.00  0.00    +0.000 C 
ATOM      6  O   UNL     1       1.583   7.978  22.173  0.00  0.00    +0.000 OA
ATOM      7  N   UNL     1       1.857   7.933  19.816  0.00  0.00    +0.000 N 
ENDROOT
BRANCH   7   8
ATOM      8  C   UNL     1       2.377   6.620  19.693  0.00  0.00    +0.000 A 
ATOM      9  C   UNL     1       1.562   5.535  20.027  0.00  0.00    +0.000 A 
ATOM     10  C   UNL     1       2.055   4.230  19.997  0.00  0.00    +0.000 A 
ATOM     11  C   UNL     1       3.393   3.996  19.619  0.00  0.00    +0.000 A 
ATOM     12  C   UNL     1       4.226   5.088  19.287  0.00  0.00    +0.000 A 
ATOM     13  C   UNL     1       3.706   6.391  19.337  0.00  0.00    +0.000 A 
BRANCH  10  14
ATOM     14  O   UNL     1       1.296   3.141  20.362  0.00  0.00    +0.000 OA
ATOM     15  C   UNL     1       1.348   2.768  21.735  0.00  0.00    +0.000 C 
ENDBRANCH  10  14
BRANCH  11  16
ATOM     16  O   UNL     1       3.793   2.679  19.686  0.00  0.00    +0.000 OA
ATOM     17  C   UNL     1       3.651   1.894  18.510  0.00  0.00    +0.000 C 
ENDBRANCH  11  16
BRANCH  12  18
ATOM     18  O   UNL     1       5.533   4.825  18.965  0.00  0.00    +0.000 OA
ATOM     19  C   UNL     1       5.900   4.800  17.592  0.00  0.00    +0.000 C 
ENDBRANCH  12  18
ENDBRANCH   7   8
BRANCH   4  20
ATOM     20  C   UNL     1      -0.112  10.352  21.707  0.00  0.00    +0.000 C 
ATOM     21  N   UNL     1      -0.680  10.925  22.541  0.00  0.00    +0.000 NA
ENDBRANCH   4  20
BRANCH   3  22
ATOM     22  C   UNL     1      -0.168  10.796  18.606  0.00  0.00    +0.000 C 
BRANCH  22  23
ATOM     23  C   UNL     1      -1.639  10.429  18.348  0.00  0.00    +0.000 C 
BRANCH  23  24
ATOM     24  C   UNL     1      -2.229  11.042  17.077  0.00  0.00    +0.000 C 
ATOM     25  C   UNL     1      -2.631   9.953  16.090  0.00  0.00    +0.000 C 
ENDBRANCH  23  24
ENDBRANCH  22  23
ENDBRANCH   3  22
TORSDOF 8
ENDMDL
MODEL 7
REMARK VINA RESULT:      -6.3      2.841      7.839
REMARK  Name = 
REMARK  12 active torsions:
REMARK  status: ('A' for Active; 'I' for Inactive)
REMARK    1  A    between atoms: C_3  and  C_4
REMARK    2  A    between atoms: C_4  and  C_5
REMARK    3  A    between atoms: C_5  and  C_6
REMARK    4  A    between atoms: C_6  and  C_7
REMARK    5  A    between atoms: C_8  and  C_9
REMARK    6  A    between atoms: N_13  and  C_14
REMARK    7  A    between atoms: C_16  and  O_17
REMARK    8  A    between atoms: O_17  and  C_18
REMARK    9  A    between atoms: C_19  and  O_20
REMARK   10  A    between atoms: O_20  and  C_21
REMARK   11  A    between atoms: C_22  and  O_23
REMARK   12  A    between atoms: O_23  and  C_24
REMARK                            x       y       z     vdW  Elec       q    Type
REMARK                         _______ _______ _______ _____ _____    ______ ____
ROOT
ATOM      1  C   UNL     1       1.060   7.915  21.704  0.00  0.00    +0.000 C 
ATOM      2  C   UNL     1       1.525   7.758  20.458  0.00  0.00    +0.000 C 
ATOM      3  C   UNL     1       2.197   6.597  19.909  0.00  0.00    +0.000 C 
ATOM      4  C   UNL     1       2.708   6.911  18.702  0.00  0.00    +0.000 C 
ATOM      5  C   UNL     1       2.308   8.302  18.386  0.00  0.00    +0.000 C 
ATOM      6  O   UNL     1       2.569   8.877  17.346  0.00  0.00    +0.000 OA
ATOM      7  N   UNL     1       1.532   8.728  19.475  0.00  0.00    +0.000 N 
ENDROOT
BRANCH   7   8
ATOM      8  C   UNL     1       0.702   9.873  19.381  0.00  0.00    +0.000 A 
ATOM      9  C   UNL     1       0.887  10.920  20.287  0.00  0.00    +0.000 A 
ATOM     10  C   UNL     1       0.043  12.032  20.283  0.00  0.00    +0.000 A 
ATOM     11  C   UNL     1      -1.011  12.106  19.349  0.00  0.00    +0.000 A 
ATOM     12  C   UNL     1      -1.210  11.048  18.434  0.00  0.00    +0.000 A 
ATOM     13  C   UNL     1      -0.351   9.937  18.468  0.00  0.00    +0.000 A 
BRANCH  10  14
ATOM     14  O   UNL     1       0.166  13.061  21.187  0.00  0.00    +0.000 OA
ATOM     15  C   UNL     1       1.330  13.873  21.065  0.00  0.00    +0.000 C 
ENDBRANCH  10  14
BRANCH  11  16
ATOM     16  O   UNL     1      -1.820  13.214  19.475  0.00  0.00    +0.000 OA
ATOM     17  C   UNL     1      -2.993  13.079  20.267  0.00  0.00    +0.000 C 
ENDBRANCH  11  16
BRANCH  12  18
ATOM     18  O   UNL     1      -2.271  11.137  17.569  0.00  0.00    +0.000 OA
ATOM     19  C   UNL     1      -3.269  10.126  17.619  0.00  0.00    +0.000 C 
ENDBRANCH  12  18
ENDBRANCH   7   8
BRANCH   4  20
ATOM     20  C   UNL     1       3.412   6.083  17.809  0.00  0.00    +0.000 C 
ATOM     21  N   UNL     1       4.026   5.437  17.066  0.00  0.00    +0.000 NA
ENDBRANCH   4  20
BRANCH   3  22
ATOM     22  C   UNL     1       2.249   5.267  20.601  0.00  0.00    +0.000 C 
BRANCH  22  23
ATOM     23  C   UNL     1       0.997   4.391  20.416  0.00  0.00    +0.000 C 
BRANCH  23  24
ATOM     24  C   UNL     1       1.265   2.886  20.477  0.00  0.00    +0.000 C 
ATOM     25  C   UNL     1       1.972   2.414  19.213  0.00  0.00    +0.000 C 
ENDBRANCH  23  24
ENDBRANCH  22  23
ENDBRANCH   3  22
TORSDOF 8
ENDMDL
MODEL 8
REMARK VINA RESULT:      -6.2      2.965      7.612
REMARK  Name = 
REMARK  12 active torsions:
REMARK  status: ('A' for Active; 'I' for Inactive)
REMARK    1  A    between atoms: C_3  and  C_4
REMARK    2  A    between atoms: C_4  and  C_5
REMARK    3  A    between atoms: C_5  and  C_6
REMARK    4  A    between atoms: C_6  and  C_7
REMARK    5  A    between atoms: C_8  and  C_9
REMARK    6  A    between atoms: N_13  and  C_14
REMARK    7  A    between atoms: C_16  and  O_17
REMARK    8  A    between atoms: O_17  and  C_18
REMARK    9  A    between atoms: C_19  and  O_20
REMARK   10  A    between atoms: O_20  and  C_21
REMARK   11  A    between atoms: C_22  and  O_23
REMARK   12  A    between atoms: O_23  and  C_24
REMARK                            x       y       z     vdW  Elec       q    Type
REMARK                         _______ _______ _______ _____ _____    ______ ____
ROOT
ATOM      1  C   UNL     1       1.123   7.304  21.092  0.00  0.00    +0.000 C 
ATOM      2  C   UNL     1       1.669   7.598  19.905  0.00  0.00    +0.000 C 
ATOM      3  C   UNL     1       2.552   6.767  19.111  0.00  0.00    +0.000 C 
ATOM      4  C   UNL     1       3.062   7.500  18.102  0.00  0.00    +0.000 C 
ATOM      5  C   UNL     1       2.450   8.847  18.164  0.00  0.00    +0.000 C 
ATOM      6  O   UNL     1       2.662   9.740  17.365  0.00  0.00    +0.000 OA
ATOM      7  N   UNL     1       1.562   8.809  19.250  0.00  0.00    +0.000 N 
ENDROOT
BRANCH   7   8
ATOM      8  C   UNL     1       0.556   9.795  19.410  0.00  0.00    +0.000 A 
ATOM      9  C   UNL     1      -0.353  10.011  18.372  0.00  0.00    +0.000 A 
ATOM     10  C   UNL     1      -1.310  11.023  18.453  0.00  0.00    +0.000 A 
ATOM     11  C   UNL     1      -1.368  11.841  19.600  0.00  0.00    +0.000 A 
ATOM     12  C   UNL     1      -0.447  11.635  20.652  0.00  0.00    +0.000 A 
ATOM     13  C   UNL     1       0.512  10.615  20.538  0.00  0.00    +0.000 A 
BRANCH  10  14
ATOM     14  O   UNL     1      -2.193  11.293  17.433  0.00  0.00    +0.000 OA
ATOM     15  C   UNL     1      -3.101  10.250  17.090  0.00  0.00    +0.000 C 
ENDBRANCH  10  14
BRANCH  11  16
ATOM     16  O   UNL     1      -2.306  12.848  19.548  0.00  0.00    +0.000 OA
ATOM     17  C   UNL     1      -3.564  12.601  20.163  0.00  0.00    +0.000 C 
ENDBRANCH  11  16
BRANCH  12  18
ATOM     18  O   UNL     1      -0.506  12.477  21.733  0.00  0.00    +0.000 OA
ATOM     19  C   UNL     1      -1.181  12.030  22.902  0.00  0.00    +0.000 C 
ENDBRANCH  12  18
ENDBRANCH   7   8
BRANCH   4  20
ATOM     20  C   UNL     1       3.938   7.091  17.080  0.00  0.00    +0.000 C 
ATOM     21  N   UNL     1       4.693   6.739  16.272  0.00  0.00    +0.000 NA
ENDBRANCH   4  20
BRANCH   3  22
ATOM     22  C   UNL     1       2.792   5.312  19.391  0.00  0.00    +0.000 C 
BRANCH  22  23
ATOM     23  C   UNL     1       1.771   4.353  18.754  0.00  0.00    +0.000 C 
BRANCH  23  24
ATOM     24  C   UNL     1       1.119   3.381  19.738  0.00  0.00    +0.000 C 
ATOM     25  C   UNL     1       1.590   3.658  21.160  0.00  0.00    +0.000 C 
ENDBRANCH  23  24
ENDBRANCH  22  23
ENDBRANCH   3  22
TORSDOF 8
ENDMDL
MODEL 9
REMARK VINA RESULT:      -6.2      2.540      7.362
REMARK  Name = 
REMARK  12 active torsions:
REMARK  status: ('A' for Active; 'I' for Inactive)
REMARK    1  A    between atoms: C_3  and  C_4
REMARK    2  A    between atoms: C_4  and  C_5
REMARK    3  A    between atoms: C_5  and  C_6
REMARK    4  A    between atoms: C_6  and  C_7
REMARK    5  A    between atoms: C_8  and  C_9
REMARK    6  A    between atoms: N_13  and  C_14
REMARK    7  A    between atoms: C_16  and  O_17
REMARK    8  A    between atoms: O_17  and  C_18
REMARK    9  A    between atoms: C_19  and  O_20
REMARK   10  A    between atoms: O_20  and  C_21
REMARK   11  A    between atoms: C_22  and  O_23
REMARK   12  A    between atoms: O_23  and  C_24
REMARK                            x       y       z     vdW  Elec       q    Type
REMARK                         _______ _______ _______ _____ _____    ______ ____
ROOT
ATOM      1  C   UNL     1       1.663   5.972  20.509  0.00  0.00    +0.000 C 
ATOM      2  C   UNL     1       2.254   6.504  19.431  0.00  0.00    +0.000 C 
ATOM      3  C   UNL     1       3.140   5.841  18.495  0.00  0.00    +0.000 C 
ATOM      4  C   UNL     1       3.701   6.763  17.687  0.00  0.00    +0.000 C 
ATOM      5  C   UNL     1       3.122   8.082  18.032  0.00  0.00    +0.000 C 
ATOM      6  O   UNL     1       3.382   9.122  17.457  0.00  0.00    +0.000 OA
ATOM      7  N   UNL     1       2.199   7.833  19.059  0.00  0.00    +0.000 N 
ENDROOT
BRANCH   7   8
ATOM      8  C   UNL     1       1.215   8.790  19.409  0.00  0.00    +0.000 A 
ATOM      9  C   UNL     1       0.381   9.301  18.412  0.00  0.00    +0.000 A 
ATOM     10  C   UNL     1      -0.549  10.302  18.695  0.00  0.00    +0.000 A 
ATOM     11  C   UNL     1      -0.656  10.806  20.007  0.00  0.00    +0.000 A 
ATOM     12  C   UNL     1       0.187  10.301  21.022  0.00  0.00    +0.000 A 
ATOM     13  C   UNL     1       1.122   9.300  20.705  0.00  0.00    +0.000 A 
BRANCH  10  14
ATOM     14  O   UNL     1      -1.355  10.861  17.730  0.00  0.00    +0.000 OA
ATOM     15  C   UNL     1      -2.323   9.999  17.139  0.00  0.00    +0.000 C 
ENDBRANCH  10  14
BRANCH  11  16
ATOM     16  O   UNL     1      -1.560  11.835  20.161  0.00  0.00    +0.000 OA
ATOM     17  C   UNL     1      -1.059  13.162  20.068  0.00  0.00    +0.000 C 
ENDBRANCH  11  16
BRANCH  12  18
ATOM     18  O   UNL     1       0.083  10.844  22.276  0.00  0.00    +0.000 OA
ATOM     19  C   UNL     1      -0.761  10.202  23.223  0.00  0.00    +0.000 C 
ENDBRANCH  12  18
ENDBRANCH   7   8
BRANCH   4  20
ATOM     20  C   UNL     1       4.598   6.562  16.622  0.00  0.00    +0.000 C 
ATOM     21  N   UNL     1       5.344   6.445  15.742  0.00  0.00    +0.000 NA
ENDBRANCH   4  20
BRANCH   3  22
ATOM     22  C   UNL     1       3.333   4.353  18.451  0.00  0.00    +0.000 C 
BRANCH  22  23
ATOM     23  C   UNL     1       2.283   3.588  17.626  0.00  0.00    +0.000 C 
BRANCH  23  24
ATOM     24  C   UNL     1       1.183   2.930  18.461  0.00  0.00    +0.000 C 
ATOM     25  C   UNL     1       1.762   2.325  19.733  0.00  0.00    +0.000 C 
ENDBRANCH  23  24
ENDBRANCH  22  23
ENDBRANCH   3  22
TORSDOF 8
ENDMDL
