MODEL 1
REMARK VINA RESULT:      -7.5      0.000      0.000
REMARK  Name = 
REMARK  10 active torsions:
REMARK  status: ('A' for Active; 'I' for Inactive)
REMARK    1  A    between atoms: C_1  and  C_2
REMARK    2  A    between atoms: C_2  and  C_3
REMARK    3  A    between atoms: C_3  and  N_4
REMARK    4  A    between atoms: N_7  and  C_8
REMARK    5  A    between atoms: C_8  and  C_9
REMARK    6  A    between atoms: C_9  and  C_10
REMARK    7  A    between atoms: C_10  and  N_11
REMARK    8  A    between atoms: C_12  and  C_14
REMARK    9  A    between atoms: C_19  and  N_20
REMARK   10  A    between atoms: C_21  and  C_22
REMARK                            x       y       z     vdW  Elec       q    Type
REMARK                         _______ _______ _______ _____ _____    ______ ____
ROOT
ATOM      1  C   UNL     1       5.580   5.871  17.260  0.00  0.00    +0.000 A 
ATOM      2  C   UNL     1       5.235   4.704  16.590  0.00  0.00    +0.000 A 
ATOM      3  C   UNL     1       3.981   4.126  16.806  0.00  0.00    +0.000 A 
ATOM      4  C   UNL     1       3.044   4.738  17.656  0.00  0.00    +0.000 A 
ATOM      5 CL   UNL     1       1.449   4.071  17.551  0.00  0.00    +0.000 Cl
ATOM      6  C   UNL     1       3.395   5.909  18.360  0.00  0.00    +0.000 A 
ATOM      7  C   UNL     1       4.679   6.442  18.172  0.00  0.00    +0.000 A 
ENDROOT
BRANCH   6   8
ATOM      8  N   UNL     1       2.507   6.590  19.252  0.00  0.00    +0.000 N 
ATOM      9  C   UNL     1       1.930   6.106  20.441  0.00  0.00    +0.000 A 
ATOM     10  C   UNL     1       2.186   4.790  21.100  0.00  0.00    +0.000 C 
ATOM     11  N   UNL     1       1.162   7.013  21.020  0.00  0.00    +0.000 NA
ATOM     12  C   UNL     1       1.210   8.105  20.211  0.00  0.00    +0.000 A 
ATOM     13  C   UNL     1       0.614   9.366  20.354  0.00  0.00    +0.000 A 
ATOM     14  C   UNL     1       0.850  10.305  19.349  0.00  0.00    +0.000 A 
ATOM     15  C   UNL     1       1.603   9.928  18.244  0.00  0.00    +0.000 A 
ATOM     16  N   UNL     1       2.148   8.713  18.043  0.00  0.00    +0.000 NA
ATOM     17  C   UNL     1       1.984   7.864  19.087  0.00  0.00    +0.000 A 
ENDBRANCH   6   8
BRANCH   1  19
ATOM     18  N   UNL     1       7.249   7.570  17.741  0.00  0.00    +0.000 N 
ATOM     19  C   UNL     1       6.874   6.525  16.931  0.00  0.00    +0.000 C 
ATOM     20  O   UNL     1       7.526   6.133  15.970  0.00  0.00    +0.000 OA
ATOM     21  H   UNL     1       6.710   7.823  18.556  0.00  0.00    +0.000 HD
BRANCH  18  22
ATOM     22  C   UNL     1       8.444   8.347  17.489  0.00  0.00    +0.000 C 
BRANCH  22  23
ATOM     23  C   UNL     1       8.642   9.452  18.521  0.00  0.00    +0.000 C 
BRANCH  23  24
ATOM     24  C   UNL     1       8.757  10.852  17.904  0.00  0.00    +0.000 C 
BRANCH  24  28
ATOM     25  N   UNL     1       9.237  14.091  19.703  0.00  0.00    +0.000 NA
ATOM     26  C   UNL     1       9.089  13.920  18.241  0.00  0.00    +0.000 C 
ATOM     27  C   UNL     1      10.077  12.904  17.624  0.00  0.00    +0.000 C 
ATOM     28  N   UNL     1      10.011  11.556  18.234  0.00  0.00    +0.000 NA
ATOM     29  C   UNL     1      10.153  11.706  19.702  0.00  0.00    +0.000 C 
ATOM     30  C   UNL     1       9.197  12.751  20.340  0.00  0.00    +0.000 C 
BRANCH  25  31
ATOM     31  C   UNL     1      10.477  14.792  20.081  0.00  0.00    +0.000 C 
BRANCH  31  33
ATOM     32  C   UNL     1       9.667  16.533  21.700  0.00  0.00    +0.000 C 
ATOM     33  C   UNL     1      10.502  15.272  21.535  0.00  0.00    +0.000 C 
ENDBRANCH  31  33
ENDBRANCH  25  31
ENDBRANCH  24  28
ENDBRANCH  23  24
ENDBRANCH  22  23
ENDBRANCH  18  22
ENDBRANCH   1  19
TORSDOF 8
ENDMDL
MODEL 2
REMARK VINA RESULT:      -7.5      5.218      7.944
REMARK  Name = 
REMARK  10 active torsions:
REMARK  status: ('A' for Active; 'I' for Inactive)
REMARK    1  A    between atoms: C_1  and  C_2
REMARK    2  A    between atoms: C_2  and  C_3
REMARK    3  A    between atoms: C_3  and  N_4
REMARK    4  A    between atoms: N_7  and  C_8
REMARK    5  A    between atoms: C_8  and  C_9
REMARK    6  A    between atoms: C_9  and  C_10
REMARK    7  A    between atoms: C_10  and  N_11
REMARK    8  A    between atoms: C_12  and  C_14
REMARK    9  A    between atoms: C_19  and  N_20
REMARK   10  A    between atoms: C_21  and  C_22
REMARK                            x       y       z     vdW  Elec       q    Type
REMARK                         _______ _______ _______ _____ _____    ______ ____
ROOT
ATOM      1  C   UNL     1       2.537   6.581  19.571  0.00  0.00    +0.000 A 
ATOM      2  C   UNL     1       2.028   5.517  20.305  0.00  0.00    +0.000 A 
ATOM      3  C   UNL     1       2.663   4.273  20.253  0.00  0.00    +0.000 A 
ATOM      4  C   UNL     1       3.840   4.097  19.505  0.00  0.00    +0.000 A 
ATOM      5 CL   UNL     1       4.660   2.604  19.815  0.00  0.00    +0.000 Cl
ATOM      6  C   UNL     1       4.349   5.164  18.736  0.00  0.00    +0.000 A 
ATOM      7  C   UNL     1       3.665   6.389  18.758  0.00  0.00    +0.000 A 
ENDROOT
BRANCH   6   8
ATOM      8  N   UNL     1       5.534   5.068  17.939  0.00  0.00    +0.000 N 
ATOM      9  C   UNL     1       6.868   5.273  18.338  0.00  0.00    +0.000 A 
ATOM     10  C   UNL     1       7.366   5.553  19.718  0.00  0.00    +0.000 C 
ATOM     11  N   UNL     1       7.714   5.093  17.339  0.00  0.00    +0.000 NA
ATOM     12  C   UNL     1       6.947   4.778  16.261  0.00  0.00    +0.000 A 
ATOM     13  C   UNL     1       7.317   4.452  14.948  0.00  0.00    +0.000 A 
ATOM     14  C   UNL     1       6.293   4.167  14.045  0.00  0.00    +0.000 A 
ATOM     15  C   UNL     1       4.975   4.277  14.470  0.00  0.00    +0.000 A 
ATOM     16  N   UNL     1       4.575   4.639  15.704  0.00  0.00    +0.000 NA
ATOM     17  C   UNL     1       5.598   4.806  16.578  0.00  0.00    +0.000 A 
ENDBRANCH   6   8
BRANCH   1  19
ATOM     18  N   UNL     1       1.849   8.698  18.597  0.00  0.00    +0.000 N 
ATOM     19  C   UNL     1       1.910   7.919  19.728  0.00  0.00    +0.000 C 
ATOM     20  O   UNL     1       1.501   8.274  20.827  0.00  0.00    +0.000 OA
ATOM     21  H   UNL     1       2.146   8.344  17.698  0.00  0.00    +0.000 HD
BRANCH  18  22
ATOM     22  C   UNL     1       1.337  10.051  18.622  0.00  0.00    +0.000 C 
BRANCH  22  23
ATOM     23  C   UNL     1      -0.178  10.099  18.456  0.00  0.00    +0.000 C 
BRANCH  23  24
ATOM     24  C   UNL     1      -0.898  10.815  19.606  0.00  0.00    +0.000 C 
BRANCH  24  28
ATOM     25  N   UNL     1      -0.158  14.448  20.075  0.00  0.00    +0.000 NA
ATOM     26  C   UNL     1      -0.927  13.589  21.002  0.00  0.00    +0.000 C 
ATOM     27  C   UNL     1      -2.098  12.831  20.333  0.00  0.00    +0.000 C 
ATOM     28  N   UNL     1      -1.689  11.987  19.186  0.00  0.00    +0.000 NA
ATOM     29  C   UNL     1      -0.912  12.830  18.246  0.00  0.00    +0.000 C 
ATOM     30  C   UNL     1       0.245  13.632  18.902  0.00  0.00    +0.000 C 
BRANCH  25  31
ATOM     31  C   UNL     1      -0.910  15.634  19.628  0.00  0.00    +0.000 C 
BRANCH  31  33
ATOM     32  C   UNL     1      -0.968  17.712  18.218  0.00  0.00    +0.000 C 
ATOM     33  C   UNL     1      -0.230  16.411  18.496  0.00  0.00    +0.000 C 
ENDBRANCH  31  33
ENDBRANCH  25  31
ENDBRANCH  24  28
ENDBRANCH  23  24
ENDBRANCH  22  23
ENDBRANCH  18  22
ENDBRANCH   1  19
TORSDOF 8
ENDMDL
MODEL 3
REMARK VINA RESULT:      -7.5      4.916      8.686
REMARK  Name = 
REMARK  10 active torsions:
REMARK  status: ('A' for Active; 'I' for Inactive)
REMARK    1  A    between atoms: C_1  and  C_2
REMARK    2  A    between atoms: C_2  and  C_3
REMARK    3  A    between atoms: C_3  and  N_4
REMARK    4  A    between atoms: N_7  and  C_8
REMARK    5  A    between atoms: C_8  and  C_9
REMARK    6  A    between atoms: C_9  and  C_10
REMARK    7  A    between atoms: C_10  and  N_11
REMARK    8  A    between atoms: C_12  and  C_14
REMARK    9  A    between atoms: C_19  and  N_20
REMARK   10  A    between atoms: C_21  and  C_22
REMARK                            x       y       z     vdW  Elec       q    Type
REMARK                         _______ _______ _______ _____ _____    ______ ____
ROOT
ATOM      1  C   UNL     1       1.814   8.776  18.905  0.00  0.00    +0.000 A 
ATOM      2  C   UNL     1       1.347   8.565  20.197  0.00  0.00    +0.000 A 
ATOM      3  C   UNL     1       1.473   7.302  20.781  0.00  0.00    +0.000 A 
ATOM      4  C   UNL     1       2.111   6.253  20.097  0.00  0.00    +0.000 A 
ATOM      5 CL   UNL     1       2.467   4.875  21.083  0.00  0.00    +0.000 Cl
ATOM      6  C   UNL     1       2.566   6.451  18.776  0.00  0.00    +0.000 A 
ATOM      7  C   UNL     1       2.380   7.711  18.187  0.00  0.00    +0.000 A 
ENDROOT
BRANCH   6   8
ATOM      8  N   UNL     1       3.217   5.436  18.004  0.00  0.00    +0.000 N 
ATOM      9  C   UNL     1       2.722   4.171  17.640  0.00  0.00    +0.000 A 
ATOM     10  C   UNL     1       1.356   3.625  17.901  0.00  0.00    +0.000 C 
ATOM     11  N   UNL     1       3.593   3.492  16.915  0.00  0.00    +0.000 NA
ATOM     12  C   UNL     1       4.683   4.297  16.801  0.00  0.00    +0.000 A 
ATOM     13  C   UNL     1       5.888   4.100  16.112  0.00  0.00    +0.000 A 
ATOM     14  C   UNL     1       6.837   5.122  16.174  0.00  0.00    +0.000 A 
ATOM     15  C   UNL     1       6.567   6.240  16.953  0.00  0.00    +0.000 A 
ATOM     16  N   UNL     1       5.447   6.444  17.672  0.00  0.00    +0.000 NA
ATOM     17  C   UNL     1       4.510   5.479  17.504  0.00  0.00    +0.000 A 
ENDBRANCH   6   8
BRANCH   1  19
ATOM     18  N   UNL     1       1.129  11.097  19.116  0.00  0.00    +0.000 N 
ATOM     19  C   UNL     1       1.768  10.153  18.348  0.00  0.00    +0.000 C 
ATOM     20  O   UNL     1       2.268  10.383  17.254  0.00  0.00    +0.000 OA
ATOM     21  H   UNL     1       0.781  10.878  20.039  0.00  0.00    +0.000 HD
BRANCH  18  22
ATOM     22  C   UNL     1       0.941  12.458  18.662  0.00  0.00    +0.000 C 
BRANCH  22  23
ATOM     23  C   UNL     1       1.287  13.480  19.739  0.00  0.00    +0.000 C 
BRANCH  23  24
ATOM     24  C   UNL     1       0.121  13.788  20.688  0.00  0.00    +0.000 C 
BRANCH  24  28
ATOM     25  N   UNL     1      -2.882  13.583  22.902  0.00  0.00    +0.000 NA
ATOM     26  C   UNL     1      -1.478  13.365  23.316  0.00  0.00    +0.000 C 
ATOM     27  C   UNL     1      -0.727  12.317  22.463  0.00  0.00    +0.000 C 
ATOM     28  N   UNL     1      -0.718  12.618  21.012  0.00  0.00    +0.000 NA
ATOM     29  C   UNL     1      -2.117  12.843  20.579  0.00  0.00    +0.000 C 
ATOM     30  C   UNL     1      -2.905  13.864  21.445  0.00  0.00    +0.000 C 
BRANCH  25  31
ATOM     31  C   UNL     1      -3.758  12.438  23.208  0.00  0.00    +0.000 C 
BRANCH  31  33
ATOM     32  C   UNL     1      -6.007  13.239  23.989  0.00  0.00    +0.000 C 
ATOM     33  C   UNL     1      -4.670  12.658  24.420  0.00  0.00    +0.000 C 
ENDBRANCH  31  33
ENDBRANCH  25  31
ENDBRANCH  24  28
ENDBRANCH  23  24
ENDBRANCH  22  23
ENDBRANCH  18  22
ENDBRANCH   1  19
TORSDOF 8
ENDMDL
MODEL 4
REMARK VINA RESULT:      -7.4      0.885      1.376
REMARK  Name = 
REMARK  10 active torsions:
REMARK  status: ('A' for Active; 'I' for Inactive)
REMARK    1  A    between atoms: C_1  and  C_2
REMARK    2  A    between atoms: C_2  and  C_3
REMARK    3  A    between atoms: C_3  and  N_4
REMARK    4  A    between atoms: N_7  and  C_8
REMARK    5  A    between atoms: C_8  and  C_9
REMARK    6  A    between atoms: C_9  and  C_10
REMARK    7  A    between atoms: C_10  and  N_11
REMARK    8  A    between atoms: C_12  and  C_14
REMARK    9  A    between atoms: C_19  and  N_20
REMARK   10  A    between atoms: C_21  and  C_22
REMARK                            x       y       z     vdW  Elec       q    Type
REMARK                         _______ _______ _______ _____ _____    ______ ____
ROOT
ATOM      1  C   UNL     1       5.582   5.961  17.261  0.00  0.00    +0.000 A 
ATOM      2  C   UNL     1       5.224   4.831  16.536  0.00  0.00    +0.000 A 
ATOM      3  C   UNL     1       3.963   4.258  16.724  0.00  0.00    +0.000 A 
ATOM      4  C   UNL     1       3.033   4.839  17.603  0.00  0.00    +0.000 A 
ATOM      5 CL   UNL     1       1.431   4.197  17.466  0.00  0.00    +0.000 Cl
ATOM      6  C   UNL     1       3.398   5.971  18.362  0.00  0.00    +0.000 A 
ATOM      7  C   UNL     1       4.687   6.498  18.200  0.00  0.00    +0.000 A 
ENDROOT
BRANCH   6   8
ATOM      8  N   UNL     1       2.517   6.619  19.286  0.00  0.00    +0.000 N 
ATOM      9  C   UNL     1       1.942   6.088  20.456  0.00  0.00    +0.000 A 
ATOM     10  C   UNL     1       2.191   4.743  21.056  0.00  0.00    +0.000 C 
ATOM     11  N   UNL     1       1.181   6.973  21.076  0.00  0.00    +0.000 NA
ATOM     12  C   UNL     1       1.234   8.100  20.315  0.00  0.00    +0.000 A 
ATOM     13  C   UNL     1       0.646   9.357  20.514  0.00  0.00    +0.000 A 
ATOM     14  C   UNL     1       0.884  10.336  19.549  0.00  0.00    +0.000 A 
ATOM     15  C   UNL     1       1.631  10.003  18.427  0.00  0.00    +0.000 A 
ATOM     16  N   UNL     1       2.168   8.794  18.171  0.00  0.00    +0.000 NA
ATOM     17  C   UNL     1       2.002   7.902  19.178  0.00  0.00    +0.000 A 
ENDBRANCH   6   8
BRANCH   1  19
ATOM     18  N   UNL     1       7.152   7.773  17.652  0.00  0.00    +0.000 N 
ATOM     19  C   UNL     1       6.883   6.614  16.963  0.00  0.00    +0.000 C 
ATOM     20  O   UNL     1       7.634   6.123  16.129  0.00  0.00    +0.000 OA
ATOM     21  H   UNL     1       6.531   8.112  18.373  0.00  0.00    +0.000 HD
BRANCH  18  22
ATOM     22  C   UNL     1       8.344   8.555  17.405  0.00  0.00    +0.000 C 
BRANCH  22  23
ATOM     23  C   UNL     1       8.628   9.547  18.527  0.00  0.00    +0.000 C 
BRANCH  23  24
ATOM     24  C   UNL     1       9.121  10.912  18.029  0.00  0.00    +0.000 C 
BRANCH  24  28
ATOM     25  N   UNL     1      11.984  13.302  18.258  0.00  0.00    +0.000 NA
ATOM     26  C   UNL     1      11.969  11.910  18.759  0.00  0.00    +0.000 C 
ATOM     27  C   UNL     1      10.785  11.594  19.701  0.00  0.00    +0.000 C 
ATOM     28  N   UNL     1       9.455  11.863  19.107  0.00  0.00    +0.000 NA
ATOM     29  C   UNL     1       9.451  13.254  18.595  0.00  0.00    +0.000 C 
ATOM     30  C   UNL     1      10.653  13.608  17.676  0.00  0.00    +0.000 C 
BRANCH  25  31
ATOM     31  C   UNL     1      12.315  14.288  19.302  0.00  0.00    +0.000 C 
BRANCH  31  33
ATOM     32  C   UNL     1      11.791  16.532  20.303  0.00  0.00    +0.000 C 
ATOM     33  C   UNL     1      11.237  15.357  19.512  0.00  0.00    +0.000 C 
ENDBRANCH  31  33
ENDBRANCH  25  31
ENDBRANCH  24  28
ENDBRANCH  23  24
ENDBRANCH  22  23
ENDBRANCH  18  22
ENDBRANCH   1  19
TORSDOF 8
ENDMDL
MODEL 5
REMARK VINA RESULT:      -7.4      4.821      8.392
REMARK  Name = 
REMARK  10 active torsions:
REMARK  status: ('A' for Active; 'I' for Inactive)
REMARK    1  A    between atoms: C_1  and  C_2
REMARK    2  A    between atoms: C_2  and  C_3
REMARK    3  A    between atoms: C_3  and  N_4
REMARK    4  A    between atoms: N_7  and  C_8
REMARK    5  A    between atoms: C_8  and  C_9
REMARK    6  A    between atoms: C_9  and  C_10
REMARK    7  A    between atoms: C_10  and  N_11
REMARK    8  A    between atoms: C_12  and  C_14
REMARK    9  A    between atoms: C_19  and  N_20
REMARK   10  A    between atoms: C_21  and  C_22
REMARK                            x       y       z     vdW  Elec       q    Type
REMARK                         _______ _______ _______ _____ _____    ______ ____
ROOT
ATOM      1  C   UNL     1       1.148   8.773  20.601  0.00  0.00    +0.000 A 
ATOM      2  C   UNL     1       0.576   8.340  21.791  0.00  0.00    +0.000 A 
ATOM      3  C   UNL     1      -0.152   9.236  22.577  0.00  0.00    +0.000 A 
ATOM      4  C   UNL     1      -0.355  10.562  22.156  0.00  0.00    +0.000 A 
ATOM      5 CL   UNL     1      -1.538  11.426  23.078  0.00  0.00    +0.000 Cl
ATOM      6  C   UNL     1       0.244  11.018  20.963  0.00  0.00    +0.000 A 
ATOM      7  C   UNL     1       1.017  10.117  20.216  0.00  0.00    +0.000 A 
ENDROOT
BRANCH   6   8
ATOM      8  N   UNL     1       0.097  12.353  20.466  0.00  0.00    +0.000 N 
ATOM      9  C   UNL     1      -0.940  12.874  19.670  0.00  0.00    +0.000 A 
ATOM     10  C   UNL     1      -2.183  12.172  19.231  0.00  0.00    +0.000 C 
ATOM     11  N   UNL     1      -0.757  14.155  19.401  0.00  0.00    +0.000 NA
ATOM     12  C   UNL     1       0.413  14.494  20.007  0.00  0.00    +0.000 A 
ATOM     13  C   UNL     1       1.071  15.730  20.081  0.00  0.00    +0.000 A 
ATOM     14  C   UNL     1       2.274  15.775  20.786  0.00  0.00    +0.000 A 
ATOM     15  C   UNL     1       2.781  14.598  21.321  0.00  0.00    +0.000 A 
ATOM     16  N   UNL     1       2.209  13.382  21.228  0.00  0.00    +0.000 NA
ATOM     17  C   UNL     1       0.994  13.399  20.626  0.00  0.00    +0.000 A 
ENDBRANCH   6   8
BRANCH   1  19
ATOM     18  N   UNL     1       1.970   6.514  20.254  0.00  0.00    +0.000 N 
ATOM     19  C   UNL     1       1.823   7.776  19.730  0.00  0.00    +0.000 C 
ATOM     20  O   UNL     1       2.225   8.110  18.622  0.00  0.00    +0.000 OA
ATOM     21  H   UNL     1       1.573   6.266  21.149  0.00  0.00    +0.000 HD
BRANCH  18  22
ATOM     22  C   UNL     1       2.677   5.467  19.549  0.00  0.00    +0.000 C 
BRANCH  22  23
ATOM     23  C   UNL     1       4.189   5.576  19.718  0.00  0.00    +0.000 C 
BRANCH  23  24
ATOM     24  C   UNL     1       4.981   4.833  18.633  0.00  0.00    +0.000 C 
BRANCH  24  28
ATOM     25  N   UNL     1       7.106   4.573  15.571  0.00  0.00    +0.000 NA
ATOM     26  C   UNL     1       7.084   5.706  16.522  0.00  0.00    +0.000 C 
ATOM     27  C   UNL     1       5.674   6.285  16.777  0.00  0.00    +0.000 C 
ATOM     28  N   UNL     1       4.692   5.286  17.259  0.00  0.00    +0.000 NA
ATOM     29  C   UNL     1       4.702   4.139  16.320  0.00  0.00    +0.000 C 
ATOM     30  C   UNL     1       6.113   3.564  16.017  0.00  0.00    +0.000 C 
BRANCH  25  31
ATOM     31  C   UNL     1       6.823   4.978  14.183  0.00  0.00    +0.000 C 
BRANCH  31  33
ATOM     32  C   UNL     1       6.899   3.711  12.015  0.00  0.00    +0.000 C 
ATOM     33  C   UNL     1       6.166   3.883  13.337  0.00  0.00    +0.000 C 
ENDBRANCH  31  33
ENDBRANCH  25  31
ENDBRANCH  24  28
ENDBRANCH  23  24
ENDBRANCH  22  23
ENDBRANCH  18  22
ENDBRANCH   1  19
TORSDOF 8
ENDMDL
MODEL 6
REMARK VINA RESULT:      -7.3      5.273      8.519
REMARK  Name = 
REMARK  10 active torsions:
REMARK  status: ('A' for Active; 'I' for Inactive)
REMARK    1  A    between atoms: C_1  and  C_2
REMARK    2  A    between atoms: C_2  and  C_3
REMARK    3  A    between atoms: C_3  and  N_4
REMARK    4  A    between atoms: N_7  and  C_8
REMARK    5  A    between atoms: C_8  and  C_9
REMARK    6  A    between atoms: C_9  and  C_10
REMARK    7  A    between atoms: C_10  and  N_11
REMARK    8  A    between atoms: C_12  and  C_14
REMARK    9  A    between atoms: C_19  and  N_20
REMARK   10  A    between atoms: C_21  and  C_22
REMARK                            x       y       z     vdW  Elec       q    Type
REMARK                         _______ _______ _______ _____ _____    ______ ____
ROOT
ATOM      1  C   UNL     1       2.526   6.361  19.629  0.00  0.00    +0.000 A 
ATOM      2  C   UNL     1       1.885   5.216  20.085  0.00  0.00    +0.000 A 
ATOM      3  C   UNL     1       2.405   3.958  19.769  0.00  0.00    +0.000 A 
ATOM      4  C   UNL     1       3.597   3.836  19.034  0.00  0.00    +0.000 A 
ATOM      5 CL   UNL     1       4.260   2.237  19.018  0.00  0.00    +0.000 Cl
ATOM      6  C   UNL     1       4.240   4.992  18.545  0.00  0.00    +0.000 A 
ATOM      7  C   UNL     1       3.672   6.244  18.826  0.00  0.00    +0.000 A 
ENDROOT
BRANCH   6   8
ATOM      8  N   UNL     1       5.451   4.959  17.781  0.00  0.00    +0.000 N 
ATOM      9  C   UNL     1       6.763   5.215  18.222  0.00  0.00    +0.000 A 
ATOM     10  C   UNL     1       7.209   5.494  19.619  0.00  0.00    +0.000 C 
ATOM     11  N   UNL     1       7.644   5.085  17.245  0.00  0.00    +0.000 NA
ATOM     12  C   UNL     1       6.922   4.754  16.141  0.00  0.00    +0.000 A 
ATOM     13  C   UNL     1       7.344   4.464  14.835  0.00  0.00    +0.000 A 
ATOM     14  C   UNL     1       6.358   4.149  13.899  0.00  0.00    +0.000 A 
ATOM     15  C   UNL     1       5.026   4.197  14.286  0.00  0.00    +0.000 A 
ATOM     16  N   UNL     1       4.576   4.523  15.514  0.00  0.00    +0.000 NA
ATOM     17  C   UNL     1       5.565   4.721  16.419  0.00  0.00    +0.000 A 
ENDBRANCH   6   8
BRANCH   1  19
ATOM     18  N   UNL     1       1.775   7.825  21.415  0.00  0.00    +0.000 N 
ATOM     19  C   UNL     1       2.017   7.686  20.070  0.00  0.00    +0.000 C 
ATOM     20  O   UNL     1       1.822   8.568  19.243  0.00  0.00    +0.000 OA
ATOM     21  H   UNL     1       2.004   7.091  22.070  0.00  0.00    +0.000 HD
BRANCH  18  22
ATOM     22  C   UNL     1       1.203   9.033  21.972  0.00  0.00    +0.000 C 
BRANCH  22  23
ATOM     23  C   UNL     1      -0.238   9.249  21.525  0.00  0.00    +0.000 C 
BRANCH  23  24
ATOM     24  C   UNL     1      -0.521  10.677  21.040  0.00  0.00    +0.000 C 
BRANCH  24  28
ATOM     25  N   UNL     1      -2.562  13.681  21.921  0.00  0.00    +0.000 NA
ATOM     26  C   UNL     1      -1.484  13.626  20.909  0.00  0.00    +0.000 C 
ATOM     27  C   UNL     1      -0.145  13.070  21.445  0.00  0.00    +0.000 C 
ATOM     28  N   UNL     1      -0.253  11.721  22.048  0.00  0.00    +0.000 NA
ATOM     29  C   UNL     1      -1.332  11.754  23.063  0.00  0.00    +0.000 C 
ATOM     30  C   UNL     1      -2.676  12.345  22.559  0.00  0.00    +0.000 C 
BRANCH  25  31
ATOM     31  C   UNL     1      -2.336  14.712  22.950  0.00  0.00    +0.000 C 
BRANCH  31  33
ATOM     32  C   UNL     1      -4.116  15.684  24.432  0.00  0.00    +0.000 C 
ATOM     33  C   UNL     1      -3.466  15.740  23.058  0.00  0.00    +0.000 C 
ENDBRANCH  31  33
ENDBRANCH  25  31
ENDBRANCH  24  28
ENDBRANCH  23  24
ENDBRANCH  22  23
ENDBRANCH  18  22
ENDBRANCH   1  19
TORSDOF 8
ENDMDL
MODEL 7
REMARK VINA RESULT:      -7.3      4.566      8.904
REMARK  Name = 
REMARK  10 active torsions:
REMARK  status: ('A' for Active; 'I' for Inactive)
REMARK    1  A    between atoms: C_1  and  C_2
REMARK    2  A    between atoms: C_2  and  C_3
REMARK    3  A    between atoms: C_3  and  N_4
REMARK    4  A    between atoms: N_7  and  C_8
REMARK    5  A    between atoms: C_8  and  C_9
REMARK    6  A    between atoms: C_9  and  C_10
REMARK    7  A    between atoms: C_10  and  N_11
REMARK    8  A    between atoms: C_12  and  C_14
REMARK    9  A    between atoms: C_19  and  N_20
REMARK   10  A    between atoms: C_21  and  C_22
REMARK                            x       y       z     vdW  Elec       q    Type
REMARK                         _______ _______ _______ _____ _____    ______ ____
ROOT
ATOM      1  C   UNL     1       2.738   7.483  18.407  0.00  0.00    +0.000 A 
ATOM      2  C   UNL     1       2.438   6.587  19.425  0.00  0.00    +0.000 A 
ATOM      3  C   UNL     1       3.207   5.431  19.581  0.00  0.00    +0.000 A 
ATOM      4  C   UNL     1       4.314   5.186  18.750  0.00  0.00    +0.000 A 
ATOM      5 CL   UNL     1       5.333   3.894  19.288  0.00  0.00    +0.000 Cl
ATOM      6  C   UNL     1       4.611   6.077  17.697  0.00  0.00    +0.000 A 
ATOM      7  C   UNL     1       3.793   7.203  17.523  0.00  0.00    +0.000 A 
ENDROOT
BRANCH   6   8
ATOM      8  N   UNL     1       5.712   5.899  16.799  0.00  0.00    +0.000 N 
ATOM      9  C   UNL     1       7.007   6.442  16.894  0.00  0.00    +0.000 A 
ATOM     10  C   UNL     1       7.563   7.264  18.010  0.00  0.00    +0.000 C 
ATOM     11  N   UNL     1       7.775   6.061  15.888  0.00  0.00    +0.000 NA
ATOM     12  C   UNL     1       6.992   5.269  15.107  0.00  0.00    +0.000 A 
ATOM     13  C   UNL     1       7.298   4.567  13.933  0.00  0.00    +0.000 A 
ATOM     14  C   UNL     1       6.274   3.823  13.345  0.00  0.00    +0.000 A 
ATOM     15  C   UNL     1       5.007   3.862  13.913  0.00  0.00    +0.000 A 
ATOM     16  N   UNL     1       4.658   4.565  15.008  0.00  0.00    +0.000 NA
ATOM     17  C   UNL     1       5.701   5.190  15.606  0.00  0.00    +0.000 A 
ENDBRANCH   6   8
BRANCH   1  19
ATOM     18  N   UNL     1       1.234   9.086  19.439  0.00  0.00    +0.000 N 
ATOM     19  C   UNL     1       1.976   8.756  18.331  0.00  0.00    +0.000 C 
ATOM     20  O   UNL     1       2.021   9.432  17.310  0.00  0.00    +0.000 OA
ATOM     21  H   UNL     1       1.270   8.529  20.281  0.00  0.00    +0.000 HD
BRANCH  18  22
ATOM     22  C   UNL     1       0.382  10.255  19.473  0.00  0.00    +0.000 C 
BRANCH  22  23
ATOM     23  C   UNL     1       0.692  11.161  20.660  0.00  0.00    +0.000 C 
BRANCH  23  24
ATOM     24  C   UNL     1      -0.472  12.085  21.046  0.00  0.00    +0.000 C 
BRANCH  24  28
ATOM     25  N   UNL     1      -3.091  13.955  22.944  0.00  0.00    +0.000 NA
ATOM     26  C   UNL     1      -1.921  14.548  22.260  0.00  0.00    +0.000 C 
ATOM     27  C   UNL     1      -0.568  13.923  22.672  0.00  0.00    +0.000 C 
ATOM     28  N   UNL     1      -0.499  12.456  22.473  0.00  0.00    +0.000 NA
ATOM     29  C   UNL     1      -1.667  11.843  23.149  0.00  0.00    +0.000 C 
ATOM     30  C   UNL     1      -3.035  12.480  22.781  0.00  0.00    +0.000 C 
BRANCH  25  31
ATOM     31  C   UNL     1      -3.160  14.300  24.375  0.00  0.00    +0.000 C 
BRANCH  31  33
ATOM     32  C   UNL     1      -5.239  15.610  23.853  0.00  0.00    +0.000 C 
ATOM     33  C   UNL     1      -3.957  15.575  24.670  0.00  0.00    +0.000 C 
ENDBRANCH  31  33
ENDBRANCH  25  31
ENDBRANCH  24  28
ENDBRANCH  23  24
ENDBRANCH  22  23
ENDBRANCH  18  22
ENDBRANCH   1  19
TORSDOF 8
ENDMDL
MODEL 8
REMARK VINA RESULT:      -7.2      5.081      8.602
REMARK  Name = 
REMARK  10 active torsions:
REMARK  status: ('A' for Active; 'I' for Inactive)
REMARK    1  A    between atoms: C_1  and  C_2
REMARK    2  A    between atoms: C_2  and  C_3
REMARK    3  A    between atoms: C_3  and  N_4
REMARK    4  A    between atoms: N_7  and  C_8
REMARK    5  A    between atoms: C_8  and  C_9
REMARK    6  A    between atoms: C_9  and  C_10
REMARK    7  A    between atoms: C_10  and  N_11
REMARK    8  A    between atoms: C_12  and  C_14
REMARK    9  A    between atoms: C_19  and  N_20
REMARK   10  A    between atoms: C_21  and  C_22
REMARK                            x       y       z     vdW  Elec       q    Type
REMARK                         _______ _______ _______ _____ _____    ______ ____
ROOT
ATOM      1  C   UNL     1       1.769   8.568  19.033  0.00  0.00    +0.000 A 
ATOM      2  C   UNL     1       1.324   8.321  20.325  0.00  0.00    +0.000 A 
ATOM      3  C   UNL     1       1.488   7.051  20.884  0.00  0.00    +0.000 A 
ATOM      4  C   UNL     1       2.143   6.031  20.172  0.00  0.00    +0.000 A 
ATOM      5 CL   UNL     1       2.544   4.644  21.127  0.00  0.00    +0.000 Cl
ATOM      6  C   UNL     1       2.575   6.265  18.850  0.00  0.00    +0.000 A 
ATOM      7  C   UNL     1       2.351   7.531  18.287  0.00  0.00    +0.000 A 
ENDROOT
BRANCH   6   8
ATOM      8  N   UNL     1       3.241   5.281  18.050  0.00  0.00    +0.000 N 
ATOM      9  C   UNL     1       2.757   4.026  17.637  0.00  0.00    +0.000 A 
ATOM     10  C   UNL     1       1.392   3.464  17.864  0.00  0.00    +0.000 C 
ATOM     11  N   UNL     1       3.641   3.378  16.899  0.00  0.00    +0.000 NA
ATOM     12  C   UNL     1       4.727   4.192  16.825  0.00  0.00    +0.000 A 
ATOM     13  C   UNL     1       5.941   4.026  16.143  0.00  0.00    +0.000 A 
ATOM     14  C   UNL     1       6.882   5.050  16.251  0.00  0.00    +0.000 A 
ATOM     15  C   UNL     1       6.598   6.139  17.065  0.00  0.00    +0.000 A 
ATOM     16  N   UNL     1       5.469   6.312  17.778  0.00  0.00    +0.000 NA
ATOM     17  C   UNL     1       4.539   5.349  17.566  0.00  0.00    +0.000 A 
ENDBRANCH   6   8
BRANCH   1  19
ATOM     18  N   UNL     1       1.106  10.886  19.333  0.00  0.00    +0.000 N 
ATOM     19  C   UNL     1       1.682   9.954  18.502  0.00  0.00    +0.000 C 
ATOM     20  O   UNL     1       2.096  10.201  17.376  0.00  0.00    +0.000 OA
ATOM     21  H   UNL     1       0.831  10.652  20.276  0.00  0.00    +0.000 HD
BRANCH  18  22
ATOM     22  C   UNL     1       0.886  12.254  18.915  0.00  0.00    +0.000 C 
BRANCH  22  23
ATOM     23  C   UNL     1       0.505  13.159  20.082  0.00  0.00    +0.000 C 
BRANCH  23  24
ATOM     24  C   UNL     1      -0.769  12.714  20.812  0.00  0.00    +0.000 C 
BRANCH  24  28
ATOM     25  N   UNL     1      -3.168  14.312  23.190  0.00  0.00    +0.000 NA
ATOM     26  C   UNL     1      -2.012  14.972  22.543  0.00  0.00    +0.000 C 
ATOM     27  C   UNL     1      -0.671  14.230  22.742  0.00  0.00    +0.000 C 
ATOM     28  N   UNL     1      -0.690  12.822  22.282  0.00  0.00    +0.000 NA
ATOM     29  C   UNL     1      -1.844  12.143  22.917  0.00  0.00    +0.000 C 
ATOM     30  C   UNL     1      -3.197  12.891  22.764  0.00  0.00    +0.000 C 
BRANCH  25  31
ATOM     31  C   UNL     1      -3.131  14.396  24.661  0.00  0.00    +0.000 C 
BRANCH  31  33
ATOM     32  C   UNL     1      -4.408  16.543  24.922  0.00  0.00    +0.000 C 
ATOM     33  C   UNL     1      -3.095  15.829  25.202  0.00  0.00    +0.000 C 
ENDBRANCH  31  33
ENDBRANCH  25  31
ENDBRANCH  24  28
ENDBRANCH  23  24
ENDBRANCH  22  23
ENDBRANCH  18  22
ENDBRANCH   1  19
TORSDOF 8
ENDMDL
MODEL 9
REMARK VINA RESULT:      -7.2      3.694     10.336
REMARK  Name = 
REMARK  10 active torsions:
REMARK  status: ('A' for Active; 'I' for Inactive)
REMARK    1  A    between atoms: C_1  and  C_2
REMARK    2  A    between atoms: C_2  and  C_3
REMARK    3  A    between atoms: C_3  and  N_4
REMARK    4  A    between atoms: N_7  and  C_8
REMARK    5  A    between atoms: C_8  and  C_9
REMARK    6  A    between atoms: C_9  and  C_10
REMARK    7  A    between atoms: C_10  and  N_11
REMARK    8  A    between atoms: C_12  and  C_14
REMARK    9  A    between atoms: C_19  and  N_20
REMARK   10  A    between atoms: C_21  and  C_22
REMARK                            x       y       z     vdW  Elec       q    Type
REMARK                         _______ _______ _______ _____ _____    ______ ____
ROOT
ATOM      1  C   UNL     1       9.598  11.778  18.415  0.00  0.00    +0.000 A 
ATOM      2  C   UNL     1      10.634  11.865  17.494  0.00  0.00    +0.000 A 
ATOM      3  C   UNL     1      11.045  13.117  17.029  0.00  0.00    +0.000 A 
ATOM      4  C   UNL     1      10.455  14.295  17.519  0.00  0.00    +0.000 A 
ATOM      5 CL   UNL     1      11.298  15.744  17.087  0.00  0.00    +0.000 Cl
ATOM      6  C   UNL     1       9.385  14.215  18.434  0.00  0.00    +0.000 A 
ATOM      7  C   UNL     1       8.950  12.947  18.846  0.00  0.00    +0.000 A 
ENDROOT
BRANCH   6   8
ATOM      8  N   UNL     1       8.721  15.363  18.975  0.00  0.00    +0.000 N 
ATOM      9  C   UNL     1       7.444  15.859  18.654  0.00  0.00    +0.000 A 
ATOM     10  C   UNL     1       6.441  15.246  17.731  0.00  0.00    +0.000 C 
ATOM     11  N   UNL     1       7.144  16.938  19.356  0.00  0.00    +0.000 NA
ATOM     12  C   UNL     1       8.227  17.177  20.143  0.00  0.00    +0.000 A 
ATOM     13  C   UNL     1       8.446  18.170  21.108  0.00  0.00    +0.000 A 
ATOM     14  C   UNL     1       9.674  18.162  21.769  0.00  0.00    +0.000 A 
ATOM     15  C   UNL     1      10.628  17.222  21.400  0.00  0.00    +0.000 A 
ATOM     16  N   UNL     1      10.479  16.287  20.443  0.00  0.00    +0.000 NA
ATOM     17  C   UNL     1       9.238  16.261  19.897  0.00  0.00    +0.000 A 
ENDBRANCH   6   8
BRANCH   1  19
ATOM     18  N   UNL     1       8.747   9.526  18.088  0.00  0.00    +0.000 N 
ATOM     19  C   UNL     1       9.253  10.445  18.976  0.00  0.00    +0.000 C 
ATOM     20  O   UNL     1       9.411  10.230  20.172  0.00  0.00    +0.000 OA
ATOM     21  H   UNL     1       8.688   9.726  17.100  0.00  0.00    +0.000 HD
BRANCH  18  22
ATOM     22  C   UNL     1       8.296   8.218  18.511  0.00  0.00    +0.000 C 
BRANCH  22  23
ATOM     23  C   UNL     1       7.487   7.508  17.431  0.00  0.00    +0.000 C 
BRANCH  23  24
ATOM     24  C   UNL     1       6.798   6.228  17.923  0.00  0.00    +0.000 C 
BRANCH  24  28
ATOM     25  N   UNL     1       3.367   5.017  18.773  0.00  0.00    +0.000 NA
ATOM     26  C   UNL     1       4.586   4.184  18.674  0.00  0.00    +0.000 C 
ATOM     27  C   UNL     1       5.346   4.337  17.336  0.00  0.00    +0.000 C 
ATOM     28  N   UNL     1       5.738   5.731  17.025  0.00  0.00    +0.000 NA
ATOM     29  C   UNL     1       4.530   6.584  17.122  0.00  0.00    +0.000 C 
ATOM     30  C   UNL     1       3.727   6.419  18.442  0.00  0.00    +0.000 C 
BRANCH  25  31
ATOM     31  C   UNL     1       2.279   4.556  17.892  0.00  0.00    +0.000 C 
BRANCH  31  33
ATOM     32  C   UNL     1       0.976   3.821  19.909  0.00  0.00    +0.000 C 
ATOM     33  C   UNL     1       1.413   3.449  18.501  0.00  0.00    +0.000 C 
ENDBRANCH  31  33
ENDBRANCH  25  31
ENDBRANCH  24  28
ENDBRANCH  23  24
ENDBRANCH  22  23
ENDBRANCH  18  22
ENDBRANCH   1  19
TORSDOF 8
ENDMDL
