MODEL 1
REMARK VINA RESULT:      -7.3      0.000      0.000
REMARK  Name = 
REMARK  6 active torsions:
REMARK  status: ('A' for Active; 'I' for Inactive)
REMARK    1  A    between atoms: C_1  and  C_2
REMARK    2  A    between atoms: C_2  and  O_3
REMARK    3  A    between atoms: O_3  and  C_4
REMARK    4  A    between atoms: C_4  and  C_6
REMARK    5  A    between atoms: C_10  and  C_12
REMARK    6  A    between atoms: C_22  and  C_23
REMARK                            x       y       z     vdW  Elec       q    Type
REMARK                         _______ _______ _______ _____ _____    ______ ____
ROOT
ATOM      1  C   UNL     1       4.261   4.933  18.100  0.00  0.00    +0.000 A 
ATOM      2  S   UNL     1       3.658   6.536  18.178  0.00  0.00    +0.000 S 
ATOM      3  C   UNL     1       2.917   6.198  19.663  0.00  0.00    +0.000 A 
ATOM      4  N   UNL     1       2.189   7.135  20.352  0.00  0.00    +0.000 N 
ATOM      5  C   UNL     1       1.722   8.327  19.843  0.00  0.00    +0.000 C 
ATOM      6  O   UNL     1       1.861   8.746  18.698  0.00  0.00    +0.000 OA
ATOM      7  N   UNL     1       3.115   4.992  20.139  0.00  0.00    +0.000 NA
ATOM      8  C   UNL     1       3.863   4.242  19.235  0.00  0.00    +0.000 A 
ATOM      9  C   UNL     1       4.178   2.827  19.576  0.00  0.00    +0.000 C 
ATOM     10  H   UNL     1       1.868   6.799  21.249  0.00  0.00    +0.000 HD
ENDROOT
BRANCH   5  11
ATOM     11  C   UNL     1       0.904   9.155  20.775  0.00  0.00    +0.000 A 
ATOM     12  C   UNL     1       0.218   8.596  21.858  0.00  0.00    +0.000 A 
ATOM     13  C   UNL     1      -0.533   9.413  22.714  0.00  0.00    +0.000 A 
ATOM     14  C   UNL     1      -0.595  10.804  22.494  0.00  0.00    +0.000 A 
ATOM     15  N   UNL     1      -1.301  11.719  23.260  0.00  0.00    +0.000 NA
ATOM     16  C   UNL     1      -1.129  12.924  22.771  0.00  0.00    +0.000 A 
ATOM     17  S   UNL     1      -0.125  13.052  21.391  0.00  0.00    +0.000 S 
ATOM     18  C   UNL     1       0.113  11.346  21.419  0.00  0.00    +0.000 A 
ATOM     19  C   UNL     1       0.872  10.542  20.552  0.00  0.00    +0.000 A 
ENDBRANCH   5  11
BRANCH   1  20
ATOM     20  C   UNL     1       5.104   4.483  17.014  0.00  0.00    +0.000 C 
ATOM     21  O   UNL     1       4.705   4.137  15.906  0.00  0.00    +0.000 OA
BRANCH  20  22
ATOM     22  O   UNL     1       6.402   4.385  17.424  0.00  0.00    +0.000 OA
BRANCH  22  24
ATOM     23  C   UNL     1       7.662   5.934  18.727  0.00  0.00    +0.000 C 
ATOM     24  C   UNL     1       7.184   5.578  17.330  0.00  0.00    +0.000 C 
ENDBRANCH  22  24
ENDBRANCH  20  22
ENDBRANCH   1  20
TORSDOF 4
ENDMDL
MODEL 2
REMARK VINA RESULT:      -7.2      1.295      1.668
REMARK  Name = 
REMARK  6 active torsions:
REMARK  status: ('A' for Active; 'I' for Inactive)
REMARK    1  A    between atoms: C_1  and  C_2
REMARK    2  A    between atoms: C_2  and  O_3
REMARK    3  A    between atoms: O_3  and  C_4
REMARK    4  A    between atoms: C_4  and  C_6
REMARK    5  A    between atoms: C_10  and  C_12
REMARK    6  A    between atoms: C_22  and  C_23
REMARK                            x       y       z     vdW  Elec       q    Type
REMARK                         _______ _______ _______ _____ _____    ______ ____
ROOT
ATOM      1  C   UNL     1       4.669   5.073  17.669  0.00  0.00    +0.000 A 
ATOM      2  S   UNL     1       4.072   6.668  17.474  0.00  0.00    +0.000 S 
ATOM      3  C   UNL     1       3.116   6.492  18.861  0.00  0.00    +0.000 A 
ATOM      4  N   UNL     1       2.299   7.494  19.323  0.00  0.00    +0.000 N 
ATOM      5  C   UNL     1       1.921   8.616  18.618  0.00  0.00    +0.000 C 
ATOM      6  O   UNL     1       2.232   8.904  17.466  0.00  0.00    +0.000 OA
ATOM      7  N   UNL     1       3.233   5.351  19.495  0.00  0.00    +0.000 NA
ATOM      8  C   UNL     1       4.102   4.511  18.803  0.00  0.00    +0.000 A 
ATOM      9  C   UNL     1       4.353   3.147  19.346  0.00  0.00    +0.000 C 
ATOM     10  H   UNL     1       1.846   7.258  20.195  0.00  0.00    +0.000 HD
ENDROOT
BRANCH   5  11
ATOM     11  C   UNL     1       0.979   9.535  19.318  0.00  0.00    +0.000 A 
ATOM     12  C   UNL     1       0.308  10.563  18.649  0.00  0.00    +0.000 A 
ATOM     13  C   UNL     1      -0.576  11.399  19.345  0.00  0.00    +0.000 A 
ATOM     14  C   UNL     1      -0.799  11.204  20.724  0.00  0.00    +0.000 A 
ATOM     15  N   UNL     1      -1.639  11.959  21.528  0.00  0.00    +0.000 NA
ATOM     16  C   UNL     1      -1.607  11.493  22.753  0.00  0.00    +0.000 A 
ATOM     17  S   UNL     1      -0.595  10.142  23.030  0.00  0.00    +0.000 S 
ATOM     18  C   UNL     1      -0.133  10.160  21.371  0.00  0.00    +0.000 A 
ATOM     19  C   UNL     1       0.754   9.312  20.687  0.00  0.00    +0.000 A 
ENDBRANCH   5  11
BRANCH   1  20
ATOM     20  C   UNL     1       5.661   4.511  16.779  0.00  0.00    +0.000 C 
ATOM     21  O   UNL     1       5.427   4.015  15.682  0.00  0.00    +0.000 OA
BRANCH  20  22
ATOM     22  O   UNL     1       6.889   4.505  17.374  0.00  0.00    +0.000 OA
BRANCH  22  24
ATOM     23  C   UNL     1       7.889   5.748  19.146  0.00  0.00    +0.000 C 
ATOM     24  C   UNL     1       7.440   5.785  17.696  0.00  0.00    +0.000 C 
ENDBRANCH  22  24
ENDBRANCH  20  22
ENDBRANCH   1  20
TORSDOF 4
ENDMDL
MODEL 3
REMARK VINA RESULT:      -7.2      0.988      1.046
REMARK  Name = 
REMARK  6 active torsions:
REMARK  status: ('A' for Active; 'I' for Inactive)
REMARK    1  A    between atoms: C_1  and  C_2
REMARK    2  A    between atoms: C_2  and  O_3
REMARK    3  A    between atoms: O_3  and  C_4
REMARK    4  A    between atoms: C_4  and  C_6
REMARK    5  A    between atoms: C_10  and  C_12
REMARK    6  A    between atoms: C_22  and  C_23
REMARK                            x       y       z     vdW  Elec       q    Type
REMARK                         _______ _______ _______ _____ _____    ______ ____
ROOT
ATOM      1  C   UNL     1       3.416   4.533  19.067  0.00  0.00    +0.000 A 
ATOM      2  S   UNL     1       3.095   6.216  19.009  0.00  0.00    +0.000 S 
ATOM      3  C   UNL     1       2.183   6.104  20.432  0.00  0.00    +0.000 A 
ATOM      4  N   UNL     1       1.572   7.193  21.001  0.00  0.00    +0.000 N 
ATOM      5  C   UNL     1       1.364   8.411  20.392  0.00  0.00    +0.000 C 
ATOM      6  O   UNL     1       1.670   8.726  19.246  0.00  0.00    +0.000 OA
ATOM      7  N   UNL     1       2.129   4.916  20.984  0.00  0.00    +0.000 NA
ATOM      8  C   UNL     1       2.810   3.994  20.192  0.00  0.00    +0.000 A 
ATOM      9  C   UNL     1       2.845   2.572  20.632  0.00  0.00    +0.000 C 
ATOM     10  H   UNL     1       1.123   6.974  21.880  0.00  0.00    +0.000 HD
ENDROOT
BRANCH   5  11
ATOM     11  C   UNL     1       0.625   9.423  21.200  0.00  0.00    +0.000 A 
ATOM     12  C   UNL     1      -0.110   9.073  22.337  0.00  0.00    +0.000 A 
ATOM     13  C   UNL     1      -0.783  10.058  23.073  0.00  0.00    +0.000 A 
ATOM     14  C   UNL     1      -0.717  11.409  22.675  0.00  0.00    +0.000 A 
ATOM     15  N   UNL     1      -1.337  12.476  23.308  0.00  0.00    +0.000 NA
ATOM     16  C   UNL     1      -1.054  13.587  22.671  0.00  0.00    +0.000 A 
ATOM     17  S   UNL     1      -0.043  13.444  21.298  0.00  0.00    +0.000 S 
ATOM     18  C   UNL     1       0.037  11.741  21.547  0.00  0.00    +0.000 A 
ATOM     19  C   UNL     1       0.720  10.767  20.800  0.00  0.00    +0.000 A 
ENDBRANCH   5  11
BRANCH   1  20
ATOM     20  C   UNL     1       4.257   3.878  18.089  0.00  0.00    +0.000 C 
ATOM     21  O   UNL     1       3.854   3.190  17.158  0.00  0.00    +0.000 OA
BRANCH  20  22
ATOM     22  O   UNL     1       5.575   4.037  18.409  0.00  0.00    +0.000 OA
BRANCH  22  24
ATOM     23  C   UNL     1       7.460   5.463  18.098  0.00  0.00    +0.000 C 
ATOM     24  C   UNL     1       6.401   4.626  17.402  0.00  0.00    +0.000 C 
ENDBRANCH  22  24
ENDBRANCH  20  22
ENDBRANCH   1  20
TORSDOF 4
ENDMDL
MODEL 4
REMARK VINA RESULT:      -7.2      1.064      1.616
REMARK  Name = 
REMARK  6 active torsions:
REMARK  status: ('A' for Active; 'I' for Inactive)
REMARK    1  A    between atoms: C_1  and  C_2
REMARK    2  A    between atoms: C_2  and  O_3
REMARK    3  A    between atoms: O_3  and  C_4
REMARK    4  A    between atoms: C_4  and  C_6
REMARK    5  A    between atoms: C_10  and  C_12
REMARK    6  A    between atoms: C_22  and  C_23
REMARK                            x       y       z     vdW  Elec       q    Type
REMARK                         _______ _______ _______ _____ _____    ______ ____
ROOT
ATOM      1  C   UNL     1       4.545   4.817  18.176  0.00  0.00    +0.000 A 
ATOM      2  S   UNL     1       3.950   6.423  18.269  0.00  0.00    +0.000 S 
ATOM      3  C   UNL     1       3.070   6.029  19.662  0.00  0.00    +0.000 A 
ATOM      4  N   UNL     1       2.287   6.945  20.320  0.00  0.00    +0.000 N 
ATOM      5  C   UNL     1       1.881   8.163  19.823  0.00  0.00    +0.000 C 
ATOM      6  O   UNL     1       2.130   8.630  18.716  0.00  0.00    +0.000 OA
ATOM      7  N   UNL     1       3.212   4.802  20.100  0.00  0.00    +0.000 NA
ATOM      8  C   UNL     1       4.036   4.083  19.237  0.00  0.00    +0.000 A 
ATOM      9  C   UNL     1       4.306   2.651  19.543  0.00  0.00    +0.000 C 
ATOM     10  H   UNL     1       1.881   6.573  21.168  0.00  0.00    +0.000 HD
ENDROOT
BRANCH   5  11
ATOM     11  C   UNL     1       0.985   8.959  20.711  0.00  0.00    +0.000 A 
ATOM     12  C   UNL     1       0.881   8.705  22.082  0.00  0.00    +0.000 A 
ATOM     13  C   UNL     1       0.032   9.484  22.881  0.00  0.00    +0.000 A 
ATOM     14  C   UNL     1      -0.716  10.533  22.308  0.00  0.00    +0.000 A 
ATOM     15  N   UNL     1      -1.591  11.372  22.981  0.00  0.00    +0.000 NA
ATOM     16  C   UNL     1      -2.106  12.235  22.139  0.00  0.00    +0.000 A 
ATOM     17  S   UNL     1      -1.589  12.115  20.512  0.00  0.00    +0.000 S 
ATOM     18  C   UNL     1      -0.584  10.783  20.940  0.00  0.00    +0.000 A 
ATOM     19  C   UNL     1       0.264  10.014  20.126  0.00  0.00    +0.000 A 
ENDBRANCH   5  11
BRANCH   1  20
ATOM     20  C   UNL     1       5.482   4.404  17.155  0.00  0.00    +0.000 C 
ATOM     21  O   UNL     1       6.676   4.190  17.336  0.00  0.00    +0.000 OA
BRANCH  20  22
ATOM     22  O   UNL     1       4.880   4.393  15.930  0.00  0.00    +0.000 OA
BRANCH  22  24
ATOM     23  C   UNL     1       5.908   3.893  13.837  0.00  0.00    +0.000 C 
ATOM     24  C   UNL     1       5.622   4.981  14.858  0.00  0.00    +0.000 C 
ENDBRANCH  22  24
ENDBRANCH  20  22
ENDBRANCH   1  20
TORSDOF 4
ENDMDL
MODEL 5
REMARK VINA RESULT:      -7.1      2.121      2.591
REMARK  Name = 
REMARK  6 active torsions:
REMARK  status: ('A' for Active; 'I' for Inactive)
REMARK    1  A    between atoms: C_1  and  C_2
REMARK    2  A    between atoms: C_2  and  O_3
REMARK    3  A    between atoms: O_3  and  C_4
REMARK    4  A    between atoms: C_4  and  C_6
REMARK    5  A    between atoms: C_10  and  C_12
REMARK    6  A    between atoms: C_22  and  C_23
REMARK                            x       y       z     vdW  Elec       q    Type
REMARK                         _______ _______ _______ _____ _____    ______ ____
ROOT
ATOM      1  C   UNL     1       4.888   5.163  17.628  0.00  0.00    +0.000 A 
ATOM      2  S   UNL     1       4.274   6.745  17.378  0.00  0.00    +0.000 S 
ATOM      3  C   UNL     1       3.192   6.541  18.665  0.00  0.00    +0.000 A 
ATOM      4  N   UNL     1       2.310   7.522  19.046  0.00  0.00    +0.000 N 
ATOM      5  C   UNL     1       1.976   8.637  18.309  0.00  0.00    +0.000 C 
ATOM      6  O   UNL     1       2.390   8.936  17.193  0.00  0.00    +0.000 OA
ATOM      7  N   UNL     1       3.274   5.401  19.306  0.00  0.00    +0.000 NA
ATOM      8  C   UNL     1       4.226   4.584  18.701  0.00  0.00    +0.000 A 
ATOM      9  C   UNL     1       4.457   3.225  19.265  0.00  0.00    +0.000 C 
ATOM     10  H   UNL     1       1.780   7.272  19.870  0.00  0.00    +0.000 HD
ENDROOT
BRANCH   5  11
ATOM     11  C   UNL     1       0.948   9.530  18.915  0.00  0.00    +0.000 A 
ATOM     12  C   UNL     1       1.054  10.003  20.226  0.00  0.00    +0.000 A 
ATOM     13  C   UNL     1       0.068  10.849  20.753  0.00  0.00    +0.000 A 
ATOM     14  C   UNL     1      -1.034  11.233  19.962  0.00  0.00    +0.000 A 
ATOM     15  N   UNL     1      -2.076  12.057  20.361  0.00  0.00    +0.000 NA
ATOM     16  C   UNL     1      -2.920  12.205  19.369  0.00  0.00    +0.000 A 
ATOM     17  S   UNL     1      -2.538  11.393  17.912  0.00  0.00    +0.000 S 
ATOM     18  C   UNL     1      -1.113  10.765  18.648  0.00  0.00    +0.000 A 
ATOM     19  C   UNL     1      -0.132   9.919  18.104  0.00  0.00    +0.000 A 
ENDBRANCH   5  11
BRANCH   1  20
ATOM     20  C   UNL     1       5.975   4.629  16.838  0.00  0.00    +0.000 C 
ATOM     21  O   UNL     1       7.143   4.553  17.202  0.00  0.00    +0.000 OA
BRANCH  20  22
ATOM     22  O   UNL     1       5.545   4.320  15.580  0.00  0.00    +0.000 OA
BRANCH  22  24
ATOM     23  C   UNL     1       6.051   3.761  13.318  0.00  0.00    +0.000 C 
ATOM     24  C   UNL     1       6.456   4.603  14.515  0.00  0.00    +0.000 C 
ENDBRANCH  22  24
ENDBRANCH  20  22
ENDBRANCH   1  20
TORSDOF 4
ENDMDL
MODEL 6
REMARK VINA RESULT:      -7.0      1.565      1.707
REMARK  Name = 
REMARK  6 active torsions:
REMARK  status: ('A' for Active; 'I' for Inactive)
REMARK    1  A    between atoms: C_1  and  C_2
REMARK    2  A    between atoms: C_2  and  O_3
REMARK    3  A    between atoms: O_3  and  C_4
REMARK    4  A    between atoms: C_4  and  C_6
REMARK    5  A    between atoms: C_10  and  C_12
REMARK    6  A    between atoms: C_22  and  C_23
REMARK                            x       y       z     vdW  Elec       q    Type
REMARK                         _______ _______ _______ _____ _____    ______ ____
ROOT
ATOM      1  C   UNL     1       4.756   4.996  16.968  0.00  0.00    +0.000 A 
ATOM      2  S   UNL     1       4.333   6.650  17.129  0.00  0.00    +0.000 S 
ATOM      3  C   UNL     1       3.123   6.245  18.243  0.00  0.00    +0.000 A 
ATOM      4  N   UNL     1       2.316   7.188  18.827  0.00  0.00    +0.000 N 
ATOM      5  C   UNL     1       2.166   8.492  18.409  0.00  0.00    +0.000 C 
ATOM      6  O   UNL     1       2.709   9.026  17.447  0.00  0.00    +0.000 OA
ATOM      7  N   UNL     1       3.029   4.973  18.547  0.00  0.00    +0.000 NA
ATOM      8  C   UNL     1       3.944   4.237  17.797  0.00  0.00    +0.000 A 
ATOM      9  C   UNL     1       3.981   2.759  17.975  0.00  0.00    +0.000 C 
ATOM     10  H   UNL     1       1.691   6.794  19.517  0.00  0.00    +0.000 HD
ENDROOT
BRANCH   5  11
ATOM     11  C   UNL     1       1.184   9.311  19.177  0.00  0.00    +0.000 A 
ATOM     12  C   UNL     1       0.872   9.037  20.512  0.00  0.00    +0.000 A 
ATOM     13  C   UNL     1      -0.052   9.838  21.198  0.00  0.00    +0.000 A 
ATOM     14  C   UNL     1      -0.665  10.929  20.549  0.00  0.00    +0.000 A 
ATOM     15  N   UNL     1      -1.594  11.793  21.109  0.00  0.00    +0.000 NA
ATOM     16  C   UNL     1      -1.946  12.692  20.221  0.00  0.00    +0.000 A 
ATOM     17  S   UNL     1      -1.204  12.578  18.683  0.00  0.00    +0.000 S 
ATOM     18  C   UNL     1      -0.326  11.197  19.221  0.00  0.00    +0.000 A 
ATOM     19  C   UNL     1       0.600  10.406  18.519  0.00  0.00    +0.000 A 
ENDBRANCH   5  11
BRANCH   1  20
ATOM     20  C   UNL     1       5.850   4.563  16.126  0.00  0.00    +0.000 C 
ATOM     21  O   UNL     1       5.769   3.722  15.238  0.00  0.00    +0.000 OA
BRANCH  20  22
ATOM     22  O   UNL     1       7.021   5.138  16.530  0.00  0.00    +0.000 OA
BRANCH  22  24
ATOM     23  C   UNL     1       7.781   5.785  18.695  0.00  0.00    +0.000 C 
ATOM     24  C   UNL     1       7.593   4.624  17.735  0.00  0.00    +0.000 C 
ENDBRANCH  22  24
ENDBRANCH  20  22
ENDBRANCH   1  20
TORSDOF 4
ENDMDL
MODEL 7
REMARK VINA RESULT:      -6.9      1.818      2.359
REMARK  Name = 
REMARK  6 active torsions:
REMARK  status: ('A' for Active; 'I' for Inactive)
REMARK    1  A    between atoms: C_1  and  C_2
REMARK    2  A    between atoms: C_2  and  O_3
REMARK    3  A    between atoms: O_3  and  C_4
REMARK    4  A    between atoms: C_4  and  C_6
REMARK    5  A    between atoms: C_10  and  C_12
REMARK    6  A    between atoms: C_22  and  C_23
REMARK                            x       y       z     vdW  Elec       q    Type
REMARK                         _______ _______ _______ _____ _____    ______ ____
ROOT
ATOM      1  C   UNL     1       4.662   5.151  18.239  0.00  0.00    +0.000 A 
ATOM      2  S   UNL     1       4.151   6.736  17.832  0.00  0.00    +0.000 S 
ATOM      3  C   UNL     1       2.850   6.607  18.910  0.00  0.00    +0.000 A 
ATOM      4  N   UNL     1       1.945   7.622  19.094  0.00  0.00    +0.000 N 
ATOM      5  C   UNL     1       1.782   8.716  18.274  0.00  0.00    +0.000 C 
ATOM      6  O   UNL     1       2.398   8.964  17.242  0.00  0.00    +0.000 OA
ATOM      7  N   UNL     1       2.782   5.489  19.592  0.00  0.00    +0.000 NA
ATOM      8  C   UNL     1       3.802   4.628  19.194  0.00  0.00    +0.000 A 
ATOM      9  C   UNL     1       3.886   3.286  19.833  0.00  0.00    +0.000 C 
ATOM     10  H   UNL     1       1.269   7.416  19.817  0.00  0.00    +0.000 HD
ENDROOT
BRANCH   5  11
ATOM     11  C   UNL     1       0.690   9.657  18.656  0.00  0.00    +0.000 A 
ATOM     12  C   UNL     1      -0.410   9.894  17.827  0.00  0.00    +0.000 A 
ATOM     13  C   UNL     1      -1.419  10.781  18.231  0.00  0.00    +0.000 A 
ATOM     14  C   UNL     1      -1.333  11.432  19.478  0.00  0.00    +0.000 A 
ATOM     15  N   UNL     1      -2.255  12.332  19.993  0.00  0.00    +0.000 NA
ATOM     16  C   UNL     1      -1.859  12.734  21.176  0.00  0.00    +0.000 A 
ATOM     17  S   UNL     1      -0.388  12.078  21.754  0.00  0.00    +0.000 S 
ATOM     18  C   UNL     1      -0.235  11.168  20.300  0.00  0.00    +0.000 A 
ATOM     19  C   UNL     1       0.783  10.280  19.912  0.00  0.00    +0.000 A 
ENDBRANCH   5  11
BRANCH   1  20
ATOM     20  C   UNL     1       5.856   4.561  17.675  0.00  0.00    +0.000 C 
ATOM     21  O   UNL     1       6.925   4.431  18.261  0.00  0.00    +0.000 OA
BRANCH  20  22
ATOM     22  O   UNL     1       5.667   4.268  16.355  0.00  0.00    +0.000 OA
BRANCH  22  24
ATOM     23  C   UNL     1       6.362   4.139  14.078  0.00  0.00    +0.000 C 
ATOM     24  C   UNL     1       6.781   4.505  15.491  0.00  0.00    +0.000 C 
ENDBRANCH  22  24
ENDBRANCH  20  22
ENDBRANCH   1  20
TORSDOF 4
ENDMDL
MODEL 8
REMARK VINA RESULT:      -6.9      1.957      3.031
REMARK  Name = 
REMARK  6 active torsions:
REMARK  status: ('A' for Active; 'I' for Inactive)
REMARK    1  A    between atoms: C_1  and  C_2
REMARK    2  A    between atoms: C_2  and  O_3
REMARK    3  A    between atoms: O_3  and  C_4
REMARK    4  A    between atoms: C_4  and  C_6
REMARK    5  A    between atoms: C_10  and  C_12
REMARK    6  A    between atoms: C_22  and  C_23
REMARK                            x       y       z     vdW  Elec       q    Type
REMARK                         _______ _______ _______ _____ _____    ______ ____
ROOT
ATOM      1  C   UNL     1       4.138   5.415  18.432  0.00  0.00    +0.000 A 
ATOM      2  S   UNL     1       2.933   6.019  19.493  0.00  0.00    +0.000 S 
ATOM      3  C   UNL     1       2.752   7.396  18.523  0.00  0.00    +0.000 A 
ATOM      4  N   UNL     1       1.862   8.397  18.825  0.00  0.00    +0.000 N 
ATOM      5  C   UNL     1       1.232   8.577  20.037  0.00  0.00    +0.000 C 
ATOM      6  O   UNL     1       1.366   7.894  21.047  0.00  0.00    +0.000 OA
ATOM      7  N   UNL     1       3.487   7.431  17.437  0.00  0.00    +0.000 NA
ATOM      8  C   UNL     1       4.313   6.311  17.387  0.00  0.00    +0.000 A 
ATOM      9  C   UNL     1       5.251   6.172  16.239  0.00  0.00    +0.000 C 
ATOM     10  H   UNL     1       1.826   9.115  18.115  0.00  0.00    +0.000 HD
ENDROOT
BRANCH   5  11
ATOM     11  C   UNL     1       0.350   9.774  20.137  0.00  0.00    +0.000 A 
ATOM     12  C   UNL     1      -0.109  10.456  19.006  0.00  0.00    +0.000 A 
ATOM     13  C   UNL     1      -0.944  11.573  19.146  0.00  0.00    +0.000 A 
ATOM     14  C   UNL     1      -1.334  12.011  20.429  0.00  0.00    +0.000 A 
ATOM     15  N   UNL     1      -2.148  13.098  20.706  0.00  0.00    +0.000 NA
ATOM     16  C   UNL     1      -2.305  13.208  22.003  0.00  0.00    +0.000 A 
ATOM     17  S   UNL     1      -1.511  12.040  22.970  0.00  0.00    +0.000 S 
ATOM     18  C   UNL     1      -0.880  11.305  21.545  0.00  0.00    +0.000 A 
ATOM     19  C   UNL     1      -0.045  10.182  21.422  0.00  0.00    +0.000 A 
ENDBRANCH   5  11
BRANCH   1  20
ATOM     20  C   UNL     1       4.768   4.130  18.640  0.00  0.00    +0.000 C 
ATOM     21  O   UNL     1       5.808   3.945  19.262  0.00  0.00    +0.000 OA
BRANCH  20  22
ATOM     22  O   UNL     1       4.106   3.156  17.950  0.00  0.00    +0.000 OA
BRANCH  22  24
ATOM     23  C   UNL     1       2.148   2.171  18.890  0.00  0.00    +0.000 C 
ATOM     24  C   UNL     1       3.651   2.038  18.717  0.00  0.00    +0.000 C 
ENDBRANCH  22  24
ENDBRANCH  20  22
ENDBRANCH   1  20
TORSDOF 4
ENDMDL
MODEL 9
REMARK VINA RESULT:      -6.9      1.684      2.092
REMARK  Name = 
REMARK  6 active torsions:
REMARK  status: ('A' for Active; 'I' for Inactive)
REMARK    1  A    between atoms: C_1  and  C_2
REMARK    2  A    between atoms: C_2  and  O_3
REMARK    3  A    between atoms: O_3  and  C_4
REMARK    4  A    between atoms: C_4  and  C_6
REMARK    5  A    between atoms: C_10  and  C_12
REMARK    6  A    between atoms: C_22  and  C_23
REMARK                            x       y       z     vdW  Elec       q    Type
REMARK                         _______ _______ _______ _____ _____    ______ ____
ROOT
ATOM      1  C   UNL     1       4.120   5.543  18.205  0.00  0.00    +0.000 A 
ATOM      2  S   UNL     1       3.018   5.887  19.473  0.00  0.00    +0.000 S 
ATOM      3  C   UNL     1       2.698   7.407  18.799  0.00  0.00    +0.000 A 
ATOM      4  N   UNL     1       1.818   8.294  19.368  0.00  0.00    +0.000 N 
ATOM      5  C   UNL     1       1.316   8.221  20.649  0.00  0.00    +0.000 C 
ATOM      6  O   UNL     1       1.573   7.371  21.496  0.00  0.00    +0.000 OA
ATOM      7  N   UNL     1       3.313   7.674  17.672  0.00  0.00    +0.000 NA
ATOM      8  C   UNL     1       4.159   6.621  17.333  0.00  0.00    +0.000 A 
ATOM      9  C   UNL     1       4.974   6.737  16.092  0.00  0.00    +0.000 C 
ATOM     10  H   UNL     1       1.688   9.127  18.811  0.00  0.00    +0.000 HD
ENDROOT
BRANCH   5  11
ATOM     11  C   UNL     1       0.416   9.337  21.057  0.00  0.00    +0.000 A 
ATOM     12  C   UNL     1       0.068   9.562  22.392  0.00  0.00    +0.000 A 
ATOM     13  C   UNL     1      -0.775  10.629  22.732  0.00  0.00    +0.000 A 
ATOM     14  C   UNL     1      -1.271  11.488  21.729  0.00  0.00    +0.000 A 
ATOM     15  N   UNL     1      -2.112  12.572  21.928  0.00  0.00    +0.000 NA
ATOM     16  C   UNL     1      -2.365  13.147  20.777  0.00  0.00    +0.000 A 
ATOM     17  S   UNL     1      -1.628  12.451  19.398  0.00  0.00    +0.000 S 
ATOM     18  C   UNL     1      -0.897  11.258  20.403  0.00  0.00    +0.000 A 
ATOM     19  C   UNL     1      -0.051  10.195  20.046  0.00  0.00    +0.000 A 
ENDBRANCH   5  11
BRANCH   1  20
ATOM     20  C   UNL     1       4.803   4.271  18.106  0.00  0.00    +0.000 C 
ATOM     21  O   UNL     1       4.357   3.271  17.555  0.00  0.00    +0.000 OA
BRANCH  20  22
ATOM     22  O   UNL     1       5.971   4.300  18.811  0.00  0.00    +0.000 OA
BRANCH  22  24
ATOM     23  C   UNL     1       7.781   5.852  18.835  0.00  0.00    +0.000 C 
ATOM     24  C   UNL     1       7.136   4.700  18.084  0.00  0.00    +0.000 C 
ENDBRANCH  22  24
ENDBRANCH  20  22
ENDBRANCH   1  20
TORSDOF 4
ENDMDL
