MODEL 1
REMARK VINA RESULT:      -7.9      0.000      0.000
REMARK  Name = 
REMARK  7 active torsions:
REMARK  status: ('A' for Active; 'I' for Inactive)
REMARK    1  A    between atoms: C_1  and  C_2
REMARK    2  A    between atoms: C_2  and  C_3
REMARK    3  A    between atoms: C_2  and  C_4
REMARK    4  A    between atoms: C_2  and  C_6
REMARK    5  A    between atoms: C_11  and  C_12
REMARK    6  A    between atoms: C_12  and  N_13
REMARK    7  A    between atoms: C_16  and  N_17
REMARK                            x       y       z     vdW  Elec       q    Type
REMARK                         _______ _______ _______ _____ _____    ______ ____
ROOT
ATOM      1  C   UNL     1       3.559   5.217  17.628  0.00  0.00    +0.000 C 
ENDROOT
BRANCH   1   7
ATOM      2  C   UNL     1       1.994   4.944  19.837  0.00  0.00    +0.000 A 
ATOM      3  C   UNL     1       1.378   5.658  20.913  0.00  0.00    +0.000 A 
ATOM      4  C   UNL     1       1.328   7.047  20.979  0.00  0.00    +0.000 A 
ATOM      5  C   UNL     1       1.903   7.778  19.964  0.00  0.00    +0.000 A 
ATOM      6  C   UNL     1       2.522   7.115  18.889  0.00  0.00    +0.000 A 
ATOM      7  C   UNL     1       2.592   5.693  18.764  0.00  0.00    +0.000 A 
BRANCH   2   9
ATOM      8  C   UNL     1       1.284   2.832  21.216  0.00  0.00    +0.000 C 
ATOM      9  C   UNL     1       2.025   3.403  19.971  0.00  0.00    +0.000 C 
ATOM     10  C   UNL     1       1.287   2.764  18.803  0.00  0.00    +0.000 C 
BRANCH   9  11
ATOM     11  C   UNL     1       3.429   2.963  20.046  0.00  0.00    +0.000 C 
ATOM     12  N   UNL     1       4.544   2.611  20.138  0.00  0.00    +0.000 NA
ENDBRANCH   9  11
ENDBRANCH   2   9
ENDBRANCH   1   7
BRANCH   1  13
ATOM     13  N   UNL     1       5.045   5.293  17.647  0.00  0.00    +0.000 NA
ATOM     14  C   UNL     1       5.824   4.101  17.354  0.00  0.00    +0.000 C 
ATOM     15  C   UNL     1       7.197   4.236  16.683  0.00  0.00    +0.000 C 
ATOM     16  C   UNL     1       7.321   5.304  15.611  0.00  0.00    +0.000 C 
ATOM     17  C   UNL     1       6.741   6.620  16.115  0.00  0.00    +0.000 C 
ATOM     18  C   UNL     1       5.571   6.563  17.124  0.00  0.00    +0.000 C 
BRANCH  16  19
ATOM     19  N   UNL     1       6.976   4.868  14.246  0.00  0.00    +0.000 N 
ATOM     20  C   UNL     1       5.786   4.153  13.865  0.00  0.00    +0.000 C 
ATOM     21  C   UNL     1       6.201   3.428  12.594  0.00  0.00    +0.000 C 
ATOM     22  C   UNL     1       7.238   4.345  11.956  0.00  0.00    +0.000 C 
ATOM     23  C   UNL     1       7.749   5.168  13.123  0.00  0.00    +0.000 C 
ATOM     24  O   UNL     1       8.692   5.939  13.064  0.00  0.00    +0.000 OA
ENDBRANCH  16  19
ENDBRANCH   1  13
TORSDOF 5
ENDMDL
MODEL 2
REMARK VINA RESULT:      -7.9      0.903      1.274
REMARK  Name = 
REMARK  7 active torsions:
REMARK  status: ('A' for Active; 'I' for Inactive)
REMARK    1  A    between atoms: C_1  and  C_2
REMARK    2  A    between atoms: C_2  and  C_3
REMARK    3  A    between atoms: C_2  and  C_4
REMARK    4  A    between atoms: C_2  and  C_6
REMARK    5  A    between atoms: C_11  and  C_12
REMARK    6  A    between atoms: C_12  and  N_13
REMARK    7  A    between atoms: C_16  and  N_17
REMARK                            x       y       z     vdW  Elec       q    Type
REMARK                         _______ _______ _______ _____ _____    ______ ____
ROOT
ATOM      1  C   UNL     1       3.534   5.341  17.686  0.00  0.00    +0.000 C 
ENDROOT
BRANCH   1   7
ATOM      2  C   UNL     1       2.036   5.142  19.947  0.00  0.00    +0.000 A 
ATOM      3  C   UNL     1       1.417   5.896  20.995  0.00  0.00    +0.000 A 
ATOM      4  C   UNL     1       1.312   7.282  20.978  0.00  0.00    +0.000 A 
ATOM      5  C   UNL     1       1.831   7.972  19.907  0.00  0.00    +0.000 A 
ATOM      6  C   UNL     1       2.451   7.270  18.858  0.00  0.00    +0.000 A 
ATOM      7  C   UNL     1       2.577   5.847  18.817  0.00  0.00    +0.000 A 
BRANCH   2   9
ATOM      8  C   UNL     1       3.571   3.021  20.082  0.00  0.00    +0.000 C 
ATOM      9  C   UNL     1       2.133   3.614  20.173  0.00  0.00    +0.000 C 
ATOM     10  C   UNL     1       1.704   3.270  21.592  0.00  0.00    +0.000 C 
BRANCH   9  11
ATOM     11  C   UNL     1       1.305   2.934  19.163  0.00  0.00    +0.000 C 
ATOM     12  N   UNL     1       0.642   2.367  18.378  0.00  0.00    +0.000 NA
ENDBRANCH   9  11
ENDBRANCH   2   9
ENDBRANCH   1   7
BRANCH   1  13
ATOM     13  N   UNL     1       5.023   5.369  17.714  0.00  0.00    +0.000 NA
ATOM     14  C   UNL     1       5.764   4.150  17.431  0.00  0.00    +0.000 C 
ATOM     15  C   UNL     1       7.145   4.238  16.768  0.00  0.00    +0.000 C 
ATOM     16  C   UNL     1       7.311   5.297  15.694  0.00  0.00    +0.000 C 
ATOM     17  C   UNL     1       6.772   6.633  16.189  0.00  0.00    +0.000 C 
ATOM     18  C   UNL     1       5.593   6.618  17.190  0.00  0.00    +0.000 C 
BRANCH  16  19
ATOM     19  N   UNL     1       6.960   4.868  14.328  0.00  0.00    +0.000 N 
ATOM     20  C   UNL     1       5.765   4.161  13.947  0.00  0.00    +0.000 C 
ATOM     21  C   UNL     1       6.174   3.438  12.673  0.00  0.00    +0.000 C 
ATOM     22  C   UNL     1       7.216   4.350  12.037  0.00  0.00    +0.000 C 
ATOM     23  C   UNL     1       7.734   5.165  13.205  0.00  0.00    +0.000 C 
ATOM     24  O   UNL     1       8.682   5.930  13.146  0.00  0.00    +0.000 OA
ENDBRANCH  16  19
ENDBRANCH   1  13
TORSDOF 5
ENDMDL
MODEL 3
REMARK VINA RESULT:      -7.4      0.826      1.180
REMARK  Name = 
REMARK  7 active torsions:
REMARK  status: ('A' for Active; 'I' for Inactive)
REMARK    1  A    between atoms: C_1  and  C_2
REMARK    2  A    between atoms: C_2  and  C_3
REMARK    3  A    between atoms: C_2  and  C_4
REMARK    4  A    between atoms: C_2  and  C_6
REMARK    5  A    between atoms: C_11  and  C_12
REMARK    6  A    between atoms: C_12  and  N_13
REMARK    7  A    between atoms: C_16  and  N_17
REMARK                            x       y       z     vdW  Elec       q    Type
REMARK                         _______ _______ _______ _____ _____    ______ ____
ROOT
ATOM      1  C   UNL     1       3.569   5.422  17.604  0.00  0.00    +0.000 C 
ENDROOT
BRANCH   1   7
ATOM      2  C   UNL     1       2.096   5.000  19.852  0.00  0.00    +0.000 A 
ATOM      3  C   UNL     1       1.469   5.649  20.963  0.00  0.00    +0.000 A 
ATOM      4  C   UNL     1       1.333   7.029  21.063  0.00  0.00    +0.000 A 
ATOM      5  C   UNL     1       1.827   7.818  20.049  0.00  0.00    +0.000 A 
ATOM      6  C   UNL     1       2.453   7.220  18.941  0.00  0.00    +0.000 A 
ATOM      7  C   UNL     1       2.610   5.809  18.780  0.00  0.00    +0.000 A 
BRANCH   2   9
ATOM      8  C   UNL     1       1.538   2.663  18.804  0.00  0.00    +0.000 C 
ATOM      9  C   UNL     1       2.230   3.461  19.948  0.00  0.00    +0.000 C 
ATOM     10  C   UNL     1       3.692   3.057  19.821  0.00  0.00    +0.000 C 
BRANCH   9  11
ATOM     11  C   UNL     1       1.641   3.015  21.223  0.00  0.00    +0.000 C 
ATOM     12  N   UNL     1       1.165   2.632  22.225  0.00  0.00    +0.000 NA
ENDBRANCH   9  11
ENDBRANCH   2   9
ENDBRANCH   1   7
BRANCH   1  13
ATOM     13  N   UNL     1       5.058   5.427  17.643  0.00  0.00    +0.000 NA
ATOM     14  C   UNL     1       5.782   4.196  17.371  0.00  0.00    +0.000 C 
ATOM     15  C   UNL     1       7.168   4.259  16.718  0.00  0.00    +0.000 C 
ATOM     16  C   UNL     1       7.358   5.309  15.639  0.00  0.00    +0.000 C 
ATOM     17  C   UNL     1       6.835   6.656  16.122  0.00  0.00    +0.000 C 
ATOM     18  C   UNL     1       5.650   6.665  17.116  0.00  0.00    +0.000 C 
BRANCH  16  19
ATOM     19  N   UNL     1       7.011   4.877  14.273  0.00  0.00    +0.000 N 
ATOM     20  C   UNL     1       5.824   4.156  13.893  0.00  0.00    +0.000 C 
ATOM     21  C   UNL     1       6.239   3.439  12.618  0.00  0.00    +0.000 C 
ATOM     22  C   UNL     1       7.269   4.365  11.981  0.00  0.00    +0.000 C 
ATOM     23  C   UNL     1       7.778   5.186  13.149  0.00  0.00    +0.000 C 
ATOM     24  O   UNL     1       8.716   5.963  13.089  0.00  0.00    +0.000 OA
ENDBRANCH  16  19
ENDBRANCH   1  13
TORSDOF 5
ENDMDL
MODEL 4
REMARK VINA RESULT:      -7.2      4.506      7.642
REMARK  Name = 
REMARK  7 active torsions:
REMARK  status: ('A' for Active; 'I' for Inactive)
REMARK    1  A    between atoms: C_1  and  C_2
REMARK    2  A    between atoms: C_2  and  C_3
REMARK    3  A    between atoms: C_2  and  C_4
REMARK    4  A    between atoms: C_2  and  C_6
REMARK    5  A    between atoms: C_11  and  C_12
REMARK    6  A    between atoms: C_12  and  N_13
REMARK    7  A    between atoms: C_16  and  N_17
REMARK                            x       y       z     vdW  Elec       q    Type
REMARK                         _______ _______ _______ _____ _____    ______ ____
ROOT
ATOM      1  C   UNL     1       2.156   7.088  18.199  0.00  0.00    +0.000 C 
ENDROOT
BRANCH   1   7
ATOM      2  C   UNL     1       3.624   4.811  17.944  0.00  0.00    +0.000 A 
ATOM      3  C   UNL     1       4.757   4.233  17.288  0.00  0.00    +0.000 A 
ATOM      4  C   UNL     1       5.672   4.974  16.549  0.00  0.00    +0.000 A 
ATOM      5  C   UNL     1       5.484   6.333  16.435  0.00  0.00    +0.000 A 
ATOM      6  C   UNL     1       4.382   6.941  17.061  0.00  0.00    +0.000 A 
ATOM      7  C   UNL     1       3.417   6.230  17.841  0.00  0.00    +0.000 A 
BRANCH   2   9
ATOM      8  C   UNL     1       1.273   3.652  17.982  0.00  0.00    +0.000 C 
ATOM      9  C   UNL     1       2.668   3.822  18.653  0.00  0.00    +0.000 C 
ATOM     10  C   UNL     1       3.249   2.416  18.609  0.00  0.00    +0.000 C 
BRANCH   9  11
ATOM     11  C   UNL     1       2.447   4.286  20.034  0.00  0.00    +0.000 C 
ATOM     12  N   UNL     1       2.298   4.643  21.142  0.00  0.00    +0.000 NA
ENDBRANCH   9  11
ENDBRANCH   2   9
ENDBRANCH   1   7
BRANCH   1  13
ATOM     13  N   UNL     1       2.158   8.434  18.836  0.00  0.00    +0.000 NA
ATOM     14  C   UNL     1       2.117   9.620  17.995  0.00  0.00    +0.000 C 
ATOM     15  C   UNL     1       1.432  10.892  18.510  0.00  0.00    +0.000 C 
ATOM     16  C   UNL     1       0.162  10.694  19.317  0.00  0.00    +0.000 C 
ATOM     17  C   UNL     1       0.382   9.630  20.385  0.00  0.00    +0.000 C 
ATOM     18  C   UNL     1       1.382   8.489  20.084  0.00  0.00    +0.000 C 
BRANCH  16  19
ATOM     19  N   UNL     1      -1.083  10.642  18.530  0.00  0.00    +0.000 N 
ATOM     20  C   UNL     1      -1.358   9.734  17.447  0.00  0.00    +0.000 C 
ATOM     21  C   UNL     1      -2.398  10.474  16.621  0.00  0.00    +0.000 C 
ATOM     22  C   UNL     1      -3.167  11.309  17.638  0.00  0.00    +0.000 C 
ATOM     23  C   UNL     1      -2.195  11.443  18.794  0.00  0.00    +0.000 C 
ATOM     24  O   UNL     1      -2.374  12.155  19.767  0.00  0.00    +0.000 OA
ENDBRANCH  16  19
ENDBRANCH   1  13
TORSDOF 5
ENDMDL
MODEL 5
REMARK VINA RESULT:      -7.2      4.473      7.611
REMARK  Name = 
REMARK  7 active torsions:
REMARK  status: ('A' for Active; 'I' for Inactive)
REMARK    1  A    between atoms: C_1  and  C_2
REMARK    2  A    between atoms: C_2  and  C_3
REMARK    3  A    between atoms: C_2  and  C_4
REMARK    4  A    between atoms: C_2  and  C_6
REMARK    5  A    between atoms: C_11  and  C_12
REMARK    6  A    between atoms: C_12  and  N_13
REMARK    7  A    between atoms: C_16  and  N_17
REMARK                            x       y       z     vdW  Elec       q    Type
REMARK                         _______ _______ _______ _____ _____    ______ ____
ROOT
ATOM      1  C   UNL     1       2.193   7.181  18.158  0.00  0.00    +0.000 C 
ENDROOT
BRANCH   1   7
ATOM      2  C   UNL     1       3.811   4.994  18.174  0.00  0.00    +0.000 A 
ATOM      3  C   UNL     1       4.906   4.360  17.504  0.00  0.00    +0.000 A 
ATOM      4  C   UNL     1       5.663   4.984  16.519  0.00  0.00    +0.000 A 
ATOM      5  C   UNL     1       5.347   6.275  16.160  0.00  0.00    +0.000 A 
ATOM      6  C   UNL     1       4.276   6.933  16.791  0.00  0.00    +0.000 A 
ATOM      7  C   UNL     1       3.473   6.345  17.817  0.00  0.00    +0.000 A 
BRANCH   2   9
ATOM      8  C   UNL     1       2.449   4.885  20.411  0.00  0.00    +0.000 C 
ATOM      9  C   UNL     1       3.033   4.120  19.186  0.00  0.00    +0.000 C 
ATOM     10  C   UNL     1       1.797   3.530  18.522  0.00  0.00    +0.000 C 
BRANCH   9  11
ATOM     11  C   UNL     1       3.936   3.076  19.701  0.00  0.00    +0.000 C 
ATOM     12  N   UNL     1       4.631   2.225  20.114  0.00  0.00    +0.000 NA
ENDBRANCH   9  11
ENDBRANCH   2   9
ENDBRANCH   1   7
BRANCH   1  13
ATOM     13  N   UNL     1       2.162   8.513  18.822  0.00  0.00    +0.000 NA
ATOM     14  C   UNL     1       2.109   9.716  18.006  0.00  0.00    +0.000 C 
ATOM     15  C   UNL     1       1.393  10.963  18.539  0.00  0.00    +0.000 C 
ATOM     16  C   UNL     1       0.119  10.725  19.327  0.00  0.00    +0.000 C 
ATOM     17  C   UNL     1       0.347   9.643  20.376  0.00  0.00    +0.000 C 
ATOM     18  C   UNL     1       1.372   8.528  20.062  0.00  0.00    +0.000 C 
BRANCH  16  19
ATOM     19  N   UNL     1      -1.116  10.667  18.525  0.00  0.00    +0.000 N 
ATOM     20  C   UNL     1      -1.383   9.741  17.455  0.00  0.00    +0.000 C 
ATOM     21  C   UNL     1      -2.408  10.473  16.602  0.00  0.00    +0.000 C 
ATOM     22  C   UNL     1      -3.185  11.329  17.595  0.00  0.00    +0.000 C 
ATOM     23  C   UNL     1      -2.227  11.478  18.761  0.00  0.00    +0.000 C 
ATOM     24  O   UNL     1      -2.415  12.207  19.720  0.00  0.00    +0.000 OA
ENDBRANCH  16  19
ENDBRANCH   1  13
TORSDOF 5
ENDMDL
MODEL 6
REMARK VINA RESULT:      -7.0      4.491      7.573
REMARK  Name = 
REMARK  7 active torsions:
REMARK  status: ('A' for Active; 'I' for Inactive)
REMARK    1  A    between atoms: C_1  and  C_2
REMARK    2  A    between atoms: C_2  and  C_3
REMARK    3  A    between atoms: C_2  and  C_4
REMARK    4  A    between atoms: C_2  and  C_6
REMARK    5  A    between atoms: C_11  and  C_12
REMARK    6  A    between atoms: C_12  and  N_13
REMARK    7  A    between atoms: C_16  and  N_17
REMARK                            x       y       z     vdW  Elec       q    Type
REMARK                         _______ _______ _______ _____ _____    ______ ____
ROOT
ATOM      1  C   UNL     1       1.961   6.825  18.413  0.00  0.00    +0.000 C 
ENDROOT
BRANCH   1   7
ATOM      2  C   UNL     1       3.199   4.422  18.724  0.00  0.00    +0.000 A 
ATOM      3  C   UNL     1       4.205   3.561  18.182  0.00  0.00    +0.000 A 
ATOM      4  C   UNL     1       5.098   3.957  17.192  0.00  0.00    +0.000 A 
ATOM      5  C   UNL     1       5.013   5.240  16.700  0.00  0.00    +0.000 A 
ATOM      6  C   UNL     1       4.036   6.118  17.203  0.00  0.00    +0.000 A 
ATOM      7  C   UNL     1       3.102   5.768  18.227  0.00  0.00    +0.000 A 
BRANCH   2   9
ATOM      8  C   UNL     1       2.921   2.825  20.784  0.00  0.00    +0.000 C 
ATOM      9  C   UNL     1       2.243   3.785  19.761  0.00  0.00    +0.000 C 
ATOM     10  C   UNL     1       1.640   4.867  20.646  0.00  0.00    +0.000 C 
BRANCH   9  11
ATOM     11  C   UNL     1       1.211   3.017  19.044  0.00  0.00    +0.000 C 
ATOM     12  N   UNL     1       0.370   2.431  18.472  0.00  0.00    +0.000 NA
ENDBRANCH   9  11
ENDBRANCH   2   9
ENDBRANCH   1   7
BRANCH   1  13
ATOM     13  N   UNL     1       2.125   8.222  18.901  0.00  0.00    +0.000 NA
ATOM     14  C   UNL     1       2.120   9.316  17.944  0.00  0.00    +0.000 C 
ATOM     15  C   UNL     1       1.586  10.691  18.366  0.00  0.00    +0.000 C 
ATOM     16  C   UNL     1       0.371  10.693  19.275  0.00  0.00    +0.000 C 
ATOM     17  C   UNL     1       0.582   9.724  20.432  0.00  0.00    +0.000 C 
ATOM     18  C   UNL     1       1.456   8.473  20.186  0.00  0.00    +0.000 C 
BRANCH  16  19
ATOM     19  N   UNL     1      -0.931  10.677  18.584  0.00  0.00    +0.000 N 
ATOM     20  C   UNL     1      -1.296   9.811  17.493  0.00  0.00    +0.000 C 
ATOM     21  C   UNL     1      -2.391  10.588  16.777  0.00  0.00    +0.000 C 
ATOM     22  C   UNL     1      -3.072  11.388  17.881  0.00  0.00    +0.000 C 
ATOM     23  C   UNL     1      -2.014  11.473  18.962  0.00  0.00    +0.000 C 
ATOM     24  O   UNL     1      -2.112  12.148  19.973  0.00  0.00    +0.000 OA
ENDBRANCH  16  19
ENDBRANCH   1  13
TORSDOF 5
ENDMDL
MODEL 7
REMARK VINA RESULT:      -6.8      1.166      1.563
REMARK  Name = 
REMARK  7 active torsions:
REMARK  status: ('A' for Active; 'I' for Inactive)
REMARK    1  A    between atoms: C_1  and  C_2
REMARK    2  A    between atoms: C_2  and  C_3
REMARK    3  A    between atoms: C_2  and  C_4
REMARK    4  A    between atoms: C_2  and  C_6
REMARK    5  A    between atoms: C_11  and  C_12
REMARK    6  A    between atoms: C_12  and  N_13
REMARK    7  A    between atoms: C_16  and  N_17
REMARK                            x       y       z     vdW  Elec       q    Type
REMARK                         _______ _______ _______ _____ _____    ______ ____
ROOT
ATOM      1  C   UNL     1       3.767   6.264  17.506  0.00  0.00    +0.000 C 
ENDROOT
BRANCH   1   7
ATOM      2  C   UNL     1       2.130   4.935  19.224  0.00  0.00    +0.000 A 
ATOM      3  C   UNL     1       1.383   5.057  20.438  0.00  0.00    +0.000 A 
ATOM      4  C   UNL     1       1.177   6.269  21.089  0.00  0.00    +0.000 A 
ATOM      5  C   UNL     1       1.720   7.411  20.547  0.00  0.00    +0.000 A 
ATOM      6  C   UNL     1       2.463   7.335  19.356  0.00  0.00    +0.000 A 
ATOM      7  C   UNL     1       2.696   6.120  18.639  0.00  0.00    +0.000 A 
BRANCH   2   9
ATOM      8  C   UNL     1       2.624   3.396  17.160  0.00  0.00    +0.000 C 
ATOM      9  C   UNL     1       2.323   3.497  18.685  0.00  0.00    +0.000 C 
ATOM     10  C   UNL     1       3.550   2.862  19.325  0.00  0.00    +0.000 C 
BRANCH   9  11
ATOM     11  C   UNL     1       1.098   2.724  18.950  0.00  0.00    +0.000 C 
ATOM     12  N   UNL     1       0.114   2.110  19.131  0.00  0.00    +0.000 NA
ENDBRANCH   9  11
ENDBRANCH   2   9
ENDBRANCH   1   7
BRANCH   1  13
ATOM     13  N   UNL     1       5.211   5.913  17.608  0.00  0.00    +0.000 NA
ATOM     14  C   UNL     1       5.628   4.539  17.381  0.00  0.00    +0.000 C 
ATOM     15  C   UNL     1       7.013   4.254  16.788  0.00  0.00    +0.000 C 
ATOM     16  C   UNL     1       7.492   5.205  15.706  0.00  0.00    +0.000 C 
ATOM     17  C   UNL     1       7.290   6.648  16.152  0.00  0.00    +0.000 C 
ATOM     18  C   UNL     1       6.104   6.962  17.093  0.00  0.00    +0.000 C 
BRANCH  16  19
ATOM     19  N   UNL     1       7.104   4.841  14.332  0.00  0.00    +0.000 N 
ATOM     20  C   UNL     1       5.903   4.143  13.951  0.00  0.00    +0.000 C 
ATOM     21  C   UNL     1       6.279   3.487  12.631  0.00  0.00    +0.000 C 
ATOM     22  C   UNL     1       7.295   4.439  12.011  0.00  0.00    +0.000 C 
ATOM     23  C   UNL     1       7.841   5.201  13.202  0.00  0.00    +0.000 C 
ATOM     24  O   UNL     1       8.782   5.976  13.154  0.00  0.00    +0.000 OA
ENDBRANCH  16  19
ENDBRANCH   1  13
TORSDOF 5
ENDMDL
MODEL 8
REMARK VINA RESULT:      -6.7      1.338      1.878
REMARK  Name = 
REMARK  7 active torsions:
REMARK  status: ('A' for Active; 'I' for Inactive)
REMARK    1  A    between atoms: C_1  and  C_2
REMARK    2  A    between atoms: C_2  and  C_3
REMARK    3  A    between atoms: C_2  and  C_4
REMARK    4  A    between atoms: C_2  and  C_6
REMARK    5  A    between atoms: C_11  and  C_12
REMARK    6  A    between atoms: C_12  and  N_13
REMARK    7  A    between atoms: C_16  and  N_17
REMARK                            x       y       z     vdW  Elec       q    Type
REMARK                         _______ _______ _______ _____ _____    ______ ____
ROOT
ATOM      1  C   UNL     1       3.624   6.916  17.005  0.00  0.00    +0.000 C 
ENDROOT
BRANCH   1   7
ATOM      2  C   UNL     1       2.100   6.860  19.257  0.00  0.00    +0.000 A 
ATOM      3  C   UNL     1       1.403   7.678  20.203  0.00  0.00    +0.000 A 
ATOM      4  C   UNL     1       1.192   9.041  20.026  0.00  0.00    +0.000 A 
ATOM      5  C   UNL     1       1.680   9.642  18.888  0.00  0.00    +0.000 A 
ATOM      6  C   UNL     1       2.373   8.876  17.934  0.00  0.00    +0.000 A 
ATOM      7  C   UNL     1       2.607   7.471  18.059  0.00  0.00    +0.000 A 
BRANCH   2   9
ATOM      8  C   UNL     1       3.779   4.985  19.987  0.00  0.00    +0.000 C 
ATOM      9  C   UNL     1       2.309   5.381  19.660  0.00  0.00    +0.000 C 
ATOM     10  C   UNL     1       1.571   5.085  20.958  0.00  0.00    +0.000 C 
BRANCH   9  11
ATOM     11  C   UNL     1       1.850   4.521  18.554  0.00  0.00    +0.000 C 
ATOM     12  N   UNL     1       1.464   3.823  17.693  0.00  0.00    +0.000 NA
ENDBRANCH   9  11
ENDBRANCH   2   9
ENDBRANCH   1   7
BRANCH   1  13
ATOM     13  N   UNL     1       4.857   6.134  17.298  0.00  0.00    +0.000 NA
ATOM     14  C   UNL     1       4.876   4.705  17.026  0.00  0.00    +0.000 C 
ATOM     15  C   UNL     1       6.192   4.025  16.629  0.00  0.00    +0.000 C 
ATOM     16  C   UNL     1       7.110   4.815  15.714  0.00  0.00    +0.000 C 
ATOM     17  C   UNL     1       7.277   6.235  16.241  0.00  0.00    +0.000 C 
ATOM     18  C   UNL     1       6.097   6.870  17.013  0.00  0.00    +0.000 C 
BRANCH  16  19
ATOM     19  N   UNL     1       6.871   4.631  14.272  0.00  0.00    +0.000 N 
ATOM     20  C   UNL     1       5.717   4.005  13.681  0.00  0.00    +0.000 C 
ATOM     21  C   UNL     1       6.231   3.513  12.337  0.00  0.00    +0.000 C 
ATOM     22  C   UNL     1       7.309   4.520  11.952  0.00  0.00    +0.000 C 
ATOM     23  C   UNL     1       7.726   5.118  13.281  0.00  0.00    +0.000 C 
ATOM     24  O   UNL     1       8.667   5.879  13.431  0.00  0.00    +0.000 OA
ENDBRANCH  16  19
ENDBRANCH   1  13
TORSDOF 5
ENDMDL
MODEL 9
REMARK VINA RESULT:      -6.6      4.316      7.560
REMARK  Name = 
REMARK  7 active torsions:
REMARK  status: ('A' for Active; 'I' for Inactive)
REMARK    1  A    between atoms: C_1  and  C_2
REMARK    2  A    between atoms: C_2  and  C_3
REMARK    3  A    between atoms: C_2  and  C_4
REMARK    4  A    between atoms: C_2  and  C_6
REMARK    5  A    between atoms: C_11  and  C_12
REMARK    6  A    between atoms: C_12  and  N_13
REMARK    7  A    between atoms: C_16  and  N_17
REMARK                            x       y       z     vdW  Elec       q    Type
REMARK                         _______ _______ _______ _____ _____    ______ ____
ROOT
ATOM      1  C   UNL     1       2.000   6.631  18.184  0.00  0.00    +0.000 C 
ENDROOT
BRANCH   1   7
ATOM      2  C   UNL     1       3.681   4.610  18.882  0.00  0.00    +0.000 A 
ATOM      3  C   UNL     1       3.858   3.511  19.782  0.00  0.00    +0.000 A 
ATOM      4  C   UNL     1       2.854   3.043  20.623  0.00  0.00    +0.000 A 
ATOM      5  C   UNL     1       1.627   3.666  20.598  0.00  0.00    +0.000 A 
ATOM      6  C   UNL     1       1.412   4.752  19.730  0.00  0.00    +0.000 A 
ATOM      7  C   UNL     1       2.402   5.266  18.837  0.00  0.00    +0.000 A 
BRANCH   2   9
ATOM      8  C   UNL     1       5.395   4.039  16.983  0.00  0.00    +0.000 C 
ATOM      9  C   UNL     1       4.932   5.042  18.081  0.00  0.00    +0.000 C 
ATOM     10  C   UNL     1       4.632   6.308  17.291  0.00  0.00    +0.000 C 
BRANCH   9  11
ATOM     11  C   UNL     1       6.053   5.227  19.018  0.00  0.00    +0.000 C 
ATOM     12  N   UNL     1       6.963   5.386  19.742  0.00  0.00    +0.000 NA
ENDBRANCH   9  11
ENDBRANCH   2   9
ENDBRANCH   1   7
BRANCH   1  13
ATOM     13  N   UNL     1       2.226   7.985  18.762  0.00  0.00    +0.000 NA
ATOM     14  C   UNL     1       2.232   9.143  17.883  0.00  0.00    +0.000 C 
ATOM     15  C   UNL     1       1.758  10.502  18.414  0.00  0.00    +0.000 C 
ATOM     16  C   UNL     1       0.569  10.480  19.357  0.00  0.00    +0.000 C 
ATOM     17  C   UNL     1       0.779   9.427  20.439  0.00  0.00    +0.000 C 
ATOM     18  C   UNL     1       1.602   8.167  20.081  0.00  0.00    +0.000 C 
BRANCH  16  19
ATOM     19  N   UNL     1      -0.752  10.554  18.706  0.00  0.00    +0.000 N 
ATOM     20  C   UNL     1      -1.200   9.734  17.611  0.00  0.00    +0.000 C 
ATOM     21  C   UNL     1      -2.267  10.588  16.944  0.00  0.00    +0.000 C 
ATOM     22  C   UNL     1      -2.867  11.404  18.083  0.00  0.00    +0.000 C 
ATOM     23  C   UNL     1      -1.774  11.405  19.133  0.00  0.00    +0.000 C 
ATOM     24  O   UNL     1      -1.802  12.064  20.158  0.00  0.00    +0.000 OA
ENDBRANCH  16  19
ENDBRANCH   1  13
TORSDOF 5
ENDMDL
