MODEL 1
REMARK VINA RESULT:      -6.0      0.000      0.000
REMARK  Name = 
REMARK  4 active torsions:
REMARK  status: ('A' for Active; 'I' for Inactive)
REMARK    1  A    between atoms: C_2  and  C_3
REMARK    2  A    between atoms: C_4  and  S_5
REMARK    3  A    between atoms: N_6  and  C_7
REMARK    4  A    between atoms: C_14  and  C_15
REMARK                            x       y       z     vdW  Elec       q    Type
REMARK                         _______ _______ _______ _____ _____    ______ ____
ROOT
ATOM      1  C   UNL     1       1.839   7.972  19.477  0.00  0.00    +0.000 C 
ATOM      2  C   UNL     1       2.833   7.478  18.690  0.00  0.00    +0.000 C 
ATOM      3  N   UNL     1       3.439   6.226  18.971  0.00  0.00    +0.000 N 
ATOM      4  C   UNL     1       3.038   5.417  20.141  0.00  0.00    +0.000 C 
ATOM      5  N   UNL     1       2.110   6.121  20.986  0.00  0.00    +0.000 N 
ATOM      6  C   UNL     1       1.441   7.261  20.691  0.00  0.00    +0.000 C 
ATOM      7  O   UNL     1       0.583   7.691  21.449  0.00  0.00    +0.000 OA
ATOM      8  H   UNL     1       1.818   5.665  21.840  0.00  0.00    +0.000 HD
ENDROOT
BRANCH   3   9
ATOM      9  C   UNL     1       4.409   5.579  18.132  0.00  0.00    +0.000 A 
ATOM     10  C   UNL     1       5.783   5.580  18.452  0.00  0.00    +0.000 A 
ATOM     11  C   UNL     1       6.737   4.990  17.612  0.00  0.00    +0.000 A 
ATOM     12  C   UNL     1       6.339   4.406  16.421  0.00  0.00    +0.000 A 
ATOM     13  F   UNL     1       7.256   3.885  15.597  0.00  0.00    +0.000 F 
ATOM     14  C   UNL     1       4.999   4.356  16.079  0.00  0.00    +0.000 A 
ATOM     15  C   UNL     1       4.045   4.907  16.945  0.00  0.00    +0.000 A 
ENDBRANCH   3   9
BRANCH   4  16
ATOM     16  C   UNL     1       2.400   4.084  19.819  0.00  0.00    +0.000 A 
ATOM     17  C   UNL     1       1.133   3.821  19.332  0.00  0.00    +0.000 A 
ATOM     18  C   UNL     1       0.929   2.438  19.069  0.00  0.00    +0.000 A 
ATOM     19  C   UNL     1       2.033   1.682  19.393  0.00  0.00    +0.000 A 
ATOM     20  S   UNL     1       3.304   2.636  20.017  0.00  0.00    +0.000 S 
ENDBRANCH   4  16
BRANCH   1  22
ATOM     21  N   UNL     1       0.623  10.388  18.833  0.00  0.00    +0.000 NA
ATOM     22  C   UNL     1       1.174   9.293  19.125  0.00  0.00    +0.000 C 
ENDBRANCH   1  22
BRANCH   2  23
ATOM     23  S   UNL     1       3.437   8.539  17.352  0.00  0.00    +0.000 S 
ATOM     24  H   UNL     1       2.307   9.031  16.816  0.00  0.00    +0.000 HD
ENDBRANCH   2  23
TORSDOF 4
ENDMDL
MODEL 2
REMARK VINA RESULT:      -5.9      3.363      5.336
REMARK  Name = 
REMARK  4 active torsions:
REMARK  status: ('A' for Active; 'I' for Inactive)
REMARK    1  A    between atoms: C_2  and  C_3
REMARK    2  A    between atoms: C_4  and  S_5
REMARK    3  A    between atoms: N_6  and  C_7
REMARK    4  A    between atoms: C_14  and  C_15
REMARK                            x       y       z     vdW  Elec       q    Type
REMARK                         _______ _______ _______ _____ _____    ______ ____
ROOT
ATOM      1  C   UNL     1       5.146   4.642  16.826  0.00  0.00    +0.000 C 
ATOM      2  C   UNL     1       4.563   5.759  17.339  0.00  0.00    +0.000 C 
ATOM      3  N   UNL     1       3.254   5.720  17.886  0.00  0.00    +0.000 N 
ATOM      4  C   UNL     1       2.458   4.476  17.898  0.00  0.00    +0.000 C 
ATOM      5  N   UNL     1       3.109   3.415  17.176  0.00  0.00    +0.000 N 
ATOM      6  C   UNL     1       4.391   3.393  16.740  0.00  0.00    +0.000 C 
ATOM      7  O   UNL     1       4.861   2.377  16.247  0.00  0.00    +0.000 OA
ATOM      8  H   UNL     1       2.614   2.539  17.086  0.00  0.00    +0.000 HD
ENDROOT
BRANCH   3   9
ATOM      9  C   UNL     1       2.611   6.820  18.549  0.00  0.00    +0.000 A 
ATOM     10  C   UNL     1       2.404   6.824  19.944  0.00  0.00    +0.000 A 
ATOM     11  C   UNL     1       1.736   7.874  20.588  0.00  0.00    +0.000 A 
ATOM     12  C   UNL     1       1.240   8.933  19.845  0.00  0.00    +0.000 A 
ATOM     13  F   UNL     1       0.561   9.913  20.455  0.00  0.00    +0.000 F 
ATOM     14  C   UNL     1       1.446   8.986  18.479  0.00  0.00    +0.000 A 
ATOM     15  C   UNL     1       2.155   7.956  17.846  0.00  0.00    +0.000 A 
ENDBRANCH   3   9
BRANCH   4  16
ATOM     16  C   UNL     1       2.136   3.927  19.270  0.00  0.00    +0.000 A 
ATOM     17  C   UNL     1       0.904   3.774  19.879  0.00  0.00    +0.000 A 
ATOM     18  C   UNL     1       1.000   3.133  21.145  0.00  0.00    +0.000 A 
ATOM     19  C   UNL     1       2.303   2.845  21.481  0.00  0.00    +0.000 A 
ATOM     20  S   UNL     1       3.404   3.352  20.278  0.00  0.00    +0.000 S 
ENDBRANCH   4  16
BRANCH   1  22
ATOM     21  N   UNL     1       7.747   4.751  15.849  0.00  0.00    +0.000 NA
ATOM     22  C   UNL     1       6.568   4.701  16.292  0.00  0.00    +0.000 C 
ENDBRANCH   1  22
BRANCH   2  23
ATOM     23  S   UNL     1       5.473   7.318  17.178  0.00  0.00    +0.000 S 
ATOM     24  H   UNL     1       6.003   7.492  18.400  0.00  0.00    +0.000 HD
ENDBRANCH   2  23
TORSDOF 4
ENDMDL
MODEL 3
REMARK VINA RESULT:      -5.9      3.356      5.373
REMARK  Name = 
REMARK  4 active torsions:
REMARK  status: ('A' for Active; 'I' for Inactive)
REMARK    1  A    between atoms: C_2  and  C_3
REMARK    2  A    between atoms: C_4  and  S_5
REMARK    3  A    between atoms: N_6  and  C_7
REMARK    4  A    between atoms: C_14  and  C_15
REMARK                            x       y       z     vdW  Elec       q    Type
REMARK                         _______ _______ _______ _____ _____    ______ ____
ROOT
ATOM      1  C   UNL     1       5.143   4.607  16.847  0.00  0.00    +0.000 C 
ATOM      2  C   UNL     1       4.538   5.718  17.344  0.00  0.00    +0.000 C 
ATOM      3  N   UNL     1       3.226   5.663  17.881  0.00  0.00    +0.000 N 
ATOM      4  C   UNL     1       2.449   4.406  17.899  0.00  0.00    +0.000 C 
ATOM      5  N   UNL     1       3.124   3.349  17.193  0.00  0.00    +0.000 N 
ATOM      6  C   UNL     1       4.409   3.344  16.767  0.00  0.00    +0.000 C 
ATOM      7  O   UNL     1       4.900   2.331  16.288  0.00  0.00    +0.000 OA
ATOM      8  H   UNL     1       2.644   2.464  17.108  0.00  0.00    +0.000 HD
ENDROOT
BRANCH   3   9
ATOM      9  C   UNL     1       2.559   6.759  18.529  0.00  0.00    +0.000 A 
ATOM     10  C   UNL     1       2.079   7.867  17.801  0.00  0.00    +0.000 A 
ATOM     11  C   UNL     1       1.470   8.959  18.434  0.00  0.00    +0.000 A 
ATOM     12  C   UNL     1       1.349   8.974  19.814  0.00  0.00    +0.000 A 
ATOM     13  F   UNL     1       0.809  10.038  20.422  0.00  0.00    +0.000 F 
ATOM     14  C   UNL     1       1.778   7.896  20.566  0.00  0.00    +0.000 A 
ATOM     15  C   UNL     1       2.345   6.787  19.923  0.00  0.00    +0.000 A 
ENDBRANCH   3   9
BRANCH   4  16
ATOM     16  C   UNL     1       2.126   3.865  19.275  0.00  0.00    +0.000 A 
ATOM     17  C   UNL     1       0.893   3.714  19.882  0.00  0.00    +0.000 A 
ATOM     18  C   UNL     1       0.987   3.082  21.152  0.00  0.00    +0.000 A 
ATOM     19  C   UNL     1       2.291   2.798  21.493  0.00  0.00    +0.000 A 
ATOM     20  S   UNL     1       3.393   3.298  20.288  0.00  0.00    +0.000 S 
ENDBRANCH   4  16
BRANCH   1  22
ATOM     21  N   UNL     1       7.750   4.748  15.889  0.00  0.00    +0.000 NA
ATOM     22  C   UNL     1       6.568   4.684  16.323  0.00  0.00    +0.000 C 
ENDBRANCH   1  22
BRANCH   2  23
ATOM     23  S   UNL     1       5.423   7.290  17.175  0.00  0.00    +0.000 S 
ATOM     24  H   UNL     1       4.956   7.783  16.015  0.00  0.00    +0.000 HD
ENDBRANCH   2  23
TORSDOF 4
ENDMDL
MODEL 4
REMARK VINA RESULT:      -5.9      2.537      4.330
REMARK  Name = 
REMARK  4 active torsions:
REMARK  status: ('A' for Active; 'I' for Inactive)
REMARK    1  A    between atoms: C_2  and  C_3
REMARK    2  A    between atoms: C_4  and  S_5
REMARK    3  A    between atoms: N_6  and  C_7
REMARK    4  A    between atoms: C_14  and  C_15
REMARK                            x       y       z     vdW  Elec       q    Type
REMARK                         _______ _______ _______ _____ _____    ______ ____
ROOT
ATOM      1  C   UNL     1       2.088   7.830  19.401  0.00  0.00    +0.000 C 
ATOM      2  C   UNL     1       2.249   6.481  19.464  0.00  0.00    +0.000 C 
ATOM      3  N   UNL     1       2.891   5.767  18.419  0.00  0.00    +0.000 N 
ATOM      4  C   UNL     1       3.388   6.451  17.207  0.00  0.00    +0.000 C 
ATOM      5  N   UNL     1       3.006   7.838  17.179  0.00  0.00    +0.000 N 
ATOM      6  C   UNL     1       2.491   8.563  18.200  0.00  0.00    +0.000 C 
ATOM      7  O   UNL     1       2.325   9.769  18.084  0.00  0.00    +0.000 OA
ATOM      8  H   UNL     1       3.259   8.375  16.361  0.00  0.00    +0.000 HD
ENDROOT
BRANCH   3   9
ATOM      9  C   UNL     1       3.204   4.366  18.458  0.00  0.00    +0.000 A 
ATOM     10  C   UNL     1       2.551   3.439  17.619  0.00  0.00    +0.000 A 
ATOM     11  C   UNL     1       2.821   2.065  17.686  0.00  0.00    +0.000 A 
ATOM     12  C   UNL     1       3.735   1.587  18.611  0.00  0.00    +0.000 A 
ATOM     13  F   UNL     1       3.957   0.271  18.707  0.00  0.00    +0.000 F 
ATOM     14  C   UNL     1       4.421   2.463  19.433  0.00  0.00    +0.000 A 
ATOM     15  C   UNL     1       4.181   3.839  19.330  0.00  0.00    +0.000 A 
ENDBRANCH   3   9
BRANCH   4  16
ATOM     16  C   UNL     1       4.888   6.414  17.012  0.00  0.00    +0.000 A 
ATOM     17  C   UNL     1       5.877   7.026  17.759  0.00  0.00    +0.000 A 
ATOM     18  C   UNL     1       7.184   6.681  17.316  0.00  0.00    +0.000 A 
ATOM     19  C   UNL     1       7.155   5.842  16.225  0.00  0.00    +0.000 A 
ATOM     20  S   UNL     1       5.559   5.481  15.735  0.00  0.00    +0.000 S 
ENDBRANCH   4  16
BRANCH   1  22
ATOM     21  N   UNL     1       0.903   9.195  21.515  0.00  0.00    +0.000 NA
ATOM     22  C   UNL     1       1.441   8.576  20.556  0.00  0.00    +0.000 C 
ENDBRANCH   1  22
BRANCH   2  23
ATOM     23  S   UNL     1       1.497   5.622  20.871  0.00  0.00    +0.000 S 
ATOM     24  H   UNL     1       1.531   6.544  21.848  0.00  0.00    +0.000 HD
ENDBRANCH   2  23
TORSDOF 4
ENDMDL
MODEL 5
REMARK VINA RESULT:      -5.9      2.509      4.171
REMARK  Name = 
REMARK  4 active torsions:
REMARK  status: ('A' for Active; 'I' for Inactive)
REMARK    1  A    between atoms: C_2  and  C_3
REMARK    2  A    between atoms: C_4  and  S_5
REMARK    3  A    between atoms: N_6  and  C_7
REMARK    4  A    between atoms: C_14  and  C_15
REMARK                            x       y       z     vdW  Elec       q    Type
REMARK                         _______ _______ _______ _____ _____    ______ ____
ROOT
ATOM      1  C   UNL     1       2.070   7.919  19.375  0.00  0.00    +0.000 C 
ATOM      2  C   UNL     1       2.195   6.568  19.473  0.00  0.00    +0.000 C 
ATOM      3  N   UNL     1       2.823   5.812  18.450  0.00  0.00    +0.000 N 
ATOM      4  C   UNL     1       3.344   6.451  17.224  0.00  0.00    +0.000 C 
ATOM      5  N   UNL     1       2.999   7.847  17.159  0.00  0.00    +0.000 N 
ATOM      6  C   UNL     1       2.497   8.610  18.158  0.00  0.00    +0.000 C 
ATOM      7  O   UNL     1       2.364   9.817  18.011  0.00  0.00    +0.000 OA
ATOM      8  H   UNL     1       3.269   8.356  16.329  0.00  0.00    +0.000 HD
ENDROOT
BRANCH   3   9
ATOM      9  C   UNL     1       3.099   4.404  18.525  0.00  0.00    +0.000 A 
ATOM     10  C   UNL     1       4.058   3.884  19.420  0.00  0.00    +0.000 A 
ATOM     11  C   UNL     1       4.362   2.517  19.463  0.00  0.00    +0.000 A 
ATOM     12  C   UNL     1       3.730   1.643  18.594  0.00  0.00    +0.000 A 
ATOM     13  F   UNL     1       4.056   0.345  18.603  0.00  0.00    +0.000 F 
ATOM     14  C   UNL     1       2.762   2.103  17.720  0.00  0.00    +0.000 A 
ATOM     15  C   UNL     1       2.428   3.464  17.713  0.00  0.00    +0.000 A 
ENDBRANCH   3   9
BRANCH   4  16
ATOM     16  C   UNL     1       4.844   6.371  17.038  0.00  0.00    +0.000 A 
ATOM     17  C   UNL     1       5.844   6.980  17.772  0.00  0.00    +0.000 A 
ATOM     18  C   UNL     1       7.144   6.589  17.347  0.00  0.00    +0.000 A 
ATOM     19  C   UNL     1       7.099   5.718  16.281  0.00  0.00    +0.000 A 
ATOM     20  S   UNL     1       5.497   5.382  15.794  0.00  0.00    +0.000 S 
ENDBRANCH   4  16
BRANCH   1  22
ATOM     21  N   UNL     1       0.911   9.367  21.447  0.00  0.00    +0.000 NA
ATOM     22  C   UNL     1       1.436   8.710  20.508  0.00  0.00    +0.000 C 
ENDBRANCH   1  22
BRANCH   2  23
ATOM     23  S   UNL     1       1.414   5.765  20.897  0.00  0.00    +0.000 S 
ATOM     24  H   UNL     1       2.011   4.561  20.936  0.00  0.00    +0.000 HD
ENDBRANCH   2  23
TORSDOF 4
ENDMDL
MODEL 6
REMARK VINA RESULT:      -5.8      0.142      1.029
REMARK  Name = 
REMARK  4 active torsions:
REMARK  status: ('A' for Active; 'I' for Inactive)
REMARK    1  A    between atoms: C_2  and  C_3
REMARK    2  A    between atoms: C_4  and  S_5
REMARK    3  A    between atoms: N_6  and  C_7
REMARK    4  A    between atoms: C_14  and  C_15
REMARK                            x       y       z     vdW  Elec       q    Type
REMARK                         _______ _______ _______ _____ _____    ______ ____
ROOT
ATOM      1  C   UNL     1       1.765   8.013  19.537  0.00  0.00    +0.000 C 
ATOM      2  C   UNL     1       2.740   7.542  18.714  0.00  0.00    +0.000 C 
ATOM      3  N   UNL     1       3.372   6.295  18.960  0.00  0.00    +0.000 N 
ATOM      4  C   UNL     1       3.019   5.467  20.132  0.00  0.00    +0.000 C 
ATOM      5  N   UNL     1       2.108   6.148  21.014  0.00  0.00    +0.000 N 
ATOM      6  C   UNL     1       1.415   7.282  20.755  0.00  0.00    +0.000 C 
ATOM      7  O   UNL     1       0.575   7.691  21.544  0.00  0.00    +0.000 OA
ATOM      8  H   UNL     1       1.850   5.678  21.871  0.00  0.00    +0.000 HD
ENDROOT
BRANCH   3   9
ATOM      9  C   UNL     1       4.324   5.672  18.083  0.00  0.00    +0.000 A 
ATOM     10  C   UNL     1       3.915   4.907  16.971  0.00  0.00    +0.000 A 
ATOM     11  C   UNL     1       4.840   4.260  16.141  0.00  0.00    +0.000 A 
ATOM     12  C   UNL     1       6.194   4.347  16.419  0.00  0.00    +0.000 A 
ATOM     13  F   UNL     1       7.074   3.690  15.653  0.00  0.00    +0.000 F 
ATOM     14  C   UNL     1       6.643   5.111  17.481  0.00  0.00    +0.000 A 
ATOM     15  C   UNL     1       5.716   5.793  18.281  0.00  0.00    +0.000 A 
ENDBRANCH   3   9
BRANCH   4  16
ATOM     16  C   UNL     1       2.389   4.129  19.814  0.00  0.00    +0.000 A 
ATOM     17  C   UNL     1       1.139   3.859  19.290  0.00  0.00    +0.000 A 
ATOM     18  C   UNL     1       0.941   2.472  19.045  0.00  0.00    +0.000 A 
ATOM     19  C   UNL     1       2.032   1.720  19.420  0.00  0.00    +0.000 A 
ATOM     20  S   UNL     1       3.284   2.684  20.068  0.00  0.00    +0.000 S 
ENDBRANCH   4  16
BRANCH   1  22
ATOM     21  N   UNL     1       0.496  10.419  18.961  0.00  0.00    +0.000 NA
ATOM     22  C   UNL     1       1.071   9.328  19.222  0.00  0.00    +0.000 C 
ENDBRANCH   1  22
BRANCH   2  23
ATOM     23  S   UNL     1       3.287   8.628  17.371  0.00  0.00    +0.000 S 
ATOM     24  H   UNL     1       3.318   9.841  17.948  0.00  0.00    +0.000 HD
ENDBRANCH   2  23
TORSDOF 4
ENDMDL
MODEL 7
REMARK VINA RESULT:      -5.6      3.289      5.893
REMARK  Name = 
REMARK  4 active torsions:
REMARK  status: ('A' for Active; 'I' for Inactive)
REMARK    1  A    between atoms: C_2  and  C_3
REMARK    2  A    between atoms: C_4  and  S_5
REMARK    3  A    between atoms: N_6  and  C_7
REMARK    4  A    between atoms: C_14  and  C_15
REMARK                            x       y       z     vdW  Elec       q    Type
REMARK                         _______ _______ _______ _____ _____    ______ ____
ROOT
ATOM      1  C   UNL     1       4.884   4.929  16.376  0.00  0.00    +0.000 C 
ATOM      2  C   UNL     1       4.181   4.182  17.268  0.00  0.00    +0.000 C 
ATOM      3  N   UNL     1       3.811   4.704  18.535  0.00  0.00    +0.000 N 
ATOM      4  C   UNL     1       4.194   6.070  18.950  0.00  0.00    +0.000 C 
ATOM      5  N   UNL     1       5.077   6.692  17.999  0.00  0.00    +0.000 N 
ATOM      6  C   UNL     1       5.359   6.262  16.746  0.00  0.00    +0.000 C 
ATOM      7  O   UNL     1       6.030   6.951  15.990  0.00  0.00    +0.000 OA
ATOM      8  H   UNL     1       5.433   7.610  18.225  0.00  0.00    +0.000 HD
ENDROOT
BRANCH   3   9
ATOM      9  C   UNL     1       2.974   4.028  19.486  0.00  0.00    +0.000 A 
ATOM     10  C   UNL     1       1.571   3.994  19.345  0.00  0.00    +0.000 A 
ATOM     11  C   UNL     1       0.749   3.375  20.296  0.00  0.00    +0.000 A 
ATOM     12  C   UNL     1       1.312   2.796  21.422  0.00  0.00    +0.000 A 
ATOM     13  F   UNL     1       0.522   2.247  22.352  0.00  0.00    +0.000 F 
ATOM     14  C   UNL     1       2.685   2.780  21.587  0.00  0.00    +0.000 A 
ATOM     15  C   UNL     1       3.505   3.360  20.610  0.00  0.00    +0.000 A 
ENDBRANCH   3   9
BRANCH   4  16
ATOM     16  C   UNL     1       3.043   7.029  19.159  0.00  0.00    +0.000 A 
ATOM     17  C   UNL     1       2.255   7.211  20.281  0.00  0.00    +0.000 A 
ATOM     18  C   UNL     1       1.327   8.278  20.125  0.00  0.00    +0.000 A 
ATOM     19  C   UNL     1       1.410   8.857  18.878  0.00  0.00    +0.000 A 
ATOM     20  S   UNL     1       2.596   8.112  17.902  0.00  0.00    +0.000 S 
ENDBRANCH   4  16
BRANCH   1  22
ATOM     21  N   UNL     1       5.508   3.891  13.873  0.00  0.00    +0.000 NA
ATOM     22  C   UNL     1       5.225   4.362  15.008  0.00  0.00    +0.000 C 
ENDBRANCH   1  22
BRANCH   2  23
ATOM     23  S   UNL     1       3.852   2.456  16.827  0.00  0.00    +0.000 S 
ATOM     24  H   UNL     1       2.762   2.155  17.552  0.00  0.00    +0.000 HD
ENDBRANCH   2  23
TORSDOF 4
ENDMDL
MODEL 8
REMARK VINA RESULT:      -5.5      3.471      5.769
REMARK  Name = 
REMARK  4 active torsions:
REMARK  status: ('A' for Active; 'I' for Inactive)
REMARK    1  A    between atoms: C_2  and  C_3
REMARK    2  A    between atoms: C_4  and  S_5
REMARK    3  A    between atoms: N_6  and  C_7
REMARK    4  A    between atoms: C_14  and  C_15
REMARK                            x       y       z     vdW  Elec       q    Type
REMARK                         _______ _______ _______ _____ _____    ______ ____
ROOT
ATOM      1  C   UNL     1       6.470   5.577  16.045  0.00  0.00    +0.000 C 
ATOM      2  C   UNL     1       5.504   4.664  16.336  0.00  0.00    +0.000 C 
ATOM      3  N   UNL     1       4.691   4.797  17.491  0.00  0.00    +0.000 N 
ATOM      4  C   UNL     1       4.874   5.913  18.442  0.00  0.00    +0.000 C 
ATOM      5  N   UNL     1       6.031   6.706  18.121  0.00  0.00    +0.000 N 
ATOM      6  C   UNL     1       6.756   6.667  16.978  0.00  0.00    +0.000 C 
ATOM      7  O   UNL     1       7.644   7.484  16.777  0.00  0.00    +0.000 OA
ATOM      8  H   UNL     1       6.267   7.463  18.748  0.00  0.00    +0.000 HD
ENDROOT
BRANCH   3   9
ATOM      9  C   UNL     1       3.577   3.948  17.810  0.00  0.00    +0.000 A 
ATOM     10  C   UNL     1       2.265   4.262  17.400  0.00  0.00    +0.000 A 
ATOM     11  C   UNL     1       1.170   3.460  17.749  0.00  0.00    +0.000 A 
ATOM     12  C   UNL     1       1.363   2.337  18.537  0.00  0.00    +0.000 A 
ATOM     13  F   UNL     1       0.310   1.598  18.909  0.00  0.00    +0.000 F 
ATOM     14  C   UNL     1       2.635   1.973  18.938  0.00  0.00    +0.000 A 
ATOM     15  C   UNL     1       3.732   2.753  18.547  0.00  0.00    +0.000 A 
ENDBRANCH   3   9
BRANCH   4  16
ATOM     16  C   UNL     1       3.710   6.874  18.546  0.00  0.00    +0.000 A 
ATOM     17  C   UNL     1       3.296   7.837  17.646  0.00  0.00    +0.000 A 
ATOM     18  C   UNL     1       2.098   8.485  18.057  0.00  0.00    +0.000 A 
ATOM     19  C   UNL     1       1.651   8.021  19.273  0.00  0.00    +0.000 A 
ATOM     20  S   UNL     1       2.676   6.815  19.917  0.00  0.00    +0.000 S 
ENDBRANCH   4  16
BRANCH   1  22
ATOM     21  N   UNL     1       7.976   5.321  13.722  0.00  0.00    +0.000 NA
ATOM     22  C   UNL     1       7.293   5.437  14.775  0.00  0.00    +0.000 C 
ENDBRANCH   1  22
BRANCH   2  23
ATOM     23  S   UNL     1       5.386   3.211  15.260  0.00  0.00    +0.000 S 
ATOM     24  H   UNL     1       4.101   3.222  14.868  0.00  0.00    +0.000 HD
ENDBRANCH   2  23
TORSDOF 4
ENDMDL
MODEL 9
REMARK VINA RESULT:      -5.5      0.860      1.044
REMARK  Name = 
REMARK  4 active torsions:
REMARK  status: ('A' for Active; 'I' for Inactive)
REMARK    1  A    between atoms: C_2  and  C_3
REMARK    2  A    between atoms: C_4  and  S_5
REMARK    3  A    between atoms: N_6  and  C_7
REMARK    4  A    between atoms: C_14  and  C_15
REMARK                            x       y       z     vdW  Elec       q    Type
REMARK                         _______ _______ _______ _____ _____    ______ ____
ROOT
ATOM      1  C   UNL     1       2.019   7.711  19.434  0.00  0.00    +0.000 C 
ATOM      2  C   UNL     1       3.013   7.373  18.570  0.00  0.00    +0.000 C 
ATOM      3  N   UNL     1       3.742   6.165  18.723  0.00  0.00    +0.000 N 
ATOM      4  C   UNL     1       3.474   5.236  19.840  0.00  0.00    +0.000 C 
ATOM      5  N   UNL     1       2.529   5.784  20.777  0.00  0.00    +0.000 N 
ATOM      6  C   UNL     1       1.747   6.875  20.604  0.00  0.00    +0.000 C 
ATOM      7  O   UNL     1       0.891   7.165  21.429  0.00  0.00    +0.000 OA
ATOM      8  H   UNL     1       2.322   5.239  21.604  0.00  0.00    +0.000 HD
ENDROOT
BRANCH   3   9
ATOM      9  C   UNL     1       4.724   5.678  17.795  0.00  0.00    +0.000 A 
ATOM     10  C   UNL     1       6.104   5.892  17.996  0.00  0.00    +0.000 A 
ATOM     11  C   UNL     1       7.061   5.458  17.069  0.00  0.00    +0.000 A 
ATOM     12  C   UNL     1       6.656   4.820  15.908  0.00  0.00    +0.000 A 
ATOM     13  F   UNL     1       7.567   4.448  15.001  0.00  0.00    +0.000 F 
ATOM     14  C   UNL     1       5.316   4.563  15.682  0.00  0.00    +0.000 A 
ATOM     15  C   UNL     1       4.366   4.957  16.635  0.00  0.00    +0.000 A 
ENDBRANCH   3   9
BRANCH   4  16
ATOM     16  C   UNL     1       2.943   3.877  19.439  0.00  0.00    +0.000 A 
ATOM     17  C   UNL     1       3.553   2.641  19.541  0.00  0.00    +0.000 A 
ATOM     18  C   UNL     1       2.696   1.579  19.141  0.00  0.00    +0.000 A 
ATOM     19  C   UNL     1       1.470   2.036  18.714  0.00  0.00    +0.000 A 
ATOM     20  S   UNL     1       1.357   3.739  18.791  0.00  0.00    +0.000 S 
ENDBRANCH   4  16
BRANCH   1  22
ATOM     21  N   UNL     1       0.560  10.045  19.038  0.00  0.00    +0.000 NA
ATOM     22  C   UNL     1       1.222   8.987  19.218  0.00  0.00    +0.000 C 
ENDBRANCH   1  22
BRANCH   2  23
ATOM     23  S   UNL     1       3.453   8.585  17.297  0.00  0.00    +0.000 S 
ATOM     24  H   UNL     1       4.783   8.438  17.178  0.00  0.00    +0.000 HD
ENDBRANCH   2  23
TORSDOF 4
ENDMDL
