MODEL 1
REMARK VINA RESULT:      -8.1      0.000      0.000
REMARK  Name = 
REMARK  7 active torsions:
REMARK  status: ('A' for Active; 'I' for Inactive)
REMARK    1  A    between atoms: C_2  and  O_3
REMARK    2  A    between atoms: C_2  and  C_4
REMARK    3  A    between atoms: C_4  and  O_5
REMARK    4  A    between atoms: C_6  and  C_7
REMARK    5  A    between atoms: C_7  and  C_9
REMARK    6  A    between atoms: N_11  and  C_12
REMARK    7  A    between atoms: C_12  and  C_13
REMARK                            x       y       z     vdW  Elec       q    Type
REMARK                         _______ _______ _______ _____ _____    ______ ____
ROOT
ATOM      1  C   UNL     1       5.787   5.284  15.881  0.00  0.00    +0.000 A 
ATOM      2  C   UNL     1       5.677   4.478  16.948  0.00  0.00    +0.000 A 
ATOM      3  N   UNL     1       4.909   4.692  18.089  0.00  0.00    +0.000 N 
ATOM      4  C   UNL     1       4.128   5.868  18.172  0.00  0.00    +0.000 A 
ATOM      5  C   UNL     1       3.295   6.183  19.258  0.00  0.00    +0.000 A 
ATOM      6  C   UNL     1       2.528   7.356  19.278  0.00  0.00    +0.000 A 
ATOM      7 CL   UNL     1       1.505   7.677  20.625  0.00  0.00    +0.000 Cl
ATOM      8  C   UNL     1       2.583   8.261  18.227  0.00  0.00    +0.000 A 
ATOM      9  C   UNL     1       3.411   7.989  17.143  0.00  0.00    +0.000 A 
ATOM     10  C   UNL     1       4.171   6.808  17.117  0.00  0.00    +0.000 A 
ATOM     11  C   UNL     1       5.029   6.557  15.932  0.00  0.00    +0.000 A 
ATOM     12  O   UNL     1       5.090   7.385  15.029  0.00  0.00    +0.000 OA
ENDROOT
BRANCH   1  13
ATOM     13  C   UNL     1       6.659   4.845  14.751  0.00  0.00    +0.000 C 
ATOM     14  O   UNL     1       7.791   5.303  14.616  0.00  0.00    +0.000 OA
BRANCH  13  16
ATOM     15  C   UNL     1       6.482   3.607  12.586  0.00  0.00    +0.000 C 
ATOM     16  C   UNL     1       6.141   3.753  13.874  0.00  0.00    +0.000 C 
BRANCH  15  18
ATOM     17  O   UNL     1       4.802   2.497  11.379  0.00  0.00    +0.000 OA
ATOM     18  C   UNL     1       5.985   2.506  11.706  0.00  0.00    +0.000 C 
BRANCH  18  19
ATOM     19  O   UNL     1       6.852   1.568  11.295  0.00  0.00    +0.000 OA
ATOM     20  H   UNL     1       7.782   1.667  11.559  0.00  0.00    +0.000 HD
ENDBRANCH  18  19
ENDBRANCH  15  18
BRANCH  15  21
ATOM     21  O   UNL     1       7.345   4.499  11.962  0.00  0.00    +0.000 OA
ATOM     22  H   UNL     1       6.876   4.804  11.155  0.00  0.00    +0.000 HD
ENDBRANCH  15  21
ENDBRANCH  13  16
ENDBRANCH   1  13
BRANCH   3  23
ATOM     23  C   UNL     1       4.872   3.685  19.180  0.00  0.00    +0.000 C 
BRANCH  23  24
ATOM     24  C   UNL     1       3.460   3.208  19.473  0.00  0.00    +0.000 A 
ATOM     25  C   UNL     1       2.650   2.699  18.444  0.00  0.00    +0.000 A 
ATOM     26  C   UNL     1       1.329   2.324  18.697  0.00  0.00    +0.000 A 
ATOM     27  C   UNL     1       0.816   2.446  19.981  0.00  0.00    +0.000 A 
ATOM     28  F   UNL     1      -0.461   2.118  20.216  0.00  0.00    +0.000 F 
ATOM     29  C   UNL     1       1.609   2.904  21.025  0.00  0.00    +0.000 A 
ATOM     30  C   UNL     1       2.932   3.272  20.775  0.00  0.00    +0.000 A 
ENDBRANCH  23  24
ENDBRANCH   3  23
TORSDOF 7
ENDMDL
MODEL 2
REMARK VINA RESULT:      -7.9      3.520      6.169
REMARK  Name = 
REMARK  7 active torsions:
REMARK  status: ('A' for Active; 'I' for Inactive)
REMARK    1  A    between atoms: C_2  and  O_3
REMARK    2  A    between atoms: C_2  and  C_4
REMARK    3  A    between atoms: C_4  and  O_5
REMARK    4  A    between atoms: C_6  and  C_7
REMARK    5  A    between atoms: C_7  and  C_9
REMARK    6  A    between atoms: N_11  and  C_12
REMARK    7  A    between atoms: C_12  and  C_13
REMARK                            x       y       z     vdW  Elec       q    Type
REMARK                         _______ _______ _______ _____ _____    ______ ____
ROOT
ATOM      1  C   UNL     1       5.888   6.088  17.459  0.00  0.00    +0.000 A 
ATOM      2  C   UNL     1       4.693   6.660  17.252  0.00  0.00    +0.000 A 
ATOM      3  N   UNL     1       3.465   6.260  17.775  0.00  0.00    +0.000 N 
ATOM      4  C   UNL     1       3.428   5.141  18.640  0.00  0.00    +0.000 A 
ATOM      5  C   UNL     1       2.258   4.658  19.248  0.00  0.00    +0.000 A 
ATOM      6  C   UNL     1       2.282   3.555  20.112  0.00  0.00    +0.000 A 
ATOM      7 CL   UNL     1       0.821   3.023  20.850  0.00  0.00    +0.000 Cl
ATOM      8  C   UNL     1       3.469   2.887  20.381  0.00  0.00    +0.000 A 
ATOM      9  C   UNL     1       4.644   3.328  19.781  0.00  0.00    +0.000 A 
ATOM     10  C   UNL     1       4.622   4.441  18.924  0.00  0.00    +0.000 A 
ATOM     11  C   UNL     1       5.904   4.881  18.319  0.00  0.00    +0.000 A 
ATOM     12  O   UNL     1       6.937   4.256  18.542  0.00  0.00    +0.000 OA
ENDROOT
BRANCH   1  13
ATOM     13  C   UNL     1       7.085   6.699  16.810  0.00  0.00    +0.000 C 
ATOM     14  O   UNL     1       7.659   6.129  15.885  0.00  0.00    +0.000 OA
BRANCH  13  16
ATOM     15  C   UNL     1       8.253   8.315  18.319  0.00  0.00    +0.000 C 
ATOM     16  C   UNL     1       7.477   8.070  17.253  0.00  0.00    +0.000 C 
BRANCH  15  18
ATOM     17  O   UNL     1       8.491  10.628  17.997  0.00  0.00    +0.000 OA
ATOM     18  C   UNL     1       8.667   9.682  18.759  0.00  0.00    +0.000 C 
BRANCH  18  19
ATOM     19  O   UNL     1       9.209   9.831  19.978  0.00  0.00    +0.000 OA
ATOM     20  H   UNL     1       9.799   9.128  20.298  0.00  0.00    +0.000 HD
ENDBRANCH  18  19
ENDBRANCH  15  18
BRANCH  15  21
ATOM     21  O   UNL     1       8.736   7.282  19.112  0.00  0.00    +0.000 OA
ATOM     22  H   UNL     1       7.983   7.006  19.679  0.00  0.00    +0.000 HD
ENDBRANCH  15  21
ENDBRANCH  13  16
ENDBRANCH   1  13
BRANCH   3  23
ATOM     23  C   UNL     1       2.226   7.018  17.469  0.00  0.00    +0.000 C 
BRANCH  23  24
ATOM     24  C   UNL     1       1.910   8.054  18.534  0.00  0.00    +0.000 A 
ATOM     25  C   UNL     1       1.912   7.704  19.895  0.00  0.00    +0.000 A 
ATOM     26  C   UNL     1       1.555   8.637  20.870  0.00  0.00    +0.000 A 
ATOM     27  C   UNL     1       1.206   9.926  20.492  0.00  0.00    +0.000 A 
ATOM     28  F   UNL     1       0.832  10.810  21.425  0.00  0.00    +0.000 F 
ATOM     29  C   UNL     1       1.239  10.310  19.158  0.00  0.00    +0.000 A 
ATOM     30  C   UNL     1       1.603   9.381  18.182  0.00  0.00    +0.000 A 
ENDBRANCH  23  24
ENDBRANCH   3  23
TORSDOF 7
ENDMDL
MODEL 3
REMARK VINA RESULT:      -7.8      2.925      4.183
REMARK  Name = 
REMARK  7 active torsions:
REMARK  status: ('A' for Active; 'I' for Inactive)
REMARK    1  A    between atoms: C_2  and  O_3
REMARK    2  A    between atoms: C_2  and  C_4
REMARK    3  A    between atoms: C_4  and  O_5
REMARK    4  A    between atoms: C_6  and  C_7
REMARK    5  A    between atoms: C_7  and  C_9
REMARK    6  A    between atoms: N_11  and  C_12
REMARK    7  A    between atoms: C_12  and  C_13
REMARK                            x       y       z     vdW  Elec       q    Type
REMARK                         _______ _______ _______ _____ _____    ______ ____
ROOT
ATOM      1  C   UNL     1       3.127   7.373  17.948  0.00  0.00    +0.000 A 
ATOM      2  C   UNL     1       2.913   6.439  18.887  0.00  0.00    +0.000 A 
ATOM      3  N   UNL     1       2.153   6.569  20.047  0.00  0.00    +0.000 N 
ATOM      4  C   UNL     1       1.501   7.799  20.297  0.00  0.00    +0.000 A 
ATOM      5  C   UNL     1       0.688   8.042  21.416  0.00  0.00    +0.000 A 
ATOM      6  C   UNL     1       0.051   9.276  21.605  0.00  0.00    +0.000 A 
ATOM      7 CL   UNL     1      -0.955   9.509  22.982  0.00  0.00    +0.000 Cl
ATOM      8  C   UNL     1       0.219  10.311  20.696  0.00  0.00    +0.000 A 
ATOM      9  C   UNL     1       1.032  10.110  19.585  0.00  0.00    +0.000 A 
ATOM     10  C   UNL     1       1.661   8.870  19.389  0.00  0.00    +0.000 A 
ATOM     11  C   UNL     1       2.508   8.700  18.182  0.00  0.00    +0.000 A 
ATOM     12  O   UNL     1       2.672   9.638  17.407  0.00  0.00    +0.000 OA
ENDROOT
BRANCH   1  13
ATOM     13  C   UNL     1       3.966   7.010  16.768  0.00  0.00    +0.000 C 
ATOM     14  O   UNL     1       3.958   7.702  15.753  0.00  0.00    +0.000 OA
BRANCH  13  16
ATOM     15  C   UNL     1       6.226   5.949  16.906  0.00  0.00    +0.000 C 
ATOM     16  C   UNL     1       4.889   5.846  16.921  0.00  0.00    +0.000 C 
BRANCH  15  18
ATOM     17  O   UNL     1       7.901   4.487  16.152  0.00  0.00    +0.000 OA
ATOM     18  C   UNL     1       7.158   4.793  17.079  0.00  0.00    +0.000 C 
BRANCH  18  19
ATOM     19  O   UNL     1       7.158   4.135  18.249  0.00  0.00    +0.000 OA
ATOM     20  H   UNL     1       7.877   3.502  18.410  0.00  0.00    +0.000 HD
ENDBRANCH  18  19
ENDBRANCH  15  18
BRANCH  15  21
ATOM     21  O   UNL     1       6.853   7.174  16.720  0.00  0.00    +0.000 OA
ATOM     22  H   UNL     1       7.546   7.228  17.415  0.00  0.00    +0.000 HD
ENDBRANCH  15  21
ENDBRANCH  13  16
ENDBRANCH   1  13
BRANCH   3  23
ATOM     23  C   UNL     1       1.991   5.426  20.980  0.00  0.00    +0.000 C 
BRANCH  23  24
ATOM     24  C   UNL     1       2.421   4.110  20.356  0.00  0.00    +0.000 A 
ATOM     25  C   UNL     1       3.771   3.722  20.367  0.00  0.00    +0.000 A 
ATOM     26  C   UNL     1       4.179   2.546  19.734  0.00  0.00    +0.000 A 
ATOM     27  C   UNL     1       3.239   1.748  19.098  0.00  0.00    +0.000 A 
ATOM     28  F   UNL     1       3.635   0.638  18.462  0.00  0.00    +0.000 F 
ATOM     29  C   UNL     1       1.892   2.085  19.111  0.00  0.00    +0.000 A 
ATOM     30  C   UNL     1       1.481   3.257  19.750  0.00  0.00    +0.000 A 
ENDBRANCH  23  24
ENDBRANCH   3  23
TORSDOF 7
ENDMDL
MODEL 4
REMARK VINA RESULT:      -7.7      5.068      7.484
REMARK  Name = 
REMARK  7 active torsions:
REMARK  status: ('A' for Active; 'I' for Inactive)
REMARK    1  A    between atoms: C_2  and  O_3
REMARK    2  A    between atoms: C_2  and  C_4
REMARK    3  A    between atoms: C_4  and  O_5
REMARK    4  A    between atoms: C_6  and  C_7
REMARK    5  A    between atoms: C_7  and  C_9
REMARK    6  A    between atoms: N_11  and  C_12
REMARK    7  A    between atoms: C_12  and  C_13
REMARK                            x       y       z     vdW  Elec       q    Type
REMARK                         _______ _______ _______ _____ _____    ______ ____
ROOT
ATOM      1  C   UNL     1       1.964   7.925  18.964  0.00  0.00    +0.000 A 
ATOM      2  C   UNL     1       1.415   8.999  18.376  0.00  0.00    +0.000 A 
ATOM      3  N   UNL     1       0.631   9.980  18.978  0.00  0.00    +0.000 N 
ATOM      4  C   UNL     1       0.371   9.886  20.365  0.00  0.00    +0.000 A 
ATOM      5  C   UNL     1      -0.383  10.824  21.088  0.00  0.00    +0.000 A 
ATOM      6  C   UNL     1      -0.593  10.690  22.467  0.00  0.00    +0.000 A 
ATOM      7 CL   UNL     1      -1.504  11.886  23.306  0.00  0.00    +0.000 Cl
ATOM      8  C   UNL     1      -0.077   9.607  23.165  0.00  0.00    +0.000 A 
ATOM      9  C   UNL     1       0.660   8.649  22.477  0.00  0.00    +0.000 A 
ATOM     10  C   UNL     1       0.881   8.789  21.096  0.00  0.00    +0.000 A 
ATOM     11  C   UNL     1       1.685   7.747  20.409  0.00  0.00    +0.000 A 
ATOM     12  O   UNL     1       2.105   6.779  21.037  0.00  0.00    +0.000 OA
ENDROOT
BRANCH   1  13
ATOM     13  C   UNL     1       2.790   7.007  18.127  0.00  0.00    +0.000 C 
ATOM     14  O   UNL     1       3.910   7.339  17.745  0.00  0.00    +0.000 OA
BRANCH  13  16
ATOM     15  C   UNL     1       2.871   4.509  18.240  0.00  0.00    +0.000 C 
ATOM     16  C   UNL     1       2.246   5.639  17.876  0.00  0.00    +0.000 C 
BRANCH  15  18
ATOM     17  O   UNL     1       1.110   2.971  18.039  0.00  0.00    +0.000 OA
ATOM     18  C   UNL     1       2.325   3.137  18.012  0.00  0.00    +0.000 C 
BRANCH  18  19
ATOM     19  O   UNL     1       3.184   2.133  17.775  0.00  0.00    +0.000 OA
ATOM     20  H   UNL     1       4.118   2.275  18.003  0.00  0.00    +0.000 HD
ENDBRANCH  18  19
ENDBRANCH  15  18
BRANCH  15  21
ATOM     21  O   UNL     1       4.109   4.542  18.870  0.00  0.00    +0.000 OA
ATOM     22  H   UNL     1       4.764   4.730  18.162  0.00  0.00    +0.000 HD
ENDBRANCH  15  21
ENDBRANCH  13  16
ENDBRANCH   1  13
BRANCH   3  23
ATOM     23  C   UNL     1       0.114  11.128  18.191  0.00  0.00    +0.000 C 
BRANCH  23  24
ATOM     24  C   UNL     1      -1.381  11.026  17.941  0.00  0.00    +0.000 A 
ATOM     25  C   UNL     1      -2.267  11.948  18.522  0.00  0.00    +0.000 A 
ATOM     26  C   UNL     1      -3.646  11.815  18.350  0.00  0.00    +0.000 A 
ATOM     27  C   UNL     1      -4.145  10.768  17.588  0.00  0.00    +0.000 A 
ATOM     28  F   UNL     1      -5.469  10.621  17.451  0.00  0.00    +0.000 F 
ATOM     29  C   UNL     1      -3.288   9.869  16.966  0.00  0.00    +0.000 A 
ATOM     30  C   UNL     1      -1.909  10.004  17.131  0.00  0.00    +0.000 A 
ENDBRANCH  23  24
ENDBRANCH   3  23
TORSDOF 7
ENDMDL
MODEL 5
REMARK VINA RESULT:      -7.6      5.248      7.740
REMARK  Name = 
REMARK  7 active torsions:
REMARK  status: ('A' for Active; 'I' for Inactive)
REMARK    1  A    between atoms: C_2  and  O_3
REMARK    2  A    between atoms: C_2  and  C_4
REMARK    3  A    between atoms: C_4  and  O_5
REMARK    4  A    between atoms: C_6  and  C_7
REMARK    5  A    between atoms: C_7  and  C_9
REMARK    6  A    between atoms: N_11  and  C_12
REMARK    7  A    between atoms: C_12  and  C_13
REMARK                            x       y       z     vdW  Elec       q    Type
REMARK                         _______ _______ _______ _____ _____    ______ ____
ROOT
ATOM      1  C   UNL     1       1.856   8.202  19.019  0.00  0.00    +0.000 A 
ATOM      2  C   UNL     1       1.266   9.261  18.443  0.00  0.00    +0.000 A 
ATOM      3  N   UNL     1       0.445  10.204  19.056  0.00  0.00    +0.000 N 
ATOM      4  C   UNL     1       0.190  10.084  20.442  0.00  0.00    +0.000 A 
ATOM      5  C   UNL     1      -0.599  10.984  21.176  0.00  0.00    +0.000 A 
ATOM      6  C   UNL     1      -0.803  10.827  22.553  0.00  0.00    +0.000 A 
ATOM      7 CL   UNL     1      -1.759  11.977  23.406  0.00  0.00    +0.000 Cl
ATOM      8  C   UNL     1      -0.245   9.756  23.238  0.00  0.00    +0.000 A 
ATOM      9  C   UNL     1       0.527   8.835  22.539  0.00  0.00    +0.000 A 
ATOM     10  C   UNL     1       0.742   8.999  21.161  0.00  0.00    +0.000 A 
ATOM     11  C   UNL     1       1.585   7.997  20.461  0.00  0.00    +0.000 A 
ATOM     12  O   UNL     1       2.041   7.039  21.077  0.00  0.00    +0.000 OA
ENDROOT
BRANCH   1  13
ATOM     13  C   UNL     1       2.716   7.326  18.170  0.00  0.00    +0.000 C 
ATOM     14  O   UNL     1       3.766   7.748  17.691  0.00  0.00    +0.000 OA
BRANCH  13  16
ATOM     15  C   UNL     1       2.884   4.886  18.695  0.00  0.00    +0.000 C 
ATOM     16  C   UNL     1       2.305   5.897  18.030  0.00  0.00    +0.000 C 
BRANCH  15  18
ATOM     17  O   UNL     1       2.814   2.664  19.447  0.00  0.00    +0.000 OA
ATOM     18  C   UNL     1       2.466   3.456  18.577  0.00  0.00    +0.000 C 
BRANCH  18  19
ATOM     19  O   UNL     1       1.714   3.089  17.528  0.00  0.00    +0.000 OA
ATOM     20  H   UNL     1       2.076   3.238  16.639  0.00  0.00    +0.000 HD
ENDBRANCH  18  19
ENDBRANCH  15  18
BRANCH  15  21
ATOM     21  O   UNL     1       3.947   5.108  19.561  0.00  0.00    +0.000 OA
ATOM     22  H   UNL     1       4.726   4.677  19.144  0.00  0.00    +0.000 HD
ENDBRANCH  15  21
ENDBRANCH  13  16
ENDBRANCH   1  13
BRANCH   3  23
ATOM     23  C   UNL     1      -0.116  11.341  18.283  0.00  0.00    +0.000 C 
BRANCH  23  24
ATOM     24  C   UNL     1      -1.602  11.176  18.017  0.00  0.00    +0.000 A 
ATOM     25  C   UNL     1      -2.059  10.256  17.059  0.00  0.00    +0.000 A 
ATOM     26  C   UNL     1      -3.420  10.152  16.765  0.00  0.00    +0.000 A 
ATOM     27  C   UNL     1      -4.330  10.958  17.434  0.00  0.00    +0.000 A 
ATOM     28  F   UNL     1      -5.632  10.881  17.127  0.00  0.00    +0.000 F 
ATOM     29  C   UNL     1      -3.909  11.843  18.417  0.00  0.00    +0.000 A 
ATOM     30  C   UNL     1      -2.550  11.944  18.718  0.00  0.00    +0.000 A 
ENDBRANCH  23  24
ENDBRANCH   3  23
TORSDOF 7
ENDMDL
MODEL 6
REMARK VINA RESULT:      -7.6      4.249      6.405
REMARK  Name = 
REMARK  7 active torsions:
REMARK  status: ('A' for Active; 'I' for Inactive)
REMARK    1  A    between atoms: C_2  and  O_3
REMARK    2  A    between atoms: C_2  and  C_4
REMARK    3  A    between atoms: C_4  and  O_5
REMARK    4  A    between atoms: C_6  and  C_7
REMARK    5  A    between atoms: C_7  and  C_9
REMARK    6  A    between atoms: N_11  and  C_12
REMARK    7  A    between atoms: C_12  and  C_13
REMARK                            x       y       z     vdW  Elec       q    Type
REMARK                         _______ _______ _______ _____ _____    ______ ____
ROOT
ATOM      1  C   UNL     1       1.947   6.016  19.846  0.00  0.00    +0.000 A 
ATOM      2  C   UNL     1       2.656   6.205  18.723  0.00  0.00    +0.000 A 
ATOM      3  N   UNL     1       2.856   7.405  18.044  0.00  0.00    +0.000 N 
ATOM      4  C   UNL     1       2.280   8.586  18.569  0.00  0.00    +0.000 A 
ATOM      5  C   UNL     1       2.431   9.856  17.990  0.00  0.00    +0.000 A 
ATOM      6  C   UNL     1       1.853  10.997  18.564  0.00  0.00    +0.000 A 
ATOM      7 CL   UNL     1       2.093  12.533  17.825  0.00  0.00    +0.000 Cl
ATOM      8  C   UNL     1       1.089  10.903  19.720  0.00  0.00    +0.000 A 
ATOM      9  C   UNL     1       0.905   9.658  20.309  0.00  0.00    +0.000 A 
ATOM     10  C   UNL     1       1.494   8.516  19.741  0.00  0.00    +0.000 A 
ATOM     11  C   UNL     1       1.279   7.211  20.415  0.00  0.00    +0.000 A 
ATOM     12  O   UNL     1       0.573   7.144  21.417  0.00  0.00    +0.000 OA
ENDROOT
BRANCH   1  13
ATOM     13  C   UNL     1       1.881   4.639  20.416  0.00  0.00    +0.000 C 
ATOM     14  O   UNL     1       0.832   4.199  20.880  0.00  0.00    +0.000 OA
BRANCH  13  16
ATOM     15  C   UNL     1       3.105   2.557  19.763  0.00  0.00    +0.000 C 
ATOM     16  C   UNL     1       3.103   3.790  20.291  0.00  0.00    +0.000 C 
BRANCH  15  18
ATOM     17  O   UNL     1       5.241   1.843  20.422  0.00  0.00    +0.000 OA
ATOM     18  C   UNL     1       4.326   1.709  19.615  0.00  0.00    +0.000 C 
BRANCH  18  19
ATOM     19  O   UNL     1       4.376   0.822  18.609  0.00  0.00    +0.000 OA
ATOM     20  H   UNL     1       3.543   0.599  18.162  0.00  0.00    +0.000 HD
ENDBRANCH  18  19
ENDBRANCH  15  18
BRANCH  15  21
ATOM     21  O   UNL     1       1.933   1.967  19.306  0.00  0.00    +0.000 OA
ATOM     22  H   UNL     1       1.802   2.305  18.393  0.00  0.00    +0.000 HD
ENDBRANCH  15  21
ENDBRANCH  13  16
ENDBRANCH   1  13
BRANCH   3  23
ATOM     23  C   UNL     1       3.693   7.455  16.819  0.00  0.00    +0.000 C 
BRANCH  23  24
ATOM     24  C   UNL     1       4.931   6.581  16.935  0.00  0.00    +0.000 A 
ATOM     25  C   UNL     1       4.892   5.233  16.545  0.00  0.00    +0.000 A 
ATOM     26  C   UNL     1       6.007   4.410  16.714  0.00  0.00    +0.000 A 
ATOM     27  C   UNL     1       7.169   4.935  17.263  0.00  0.00    +0.000 A 
ATOM     28  F   UNL     1       8.228   4.137  17.456  0.00  0.00    +0.000 F 
ATOM     29  C   UNL     1       7.248   6.275  17.615  0.00  0.00    +0.000 A 
ATOM     30  C   UNL     1       6.137   7.101  17.440  0.00  0.00    +0.000 A 
ENDBRANCH  23  24
ENDBRANCH   3  23
TORSDOF 7
ENDMDL
MODEL 7
REMARK VINA RESULT:      -7.5      6.066      8.705
REMARK  Name = 
REMARK  7 active torsions:
REMARK  status: ('A' for Active; 'I' for Inactive)
REMARK    1  A    between atoms: C_2  and  O_3
REMARK    2  A    between atoms: C_2  and  C_4
REMARK    3  A    between atoms: C_4  and  O_5
REMARK    4  A    between atoms: C_6  and  C_7
REMARK    5  A    between atoms: C_7  and  C_9
REMARK    6  A    between atoms: N_11  and  C_12
REMARK    7  A    between atoms: C_12  and  C_13
REMARK                            x       y       z     vdW  Elec       q    Type
REMARK                         _______ _______ _______ _____ _____    ______ ____
ROOT
ATOM      1  C   UNL     1      -1.717  10.486  17.926  0.00  0.00    +0.000 A 
ATOM      2  C   UNL     1      -0.463  10.023  17.808  0.00  0.00    +0.000 A 
ATOM      3  N   UNL     1       0.690  10.563  18.372  0.00  0.00    +0.000 N 
ATOM      4  C   UNL     1       0.575  11.718  19.179  0.00  0.00    +0.000 A 
ATOM      5  C   UNL     1       1.659  12.339  19.820  0.00  0.00    +0.000 A 
ATOM      6  C   UNL     1       1.484  13.473  20.625  0.00  0.00    +0.000 A 
ATOM      7 CL   UNL     1       2.847  14.176  21.408  0.00  0.00    +0.000 Cl
ATOM      8  C   UNL     1       0.227  14.035  20.799  0.00  0.00    +0.000 A 
ATOM      9  C   UNL     1      -0.866  13.457  20.165  0.00  0.00    +0.000 A 
ATOM     10  C   UNL     1      -0.693  12.313  19.367  0.00  0.00    +0.000 A 
ATOM     11  C   UNL     1      -1.893  11.724  18.721  0.00  0.00    +0.000 A 
ATOM     12  O   UNL     1      -2.991  12.256  18.860  0.00  0.00    +0.000 OA
ENDROOT
BRANCH   1  13
ATOM     13  C   UNL     1      -2.814   9.733  17.249  0.00  0.00    +0.000 C 
ATOM     14  O   UNL     1      -3.810   9.375  17.873  0.00  0.00    +0.000 OA
BRANCH  13  16
ATOM     15  C   UNL     1      -3.568  10.048  14.885  0.00  0.00    +0.000 C 
ATOM     16  C   UNL     1      -2.699   9.543  15.772  0.00  0.00    +0.000 C 
BRANCH  15  18
ATOM     17  O   UNL     1      -4.462   9.961  12.716  0.00  0.00    +0.000 OA
ATOM     18  C   UNL     1      -3.450   9.880  13.405  0.00  0.00    +0.000 C 
BRANCH  18  19
ATOM     19  O   UNL     1      -2.236   9.656  12.877  0.00  0.00    +0.000 OA
ATOM     20  H   UNL     1      -1.968   8.733  12.737  0.00  0.00    +0.000 HD
ENDBRANCH  18  19
ENDBRANCH  15  18
BRANCH  15  21
ATOM     21  O   UNL     1      -4.674  10.782  15.296  0.00  0.00    +0.000 OA
ATOM     22  H   UNL     1      -5.391  10.126  15.439  0.00  0.00    +0.000 HD
ENDBRANCH  15  21
ENDBRANCH  13  16
ENDBRANCH   1  13
BRANCH   3  23
ATOM     23  C   UNL     1       2.010   9.914  18.168  0.00  0.00    +0.000 C 
BRANCH  23  24
ATOM     24  C   UNL     1       2.052   8.506  18.736  0.00  0.00    +0.000 A 
ATOM     25  C   UNL     1       1.691   8.264  20.072  0.00  0.00    +0.000 A 
ATOM     26  C   UNL     1       1.794   6.983  20.617  0.00  0.00    +0.000 A 
ATOM     27  C   UNL     1       2.246   5.936  19.825  0.00  0.00    +0.000 A 
ATOM     28  F   UNL     1       2.376   4.714  20.357  0.00  0.00    +0.000 F 
ATOM     29  C   UNL     1       2.566   6.139  18.490  0.00  0.00    +0.000 A 
ATOM     30  C   UNL     1       2.457   7.418  17.941  0.00  0.00    +0.000 A 
ENDBRANCH  23  24
ENDBRANCH   3  23
TORSDOF 7
ENDMDL
MODEL 8
REMARK VINA RESULT:      -7.5      4.663      7.259
REMARK  Name = 
REMARK  7 active torsions:
REMARK  status: ('A' for Active; 'I' for Inactive)
REMARK    1  A    between atoms: C_2  and  O_3
REMARK    2  A    between atoms: C_2  and  C_4
REMARK    3  A    between atoms: C_4  and  O_5
REMARK    4  A    between atoms: C_6  and  C_7
REMARK    5  A    between atoms: C_7  and  C_9
REMARK    6  A    between atoms: N_11  and  C_12
REMARK    7  A    between atoms: C_12  and  C_13
REMARK                            x       y       z     vdW  Elec       q    Type
REMARK                         _______ _______ _______ _____ _____    ______ ____
ROOT
ATOM      1  C   UNL     1       2.076   7.697  18.920  0.00  0.00    +0.000 A 
ATOM      2  C   UNL     1       1.561   8.772  18.305  0.00  0.00    +0.000 A 
ATOM      3  N   UNL     1       0.802   9.789  18.881  0.00  0.00    +0.000 N 
ATOM      4  C   UNL     1       0.534   9.733  20.269  0.00  0.00    +0.000 A 
ATOM      5  C   UNL     1      -0.196  10.708  20.967  0.00  0.00    +0.000 A 
ATOM      6  C   UNL     1      -0.416  10.611  22.348  0.00  0.00    +0.000 A 
ATOM      7 CL   UNL     1      -1.296  11.851  23.156  0.00  0.00    +0.000 Cl
ATOM      8  C   UNL     1       0.066   9.529  23.071  0.00  0.00    +0.000 A 
ATOM      9  C   UNL     1       0.778   8.535  22.408  0.00  0.00    +0.000 A 
ATOM     10  C   UNL     1       1.009   8.638  21.027  0.00  0.00    +0.000 A 
ATOM     11  C   UNL     1       1.786   7.559  20.366  0.00  0.00    +0.000 A 
ATOM     12  O   UNL     1       2.174   6.593  21.017  0.00  0.00    +0.000 OA
ENDROOT
BRANCH   1  13
ATOM     13  C   UNL     1       2.879   6.736  18.107  0.00  0.00    +0.000 C 
ATOM     14  O   UNL     1       2.399   5.666  17.741  0.00  0.00    +0.000 OA
BRANCH  13  16
ATOM     15  C   UNL     1       5.231   6.342  17.353  0.00  0.00    +0.000 C 
ATOM     16  C   UNL     1       4.235   7.183  17.666  0.00  0.00    +0.000 C 
BRANCH  15  18
ATOM     17  O   UNL     1       6.991   7.890  17.217  0.00  0.00    +0.000 OA
ATOM     18  C   UNL     1       6.584   6.778  16.892  0.00  0.00    +0.000 C 
BRANCH  18  19
ATOM     19  O   UNL     1       7.314   5.935  16.145  0.00  0.00    +0.000 OA
ATOM     20  H   UNL     1       6.870   5.487  15.406  0.00  0.00    +0.000 HD
ENDBRANCH  18  19
ENDBRANCH  15  18
BRANCH  15  21
ATOM     21  O   UNL     1       5.068   4.965  17.443  0.00  0.00    +0.000 OA
ATOM     22  H   UNL     1       5.331   4.724  18.358  0.00  0.00    +0.000 HD
ENDBRANCH  15  21
ENDBRANCH  13  16
ENDBRANCH   1  13
BRANCH   3  23
ATOM     23  C   UNL     1       0.322  10.933  18.067  0.00  0.00    +0.000 C 
BRANCH  23  24
ATOM     24  C   UNL     1      -1.183  10.900  17.862  0.00  0.00    +0.000 A 
ATOM     25  C   UNL     1      -1.999  11.909  18.400  0.00  0.00    +0.000 A 
ATOM     26  C   UNL     1      -3.388  11.844  18.272  0.00  0.00    +0.000 A 
ATOM     27  C   UNL     1      -3.965  10.778  17.596  0.00  0.00    +0.000 A 
ATOM     28  F   UNL     1      -5.299  10.700  17.503  0.00  0.00    +0.000 F 
ATOM     29  C   UNL     1      -3.179   9.792  17.017  0.00  0.00    +0.000 A 
ATOM     30  C   UNL     1      -1.790   9.859  17.137  0.00  0.00    +0.000 A 
ENDBRANCH  23  24
ENDBRANCH   3  23
TORSDOF 7
ENDMDL
MODEL 9
REMARK VINA RESULT:      -7.5      4.649      7.224
REMARK  Name = 
REMARK  7 active torsions:
REMARK  status: ('A' for Active; 'I' for Inactive)
REMARK    1  A    between atoms: C_2  and  O_3
REMARK    2  A    between atoms: C_2  and  C_4
REMARK    3  A    between atoms: C_4  and  O_5
REMARK    4  A    between atoms: C_6  and  C_7
REMARK    5  A    between atoms: C_7  and  C_9
REMARK    6  A    between atoms: N_11  and  C_12
REMARK    7  A    between atoms: C_12  and  C_13
REMARK                            x       y       z     vdW  Elec       q    Type
REMARK                         _______ _______ _______ _____ _____    ______ ____
ROOT
ATOM      1  C   UNL     1       2.124   7.627  18.859  0.00  0.00    +0.000 A 
ATOM      2  C   UNL     1       1.605   8.704  18.249  0.00  0.00    +0.000 A 
ATOM      3  N   UNL     1       0.852   9.721  18.832  0.00  0.00    +0.000 N 
ATOM      4  C   UNL     1       0.594   9.664  20.221  0.00  0.00    +0.000 A 
ATOM      5  C   UNL     1      -0.129  10.640  20.926  0.00  0.00    +0.000 A 
ATOM      6  C   UNL     1      -0.339  10.542  22.307  0.00  0.00    +0.000 A 
ATOM      7 CL   UNL     1      -1.212  11.783  23.123  0.00  0.00    +0.000 Cl
ATOM      8  C   UNL     1       0.147   9.459  23.027  0.00  0.00    +0.000 A 
ATOM      9  C   UNL     1       0.853   8.465  22.358  0.00  0.00    +0.000 A 
ATOM     10  C   UNL     1       1.074   8.569  20.975  0.00  0.00    +0.000 A 
ATOM     11  C   UNL     1       1.844   7.489  20.308  0.00  0.00    +0.000 A 
ATOM     12  O   UNL     1       2.237   6.523  20.956  0.00  0.00    +0.000 OA
ENDROOT
BRANCH   1  13
ATOM     13  C   UNL     1       2.920   6.667  18.040  0.00  0.00    +0.000 C 
ATOM     14  O   UNL     1       2.455   5.574  17.723  0.00  0.00    +0.000 OA
BRANCH  13  16
ATOM     15  C   UNL     1       5.339   6.365  17.481  0.00  0.00    +0.000 C 
ATOM     16  C   UNL     1       4.243   7.137  17.532  0.00  0.00    +0.000 C 
BRANCH  15  18
ATOM     17  O   UNL     1       7.300   6.068  16.225  0.00  0.00    +0.000 OA
ATOM     18  C   UNL     1       6.662   6.820  16.955  0.00  0.00    +0.000 C 
BRANCH  18  19
ATOM     19  O   UNL     1       7.103   8.042  17.292  0.00  0.00    +0.000 OA
ATOM     20  H   UNL     1       7.997   8.112  17.664  0.00  0.00    +0.000 HD
ENDBRANCH  18  19
ENDBRANCH  15  18
BRANCH  15  21
ATOM     21  O   UNL     1       5.317   5.051  17.930  0.00  0.00    +0.000 OA
ATOM     22  H   UNL     1       4.565   4.622  17.464  0.00  0.00    +0.000 HD
ENDBRANCH  15  21
ENDBRANCH  13  16
ENDBRANCH   1  13
BRANCH   3  23
ATOM     23  C   UNL     1       0.367  10.866  18.021  0.00  0.00    +0.000 C 
BRANCH  23  24
ATOM     24  C   UNL     1      -1.140  10.838  17.832  0.00  0.00    +0.000 A 
ATOM     25  C   UNL     1      -1.748   9.807  17.096  0.00  0.00    +0.000 A 
ATOM     26  C   UNL     1      -3.124   9.816  16.863  0.00  0.00    +0.000 A 
ATOM     27  C   UNL     1      -3.900  10.848  17.373  0.00  0.00    +0.000 A 
ATOM     28  F   UNL     1      -5.215  10.873  17.121  0.00  0.00    +0.000 F 
ATOM     29  C   UNL     1      -3.330  11.854  18.141  0.00  0.00    +0.000 A 
ATOM     30  C   UNL     1      -1.955  11.843  18.382  0.00  0.00    +0.000 A 
ENDBRANCH  23  24
ENDBRANCH   3  23
TORSDOF 7
ENDMDL
