MODEL 1
REMARK VINA RESULT:      -6.7      0.000      0.000
REMARK  Name = 
REMARK  13 active torsions:
REMARK  status: ('A' for Active; 'I' for Inactive)
REMARK    1  A    between atoms: C_2  and  C_3
REMARK    2  A    between atoms: C_3  and  C_4
REMARK    3  A    between atoms: C_6  and  O_7
REMARK    4  A    between atoms: O_7  and  C_8
REMARK    5  A    between atoms: C_8  and  C_9
REMARK    6  A    between atoms: C_9  and  C_10
REMARK    7  A    between atoms: C_10  and  C_11
REMARK    8  A    between atoms: C_10  and  C_12
REMARK    9  A    between atoms: C_15  and  O_16
REMARK   10  A    between atoms: O_16  and  C_17
REMARK   11  A    between atoms: C_17  and  C_18
REMARK   12  A    between atoms: C_18  and  C_19
REMARK   13  A    between atoms: C_19  and  C_20
REMARK                            x       y       z     vdW  Elec       q    Type
REMARK                         _______ _______ _______ _____ _____    ______ ____
ROOT
ATOM      1  C   UNL     1       5.692   5.935  17.151  0.00  0.00    +0.000 A 
ATOM      2  C   UNL     1       4.606   6.267  17.996  0.00  0.00    +0.000 A 
ATOM      3  C   UNL     1       3.485   5.447  18.094  0.00  0.00    +0.000 A 
ATOM      4  C   UNL     1       3.437   4.274  17.351  0.00  0.00    +0.000 A 
ATOM      5  C   UNL     1       4.500   3.926  16.526  0.00  0.00    +0.000 A 
ATOM      6  C   UNL     1       5.614   4.762  16.377  0.00  0.00    +0.000 A 
ENDROOT
BRANCH   1   7
ATOM      7  C   UNL     1       6.881   6.865  17.118  0.00  0.00    +0.000 C 
BRANCH   7   9
ATOM      8  C   UNL     1       7.978   5.870  19.206  0.00  0.00    +0.000 C 
ATOM      9  C   UNL     1       7.780   6.864  18.327  0.00  0.00    +0.000 C 
ENDBRANCH   7   9
ENDBRANCH   1   7
BRANCH   3  10
ATOM     10  O   UNL     1       2.477   5.872  18.918  0.00  0.00    +0.000 OA
BRANCH  10  11
ATOM     11  C   UNL     1       2.508   5.267  20.213  0.00  0.00    +0.000 C 
BRANCH  11  12
ATOM     12  C   UNL     1       1.138   4.690  20.543  0.00  0.00    +0.000 C 
BRANCH  12  13
ATOM     13  C   UNL     1       1.173   3.158  20.688  0.00  0.00    +0.000 C 
ATOM     14  C   UNL     1       1.088   2.444  19.337  0.00  0.00    +0.000 C 
ATOM     15  C   UNL     1       2.442   2.730  21.424  0.00  0.00    +0.000 C 
ENDBRANCH  12  13
ENDBRANCH  11  12
ENDBRANCH  10  11
ENDBRANCH   3  10
BRANCH   6  16
ATOM     16  O   UNL     1       6.633   4.480  15.482  0.00  0.00    +0.000 OA
BRANCH  16  17
ATOM     17  C   UNL     1       6.242   3.558  14.459  0.00  0.00    +0.000 C 
BRANCH  17  18
ATOM     18  C   UNL     1       5.696   4.222  13.199  0.00  0.00    +0.000 C 
BRANCH  18  19
ATOM     19  C   UNL     1       5.557   3.147  12.114  0.00  0.00    +0.000 C 
ATOM     20  C   UNL     1       4.250   3.222  11.354  0.00  0.00    +0.000 C 
ENDBRANCH  18  19
ENDBRANCH  17  18
ENDBRANCH  16  17
ENDBRANCH   6  16
TORSDOF 10
ENDMDL
MODEL 2
REMARK VINA RESULT:      -6.7      1.175      6.849
REMARK  Name = 
REMARK  13 active torsions:
REMARK  status: ('A' for Active; 'I' for Inactive)
REMARK    1  A    between atoms: C_2  and  C_3
REMARK    2  A    between atoms: C_3  and  C_4
REMARK    3  A    between atoms: C_6  and  O_7
REMARK    4  A    between atoms: O_7  and  C_8
REMARK    5  A    between atoms: C_8  and  C_9
REMARK    6  A    between atoms: C_9  and  C_10
REMARK    7  A    between atoms: C_10  and  C_11
REMARK    8  A    between atoms: C_10  and  C_12
REMARK    9  A    between atoms: C_15  and  O_16
REMARK   10  A    between atoms: O_16  and  C_17
REMARK   11  A    between atoms: C_17  and  C_18
REMARK   12  A    between atoms: C_18  and  C_19
REMARK   13  A    between atoms: C_19  and  C_20
REMARK                            x       y       z     vdW  Elec       q    Type
REMARK                         _______ _______ _______ _____ _____    ______ ____
ROOT
ATOM      1  C   UNL     1       3.610   4.404  17.257  0.00  0.00    +0.000 A 
ATOM      2  C   UNL     1       4.810   4.038  16.603  0.00  0.00    +0.000 A 
ATOM      3  C   UNL     1       5.869   4.934  16.474  0.00  0.00    +0.000 A 
ATOM      4  C   UNL     1       5.743   6.211  17.005  0.00  0.00    +0.000 A 
ATOM      5  C   UNL     1       4.576   6.583  17.661  0.00  0.00    +0.000 A 
ATOM      6  C   UNL     1       3.482   5.713  17.758  0.00  0.00    +0.000 A 
ENDROOT
BRANCH   1   7
ATOM      7  C   UNL     1       2.517   3.368  17.376  0.00  0.00    +0.000 C 
BRANCH   7   9
ATOM      8  C   UNL     1       3.570   1.590  18.886  0.00  0.00    +0.000 C 
ATOM      9  C   UNL     1       2.939   1.976  17.767  0.00  0.00    +0.000 C 
ENDBRANCH   7   9
ENDBRANCH   1   7
BRANCH   3  10
ATOM     10  O   UNL     1       6.976   4.491  15.800  0.00  0.00    +0.000 OA
BRANCH  10  11
ATOM     11  C   UNL     1       6.931   4.754  14.396  0.00  0.00    +0.000 C 
BRANCH  11  12
ATOM     12  C   UNL     1       5.656   4.168  13.804  0.00  0.00    +0.000 C 
BRANCH  12  13
ATOM     13  C   UNL     1       5.932   3.347  12.531  0.00  0.00    +0.000 C 
ATOM     14  C   UNL     1       4.698   3.239  11.631  0.00  0.00    +0.000 C 
ATOM     15  C   UNL     1       7.092   3.962  11.751  0.00  0.00    +0.000 C 
ENDBRANCH  12  13
ENDBRANCH  11  12
ENDBRANCH  10  11
ENDBRANCH   3  10
BRANCH   6  16
ATOM     16  O   UNL     1       2.277   6.103  18.317  0.00  0.00    +0.000 OA
BRANCH  16  17
ATOM     17  C   UNL     1       2.364   6.345  19.726  0.00  0.00    +0.000 C 
BRANCH  17  18
ATOM     18  C   UNL     1       2.520   5.082  20.566  0.00  0.00    +0.000 C 
BRANCH  18  19
ATOM     19  C   UNL     1       1.179   4.335  20.557  0.00  0.00    +0.000 C 
ATOM     20  C   UNL     1       1.240   2.978  21.226  0.00  0.00    +0.000 C 
ENDBRANCH  18  19
ENDBRANCH  17  18
ENDBRANCH  16  17
ENDBRANCH   6  16
TORSDOF 10
ENDMDL
MODEL 3
REMARK VINA RESULT:      -6.7      2.191      4.495
REMARK  Name = 
REMARK  13 active torsions:
REMARK  status: ('A' for Active; 'I' for Inactive)
REMARK    1  A    between atoms: C_2  and  C_3
REMARK    2  A    between atoms: C_3  and  C_4
REMARK    3  A    between atoms: C_6  and  O_7
REMARK    4  A    between atoms: O_7  and  C_8
REMARK    5  A    between atoms: C_8  and  C_9
REMARK    6  A    between atoms: C_9  and  C_10
REMARK    7  A    between atoms: C_10  and  C_11
REMARK    8  A    between atoms: C_10  and  C_12
REMARK    9  A    between atoms: C_15  and  O_16
REMARK   10  A    between atoms: O_16  and  C_17
REMARK   11  A    between atoms: C_17  and  C_18
REMARK   12  A    between atoms: C_18  and  C_19
REMARK   13  A    between atoms: C_19  and  C_20
REMARK                            x       y       z     vdW  Elec       q    Type
REMARK                         _______ _______ _______ _____ _____    ______ ____
ROOT
ATOM      1  C   UNL     1       3.909   6.252  17.379  0.00  0.00    +0.000 A 
ATOM      2  C   UNL     1       2.905   5.262  17.499  0.00  0.00    +0.000 A 
ATOM      3  C   UNL     1       3.149   3.935  17.152  0.00  0.00    +0.000 A 
ATOM      4  C   UNL     1       4.408   3.577  16.687  0.00  0.00    +0.000 A 
ATOM      5  C   UNL     1       5.409   4.535  16.575  0.00  0.00    +0.000 A 
ATOM      6  C   UNL     1       5.168   5.883  16.872  0.00  0.00    +0.000 A 
ENDROOT
BRANCH   1   7
ATOM      7  C   UNL     1       3.572   7.664  17.796  0.00  0.00    +0.000 C 
BRANCH   7   9
ATOM      8  C   UNL     1       1.494   9.155  17.892  0.00  0.00    +0.000 C 
ATOM      9  C   UNL     1       2.117   7.976  18.032  0.00  0.00    +0.000 C 
ENDBRANCH   7   9
ENDBRANCH   1   7
BRANCH   3  10
ATOM     10  O   UNL     1       2.103   3.060  17.279  0.00  0.00    +0.000 OA
BRANCH  10  11
ATOM     11  C   UNL     1       1.206   3.395  18.341  0.00  0.00    +0.000 C 
BRANCH  11  12
ATOM     12  C   UNL     1       1.540   2.569  19.575  0.00  0.00    +0.000 C 
BRANCH  12  13
ATOM     13  C   UNL     1       1.252   3.334  20.880  0.00  0.00    +0.000 C 
ATOM     14  C   UNL     1       1.665   2.540  22.122  0.00  0.00    +0.000 C 
ATOM     15  C   UNL     1       1.967   4.684  20.865  0.00  0.00    +0.000 C 
ENDBRANCH  12  13
ENDBRANCH  11  12
ENDBRANCH  10  11
ENDBRANCH   3  10
BRANCH   6  16
ATOM     16  O   UNL     1       6.124   6.864  16.668  0.00  0.00    +0.000 OA
BRANCH  16  17
ATOM     17  C   UNL     1       7.420   6.496  17.154  0.00  0.00    +0.000 C 
BRANCH  17  18
ATOM     18  C   UNL     1       7.947   7.401  18.263  0.00  0.00    +0.000 C 
BRANCH  18  19
ATOM     19  C   UNL     1       7.940   8.845  17.744  0.00  0.00    +0.000 C 
ATOM     20  C   UNL     1       8.820   9.778  18.549  0.00  0.00    +0.000 C 
ENDBRANCH  18  19
ENDBRANCH  17  18
ENDBRANCH  16  17
ENDBRANCH   6  16
TORSDOF 10
ENDMDL
MODEL 4
REMARK VINA RESULT:      -6.7      1.840      4.874
REMARK  Name = 
REMARK  13 active torsions:
REMARK  status: ('A' for Active; 'I' for Inactive)
REMARK    1  A    between atoms: C_2  and  C_3
REMARK    2  A    between atoms: C_3  and  C_4
REMARK    3  A    between atoms: C_6  and  O_7
REMARK    4  A    between atoms: O_7  and  C_8
REMARK    5  A    between atoms: C_8  and  C_9
REMARK    6  A    between atoms: C_9  and  C_10
REMARK    7  A    between atoms: C_10  and  C_11
REMARK    8  A    between atoms: C_10  and  C_12
REMARK    9  A    between atoms: C_15  and  O_16
REMARK   10  A    between atoms: O_16  and  C_17
REMARK   11  A    between atoms: C_17  and  C_18
REMARK   12  A    between atoms: C_18  and  C_19
REMARK   13  A    between atoms: C_19  and  C_20
REMARK                            x       y       z     vdW  Elec       q    Type
REMARK                         _______ _______ _______ _____ _____    ______ ____
ROOT
ATOM      1  C   UNL     1       5.431   5.046  16.281  0.00  0.00    +0.000 A 
ATOM      2  C   UNL     1       4.734   3.908  16.751  0.00  0.00    +0.000 A 
ATOM      3  C   UNL     1       4.413   3.758  18.098  0.00  0.00    +0.000 A 
ATOM      4  C   UNL     1       4.779   4.752  18.996  0.00  0.00    +0.000 A 
ATOM      5  C   UNL     1       5.453   5.882  18.549  0.00  0.00    +0.000 A 
ATOM      6  C   UNL     1       5.829   6.028  17.207  0.00  0.00    +0.000 A 
ENDROOT
BRANCH   1   7
ATOM      7  C   UNL     1       5.722   5.145  14.802  0.00  0.00    +0.000 C 
BRANCH   7   9
ATOM      8  C   UNL     1       6.152   3.591  12.814  0.00  0.00    +0.000 C 
ATOM      9  C   UNL     1       5.587   3.880  13.996  0.00  0.00    +0.000 C 
ENDBRANCH   7   9
ENDBRANCH   1   7
BRANCH   3  10
ATOM     10  O   UNL     1       3.761   2.607  18.455  0.00  0.00    +0.000 OA
BRANCH  10  11
ATOM     11  C   UNL     1       2.415   2.545  17.979  0.00  0.00    +0.000 C 
BRANCH  11  12
ATOM     12  C   UNL     1       1.464   2.345  19.151  0.00  0.00    +0.000 C 
BRANCH  12  13
ATOM     13  C   UNL     1       1.857   3.201  20.370  0.00  0.00    +0.000 C 
ATOM     14  C   UNL     1       1.193   4.579  20.350  0.00  0.00    +0.000 C 
ATOM     15  C   UNL     1       1.499   2.469  21.662  0.00  0.00    +0.000 C 
ENDBRANCH  12  13
ENDBRANCH  11  12
ENDBRANCH  10  11
ENDBRANCH   3  10
BRANCH   6  16
ATOM     16  O   UNL     1       6.589   7.098  16.766  0.00  0.00    +0.000 OA
BRANCH  16  17
ATOM     17  C   UNL     1       7.597   7.494  17.703  0.00  0.00    +0.000 C 
BRANCH  17  18
ATOM     18  C   UNL     1       7.992   8.964  17.605  0.00  0.00    +0.000 C 
BRANCH  18  19
ATOM     19  C   UNL     1       8.885   9.300  18.807  0.00  0.00    +0.000 C 
ATOM     20  C   UNL     1       9.350  10.740  18.829  0.00  0.00    +0.000 C 
ENDBRANCH  18  19
ENDBRANCH  17  18
ENDBRANCH  16  17
ENDBRANCH   6  16
TORSDOF 10
ENDMDL
MODEL 5
REMARK VINA RESULT:      -6.6      1.845      4.944
REMARK  Name = 
REMARK  13 active torsions:
REMARK  status: ('A' for Active; 'I' for Inactive)
REMARK    1  A    between atoms: C_2  and  C_3
REMARK    2  A    between atoms: C_3  and  C_4
REMARK    3  A    between atoms: C_6  and  O_7
REMARK    4  A    between atoms: O_7  and  C_8
REMARK    5  A    between atoms: C_8  and  C_9
REMARK    6  A    between atoms: C_9  and  C_10
REMARK    7  A    between atoms: C_10  and  C_11
REMARK    8  A    between atoms: C_10  and  C_12
REMARK    9  A    between atoms: C_15  and  O_16
REMARK   10  A    between atoms: O_16  and  C_17
REMARK   11  A    between atoms: C_17  and  C_18
REMARK   12  A    between atoms: C_18  and  C_19
REMARK   13  A    between atoms: C_19  and  C_20
REMARK                            x       y       z     vdW  Elec       q    Type
REMARK                         _______ _______ _______ _____ _____    ______ ____
ROOT
ATOM      1  C   UNL     1       6.088   4.840  16.091  0.00  0.00    +0.000 A 
ATOM      2  C   UNL     1       5.139   3.859  16.467  0.00  0.00    +0.000 A 
ATOM      3  C   UNL     1       4.688   3.750  17.780  0.00  0.00    +0.000 A 
ATOM      4  C   UNL     1       5.176   4.628  18.738  0.00  0.00    +0.000 A 
ATOM      5  C   UNL     1       6.098   5.605  18.385  0.00  0.00    +0.000 A 
ATOM      6  C   UNL     1       6.601   5.699  17.080  0.00  0.00    +0.000 A 
ENDROOT
BRANCH   1   7
ATOM      7  C   UNL     1       6.510   4.908  14.643  0.00  0.00    +0.000 C 
BRANCH   7   9
ATOM      8  C   UNL     1       6.114   3.429  12.592  0.00  0.00    +0.000 C 
ATOM      9  C   UNL     1       5.685   4.124  13.656  0.00  0.00    +0.000 C 
ENDBRANCH   7   9
ENDBRANCH   1   7
BRANCH   3  10
ATOM     10  O   UNL     1       3.790   2.750  18.045  0.00  0.00    +0.000 OA
BRANCH  10  11
ATOM     11  C   UNL     1       2.500   2.978  17.472  0.00  0.00    +0.000 C 
BRANCH  11  12
ATOM     12  C   UNL     1       1.914   4.270  18.025  0.00  0.00    +0.000 C 
BRANCH  12  13
ATOM     13  C   UNL     1       1.226   4.060  19.386  0.00  0.00    +0.000 C 
ATOM     14  C   UNL     1       1.057   2.578  19.729  0.00  0.00    +0.000 C 
ATOM     15  C   UNL     1       2.018   4.761  20.488  0.00  0.00    +0.000 C 
ENDBRANCH  12  13
ENDBRANCH  11  12
ENDBRANCH  10  11
ENDBRANCH   3  10
BRANCH   6  16
ATOM     16  O   UNL     1       7.596   6.599  16.736  0.00  0.00    +0.000 OA
BRANCH  16  17
ATOM     17  C   UNL     1       7.390   7.903  17.293  0.00  0.00    +0.000 C 
BRANCH  17  18
ATOM     18  C   UNL     1       8.432   8.306  18.331  0.00  0.00    +0.000 C 
BRANCH  18  19
ATOM     19  C   UNL     1       8.640   9.823  18.234  0.00  0.00    +0.000 C 
ATOM     20  C   UNL     1       9.370  10.409  19.424  0.00  0.00    +0.000 C 
ENDBRANCH  18  19
ENDBRANCH  17  18
ENDBRANCH  16  17
ENDBRANCH   6  16
TORSDOF 10
ENDMDL
MODEL 6
REMARK VINA RESULT:      -6.6      2.027      5.057
REMARK  Name = 
REMARK  13 active torsions:
REMARK  status: ('A' for Active; 'I' for Inactive)
REMARK    1  A    between atoms: C_2  and  C_3
REMARK    2  A    between atoms: C_3  and  C_4
REMARK    3  A    between atoms: C_6  and  O_7
REMARK    4  A    between atoms: O_7  and  C_8
REMARK    5  A    between atoms: C_8  and  C_9
REMARK    6  A    between atoms: C_9  and  C_10
REMARK    7  A    between atoms: C_10  and  C_11
REMARK    8  A    between atoms: C_10  and  C_12
REMARK    9  A    between atoms: C_15  and  O_16
REMARK   10  A    between atoms: O_16  and  C_17
REMARK   11  A    between atoms: C_17  and  C_18
REMARK   12  A    between atoms: C_18  and  C_19
REMARK   13  A    between atoms: C_19  and  C_20
REMARK                            x       y       z     vdW  Elec       q    Type
REMARK                         _______ _______ _______ _____ _____    ______ ____
ROOT
ATOM      1  C   UNL     1       6.084   4.999  16.422  0.00  0.00    +0.000 A 
ATOM      2  C   UNL     1       5.426   3.853  16.929  0.00  0.00    +0.000 A 
ATOM      3  C   UNL     1       4.838   3.852  18.192  0.00  0.00    +0.000 A 
ATOM      4  C   UNL     1       4.893   5.004  18.965  0.00  0.00    +0.000 A 
ATOM      5  C   UNL     1       5.523   6.142  18.478  0.00  0.00    +0.000 A 
ATOM      6  C   UNL     1       6.163   6.148  17.231  0.00  0.00    +0.000 A 
ENDROOT
BRANCH   1   7
ATOM      7  C   UNL     1       6.677   4.927  15.036  0.00  0.00    +0.000 C 
BRANCH   7   9
ATOM      8  C   UNL     1       5.969   3.769  12.866  0.00  0.00    +0.000 C 
ATOM      9  C   UNL     1       6.258   3.763  14.176  0.00  0.00    +0.000 C 
ENDBRANCH   7   9
ENDBRANCH   1   7
BRANCH   3  10
ATOM     10  O   UNL     1       4.251   2.683  18.600  0.00  0.00    +0.000 OA
BRANCH  10  11
ATOM     11  C   UNL     1       3.103   2.323  17.827  0.00  0.00    +0.000 C 
BRANCH  11  12
ATOM     12  C   UNL     1       1.917   2.082  18.751  0.00  0.00    +0.000 C 
BRANCH  12  13
ATOM     13  C   UNL     1       0.993   3.310  18.841  0.00  0.00    +0.000 C 
ATOM     14  C   UNL     1       1.015   3.952  20.231  0.00  0.00    +0.000 C 
ATOM     15  C   UNL     1       1.386   4.341  17.785  0.00  0.00    +0.000 C 
ENDBRANCH  12  13
ENDBRANCH  11  12
ENDBRANCH  10  11
ENDBRANCH   3  10
BRANCH   6  16
ATOM     16  O   UNL     1       6.883   7.239  16.777  0.00  0.00    +0.000 OA
BRANCH  16  17
ATOM     17  C   UNL     1       7.815   7.739  17.743  0.00  0.00    +0.000 C 
BRANCH  17  18
ATOM     18  C   UNL     1       7.974   9.256  17.725  0.00  0.00    +0.000 C 
BRANCH  18  19
ATOM     19  C   UNL     1       8.947   9.647  18.845  0.00  0.00    +0.000 C 
ATOM     20  C   UNL     1       9.664  10.956  18.591  0.00  0.00    +0.000 C 
ENDBRANCH  18  19
ENDBRANCH  17  18
ENDBRANCH  16  17
ENDBRANCH   6  16
TORSDOF 10
ENDMDL
MODEL 7
REMARK VINA RESULT:      -6.6      1.558      6.907
REMARK  Name = 
REMARK  13 active torsions:
REMARK  status: ('A' for Active; 'I' for Inactive)
REMARK    1  A    between atoms: C_2  and  C_3
REMARK    2  A    between atoms: C_3  and  C_4
REMARK    3  A    between atoms: C_6  and  O_7
REMARK    4  A    between atoms: O_7  and  C_8
REMARK    5  A    between atoms: C_8  and  C_9
REMARK    6  A    between atoms: C_9  and  C_10
REMARK    7  A    between atoms: C_10  and  C_11
REMARK    8  A    between atoms: C_10  and  C_12
REMARK    9  A    between atoms: C_15  and  O_16
REMARK   10  A    between atoms: O_16  and  C_17
REMARK   11  A    between atoms: C_17  and  C_18
REMARK   12  A    between atoms: C_18  and  C_19
REMARK   13  A    between atoms: C_19  and  C_20
REMARK                            x       y       z     vdW  Elec       q    Type
REMARK                         _______ _______ _______ _____ _____    ______ ____
ROOT
ATOM      1  C   UNL     1       4.749   4.687  17.759  0.00  0.00    +0.000 A 
ATOM      2  C   UNL     1       5.368   4.519  16.497  0.00  0.00    +0.000 A 
ATOM      3  C   UNL     1       5.530   5.588  15.619  0.00  0.00    +0.000 A 
ATOM      4  C   UNL     1       5.081   6.847  15.996  0.00  0.00    +0.000 A 
ATOM      5  C   UNL     1       4.483   7.033  17.236  0.00  0.00    +0.000 A 
ATOM      6  C   UNL     1       4.266   5.961  18.112  0.00  0.00    +0.000 A 
ENDROOT
BRANCH   1   7
ATOM      7  C   UNL     1       4.630   3.483  18.662  0.00  0.00    +0.000 C 
BRANCH   7   9
ATOM      8  C   UNL     1       3.575   1.152  18.733  0.00  0.00    +0.000 C 
ATOM      9  C   UNL     1       3.711   2.379  18.208  0.00  0.00    +0.000 C 
ENDBRANCH   7   9
ENDBRANCH   1   7
BRANCH   3  10
ATOM     10  O   UNL     1       6.117   5.314  14.412  0.00  0.00    +0.000 OA
BRANCH  10  11
ATOM     11  C   UNL     1       6.068   3.930  14.057  0.00  0.00    +0.000 C 
BRANCH  11  12
ATOM     12  C   UNL     1       6.204   3.782  12.548  0.00  0.00    +0.000 C 
BRANCH  12  13
ATOM     13  C   UNL     1       5.256   2.709  11.983  0.00  0.00    +0.000 C 
ATOM     14  C   UNL     1       4.202   3.301  11.044  0.00  0.00    +0.000 C 
ATOM     15  C   UNL     1       6.057   1.633  11.252  0.00  0.00    +0.000 C 
ENDBRANCH  12  13
ENDBRANCH  11  12
ENDBRANCH  10  11
ENDBRANCH   3  10
BRANCH   6  16
ATOM     16  O   UNL     1       3.580   6.111  19.305  0.00  0.00    +0.000 OA
BRANCH  16  17
ATOM     17  C   UNL     1       2.250   5.580  19.259  0.00  0.00    +0.000 C 
BRANCH  17  18
ATOM     18  C   UNL     1       1.675   5.224  20.626  0.00  0.00    +0.000 C 
BRANCH  18  19
ATOM     19  C   UNL     1       1.039   3.832  20.528  0.00  0.00    +0.000 C 
ATOM     20  C   UNL     1       1.617   2.835  21.510  0.00  0.00    +0.000 C 
ENDBRANCH  18  19
ENDBRANCH  17  18
ENDBRANCH  16  17
ENDBRANCH   6  16
TORSDOF 10
ENDMDL
MODEL 8
REMARK VINA RESULT:      -6.5      1.278      7.008
REMARK  Name = 
REMARK  13 active torsions:
REMARK  status: ('A' for Active; 'I' for Inactive)
REMARK    1  A    between atoms: C_2  and  C_3
REMARK    2  A    between atoms: C_3  and  C_4
REMARK    3  A    between atoms: C_6  and  O_7
REMARK    4  A    between atoms: O_7  and  C_8
REMARK    5  A    between atoms: C_8  and  C_9
REMARK    6  A    between atoms: C_9  and  C_10
REMARK    7  A    between atoms: C_10  and  C_11
REMARK    8  A    between atoms: C_10  and  C_12
REMARK    9  A    between atoms: C_15  and  O_16
REMARK   10  A    between atoms: O_16  and  C_17
REMARK   11  A    between atoms: C_17  and  C_18
REMARK   12  A    between atoms: C_18  and  C_19
REMARK   13  A    between atoms: C_19  and  C_20
REMARK                            x       y       z     vdW  Elec       q    Type
REMARK                         _______ _______ _______ _____ _____    ______ ____
ROOT
ATOM      1  C   UNL     1       4.097   4.208  17.279  0.00  0.00    +0.000 A 
ATOM      2  C   UNL     1       4.769   4.229  16.034  0.00  0.00    +0.000 A 
ATOM      3  C   UNL     1       6.021   4.823  15.894  0.00  0.00    +0.000 A 
ATOM      4  C   UNL     1       6.623   5.401  17.003  0.00  0.00    +0.000 A 
ATOM      5  C   UNL     1       5.983   5.379  18.237  0.00  0.00    +0.000 A 
ATOM      6  C   UNL     1       4.703   4.830  18.387  0.00  0.00    +0.000 A 
ENDROOT
BRANCH   1   7
ATOM      7  C   UNL     1       2.752   3.524  17.354  0.00  0.00    +0.000 C 
BRANCH   7   9
ATOM      8  C   UNL     1       3.578   1.454  18.612  0.00  0.00    +0.000 C 
ATOM      9  C   UNL     1       2.748   2.074  17.759  0.00  0.00    +0.000 C 
ENDBRANCH   7   9
ENDBRANCH   1   7
BRANCH   3  10
ATOM     10  O   UNL     1       6.573   4.814  14.640  0.00  0.00    +0.000 OA
BRANCH  10  11
ATOM     11  C   UNL     1       6.173   3.692  13.851  0.00  0.00    +0.000 C 
BRANCH  11  12
ATOM     12  C   UNL     1       6.673   3.863  12.423  0.00  0.00    +0.000 C 
BRANCH  12  13
ATOM     13  C   UNL     1       5.819   3.079  11.410  0.00  0.00    +0.000 C 
ATOM     14  C   UNL     1       6.089   1.573  11.465  0.00  0.00    +0.000 C 
ATOM     15  C   UNL     1       4.336   3.351  11.654  0.00  0.00    +0.000 C 
ENDBRANCH  12  13
ENDBRANCH  11  12
ENDBRANCH  10  11
ENDBRANCH   3  10
BRANCH   6  16
ATOM     16  O   UNL     1       4.010   4.891  19.584  0.00  0.00    +0.000 OA
BRANCH  16  17
ATOM     17  C   UNL     1       2.894   5.788  19.541  0.00  0.00    +0.000 C 
BRANCH  17  18
ATOM     18  C   UNL     1       1.880   5.571  20.660  0.00  0.00    +0.000 C 
BRANCH  18  19
ATOM     19  C   UNL     1       1.072   4.308  20.333  0.00  0.00    +0.000 C 
ATOM     20  C   UNL     1       1.403   3.133  21.229  0.00  0.00    +0.000 C 
ENDBRANCH  18  19
ENDBRANCH  17  18
ENDBRANCH  16  17
ENDBRANCH   6  16
TORSDOF 10
ENDMDL
MODEL 9
REMARK VINA RESULT:      -6.5      0.856      1.349
REMARK  Name = 
REMARK  13 active torsions:
REMARK  status: ('A' for Active; 'I' for Inactive)
REMARK    1  A    between atoms: C_2  and  C_3
REMARK    2  A    between atoms: C_3  and  C_4
REMARK    3  A    between atoms: C_6  and  O_7
REMARK    4  A    between atoms: O_7  and  C_8
REMARK    5  A    between atoms: C_8  and  C_9
REMARK    6  A    between atoms: C_9  and  C_10
REMARK    7  A    between atoms: C_10  and  C_11
REMARK    8  A    between atoms: C_10  and  C_12
REMARK    9  A    between atoms: C_15  and  O_16
REMARK   10  A    between atoms: O_16  and  C_17
REMARK   11  A    between atoms: C_17  and  C_18
REMARK   12  A    between atoms: C_18  and  C_19
REMARK   13  A    between atoms: C_19  and  C_20
REMARK                            x       y       z     vdW  Elec       q    Type
REMARK                         _______ _______ _______ _____ _____    ______ ____
ROOT
ATOM      1  C   UNL     1       6.093   5.819  17.764  0.00  0.00    +0.000 A 
ATOM      2  C   UNL     1       4.958   6.282  18.471  0.00  0.00    +0.000 A 
ATOM      3  C   UNL     1       3.707   5.693  18.303  0.00  0.00    +0.000 A 
ATOM      4  C   UNL     1       3.576   4.623  17.428  0.00  0.00    +0.000 A 
ATOM      5  C   UNL     1       4.682   4.147  16.735  0.00  0.00    +0.000 A 
ATOM      6  C   UNL     1       5.938   4.758  16.853  0.00  0.00    +0.000 A 
ENDROOT
BRANCH   1   7
ATOM      7  C   UNL     1       7.418   6.497  18.018  0.00  0.00    +0.000 C 
BRANCH   7   9
ATOM      8  C   UNL     1       8.183   8.940  17.994  0.00  0.00    +0.000 C 
ATOM      9  C   UNL     1       7.605   7.870  17.427  0.00  0.00    +0.000 C 
ENDBRANCH   7   9
ENDBRANCH   1   7
BRANCH   3  10
ATOM     10  O   UNL     1       2.668   6.233  19.014  0.00  0.00    +0.000 OA
BRANCH  10  11
ATOM     11  C   UNL     1       2.511   5.663  20.314  0.00  0.00    +0.000 C 
BRANCH  11  12
ATOM     12  C   UNL     1       1.266   4.786  20.344  0.00  0.00    +0.000 C 
BRANCH  12  13
ATOM     13  C   UNL     1       1.607   3.289  20.232  0.00  0.00    +0.000 C 
ATOM     14  C   UNL     1       1.492   2.565  21.576  0.00  0.00    +0.000 C 
ATOM     15  C   UNL     1       0.700   2.620  19.201  0.00  0.00    +0.000 C 
ENDBRANCH  12  13
ENDBRANCH  11  12
ENDBRANCH  10  11
ENDBRANCH   3  10
BRANCH   6  16
ATOM     16  O   UNL     1       7.025   4.362  16.093  0.00  0.00    +0.000 OA
BRANCH  16  17
ATOM     17  C   UNL     1       6.897   4.705  14.708  0.00  0.00    +0.000 C 
BRANCH  17  18
ATOM     18  C   UNL     1       5.928   3.817  13.935  0.00  0.00    +0.000 C 
BRANCH  18  19
ATOM     19  C   UNL     1       6.471   3.645  12.511  0.00  0.00    +0.000 C 
ATOM     20  C   UNL     1       5.660   2.683  11.669  0.00  0.00    +0.000 C 
ENDBRANCH  18  19
ENDBRANCH  17  18
ENDBRANCH  16  17
ENDBRANCH   6  16
TORSDOF 10
ENDMDL
