MODEL 1
REMARK VINA RESULT:      -8.8      0.000      0.000
REMARK  Name = 
REMARK  6 active torsions:
REMARK  status: ('A' for Active; 'I' for Inactive)
REMARK    1  A    between atoms: C_1  and  C_2
REMARK    2  A    between atoms: C_5  and  C_6
REMARK    3  A    between atoms: C_9  and  N_10
REMARK    4  A    between atoms: N_13  and  C_14
REMARK    5  A    between atoms: C_19  and  C_20
REMARK    6  A    between atoms: C_23  and  C_24
REMARK                            x       y       z     vdW  Elec       q    Type
REMARK                         _______ _______ _______ _____ _____    ______ ____
ROOT
ATOM      1  N   UNL     1       1.734   6.416  20.595  0.00  0.00    +0.000 N 
ATOM      2  C   UNL     1       2.478   5.626  19.781  0.00  0.00    +0.000 A 
ATOM      3  N   UNL     1       3.116   6.044  18.689  0.00  0.00    +0.000 NA
ATOM      4  N   UNL     1       3.654   4.963  18.140  0.00  0.00    +0.000 N 
ATOM      5  C   UNL     1       3.459   3.840  18.886  0.00  0.00    +0.000 A 
ATOM      6  C   UNL     1       2.677   4.227  19.967  0.00  0.00    +0.000 A 
ATOM      7  H   UNL     1       1.176   5.961  21.316  0.00  0.00    +0.000 HD
ENDROOT
BRANCH   1  11
ATOM      8  C   UNL     1       0.960  10.603  20.436  0.00  0.00    +0.000 A 
ATOM      9  C   UNL     1       0.952   9.902  21.649  0.00  0.00    +0.000 A 
ATOM     10  C   UNL     1       1.237   8.529  21.692  0.00  0.00    +0.000 A 
ATOM     11  C   UNL     1       1.540   7.816  20.526  0.00  0.00    +0.000 A 
ATOM     12  C   UNL     1       1.532   8.525  19.316  0.00  0.00    +0.000 A 
ATOM     13  C   UNL     1       1.245   9.893  19.267  0.00  0.00    +0.000 A 
BRANCH   8  18
ATOM     14  C   UNL     1      -0.209  15.183  19.080  0.00  0.00    +0.000 C 
ATOM     15  C   UNL     1       0.207  14.010  19.871  0.00  0.00    +0.000 A 
ATOM     16  N   UNL     1       0.396  14.063  21.194  0.00  0.00    +0.000 NA
ATOM     17  O   UNL     1       0.708  12.742  21.521  0.00  0.00    +0.000 OA
ATOM     18  C   UNL     1       0.674  12.030  20.354  0.00  0.00    +0.000 A 
ATOM     19  N   UNL     1       0.383  12.774  19.307  0.00  0.00    +0.000 NA
ENDBRANCH   8  18
ENDBRANCH   1  11
BRANCH   4  20
ATOM     20  C   UNL     1       4.409   5.093  16.891  0.00  0.00    +0.000 C 
ATOM     21  C   UNL     1       4.816   6.554  16.628  0.00  0.00    +0.000 C 
ATOM     22  C   UNL     1       5.972   7.020  17.508  0.00  0.00    +0.000 C 
ATOM     23  C   UNL     1       7.181   6.094  17.435  0.00  0.00    +0.000 C 
ATOM     24  C   UNL     1       6.820   4.631  17.682  0.00  0.00    +0.000 C 
ATOM     25  C   UNL     1       5.635   4.142  16.826  0.00  0.00    +0.000 C 
BRANCH  25  26
ATOM     26  C   UNL     1       6.051   3.982  15.418  0.00  0.00    +0.000 C 
ATOM     27  N   UNL     1       6.385   3.883  14.314  0.00  0.00    +0.000 NA
ENDBRANCH  25  26
ENDBRANCH   4  20
BRANCH   6  28
ATOM     28  C   UNL     1       2.165   3.382  21.021  0.00  0.00    +0.000 C 
ATOM     29  N   UNL     1       0.843   3.050  20.912  0.00  0.00    +0.000 N 
ATOM     30  O   UNL     1       2.855   2.953  21.940  0.00  0.00    +0.000 OA
ATOM     31  H   UNL     1       0.350   3.162  20.039  0.00  0.00    +0.000 HD
ATOM     32  H   UNL     1       0.483   2.378  21.578  0.00  0.00    +0.000 HD
ENDBRANCH   6  28
TORSDOF 5
ENDMDL
MODEL 2
REMARK VINA RESULT:      -8.7      1.118      1.775
REMARK  Name = 
REMARK  6 active torsions:
REMARK  status: ('A' for Active; 'I' for Inactive)
REMARK    1  A    between atoms: C_1  and  C_2
REMARK    2  A    between atoms: C_5  and  C_6
REMARK    3  A    between atoms: C_9  and  N_10
REMARK    4  A    between atoms: N_13  and  C_14
REMARK    5  A    between atoms: C_19  and  C_20
REMARK    6  A    between atoms: C_23  and  C_24
REMARK                            x       y       z     vdW  Elec       q    Type
REMARK                         _______ _______ _______ _____ _____    ______ ____
ROOT
ATOM      1  N   UNL     1       1.523   6.523  20.699  0.00  0.00    +0.000 N 
ATOM      2  C   UNL     1       2.568   5.782  20.250  0.00  0.00    +0.000 A 
ATOM      3  N   UNL     1       3.619   6.269  19.592  0.00  0.00    +0.000 NA
ATOM      4  N   UNL     1       4.367   5.223  19.266  0.00  0.00    +0.000 N 
ATOM      5  C   UNL     1       3.880   4.052  19.763  0.00  0.00    +0.000 A 
ATOM      6  C   UNL     1       2.690   4.371  20.404  0.00  0.00    +0.000 A 
ATOM      7  H   UNL     1       0.711   6.024  21.059  0.00  0.00    +0.000 HD
ENDROOT
BRANCH   1  11
ATOM      8  C   UNL     1       0.823  10.724  20.603  0.00  0.00    +0.000 A 
ATOM      9  C   UNL     1       0.799  10.004  21.806  0.00  0.00    +0.000 A 
ATOM     10  C   UNL     1       1.060   8.626  21.828  0.00  0.00    +0.000 A 
ATOM     11  C   UNL     1       1.354   7.926  20.651  0.00  0.00    +0.000 A 
ATOM     12  C   UNL     1       1.362   8.654  19.452  0.00  0.00    +0.000 A 
ATOM     13  C   UNL     1       1.099  10.028  19.424  0.00  0.00    +0.000 A 
BRANCH   8  18
ATOM     14  C   UNL     1      -0.376  15.325  19.348  0.00  0.00    +0.000 C 
ATOM     15  C   UNL     1       0.092  14.146  20.099  0.00  0.00    +0.000 A 
ATOM     16  N   UNL     1       0.417  14.199  21.396  0.00  0.00    +0.000 NA
ATOM     17  O   UNL     1       0.732  12.871  21.697  0.00  0.00    +0.000 OA
ATOM     18  C   UNL     1       0.562  12.157  20.544  0.00  0.00    +0.000 A 
ATOM     19  N   UNL     1       0.181  12.904  19.528  0.00  0.00    +0.000 NA
ENDBRANCH   8  18
ENDBRANCH   1  11
BRANCH   4  20
ATOM     20  C   UNL     1       5.599   5.432  18.500  0.00  0.00    +0.000 C 
ATOM     21  C   UNL     1       5.975   4.181  17.686  0.00  0.00    +0.000 C 
ATOM     22  C   UNL     1       5.103   3.989  16.448  0.00  0.00    +0.000 C 
ATOM     23  C   UNL     1       5.057   5.227  15.560  0.00  0.00    +0.000 C 
ATOM     24  C   UNL     1       4.695   6.494  16.330  0.00  0.00    +0.000 C 
ATOM     25  C   UNL     1       5.542   6.698  17.603  0.00  0.00    +0.000 C 
BRANCH  25  26
ATOM     26  C   UNL     1       6.917   7.100  17.244  0.00  0.00    +0.000 C 
ATOM     27  N   UNL     1       7.988   7.413  16.936  0.00  0.00    +0.000 NA
ENDBRANCH  25  26
ENDBRANCH   4  20
BRANCH   6  28
ATOM     28  C   UNL     1       1.776   3.459  21.053  0.00  0.00    +0.000 C 
ATOM     29  N   UNL     1       0.634   3.182  20.355  0.00  0.00    +0.000 N 
ATOM     30  O   UNL     1       2.003   2.932  22.137  0.00  0.00    +0.000 OA
ATOM     31  H   UNL     1       0.567   3.383  19.368  0.00  0.00    +0.000 HD
ATOM     32  H   UNL     1       0.025   2.469  20.737  0.00  0.00    +0.000 HD
ENDBRANCH   6  28
TORSDOF 5
ENDMDL
MODEL 3
REMARK VINA RESULT:      -8.3      1.096      1.146
REMARK  Name = 
REMARK  6 active torsions:
REMARK  status: ('A' for Active; 'I' for Inactive)
REMARK    1  A    between atoms: C_1  and  C_2
REMARK    2  A    between atoms: C_5  and  C_6
REMARK    3  A    between atoms: C_9  and  N_10
REMARK    4  A    between atoms: N_13  and  C_14
REMARK    5  A    between atoms: C_19  and  C_20
REMARK    6  A    between atoms: C_23  and  C_24
REMARK                            x       y       z     vdW  Elec       q    Type
REMARK                         _______ _______ _______ _____ _____    ______ ____
ROOT
ATOM      1  N   UNL     1       1.896   5.669  19.859  0.00  0.00    +0.000 N 
ATOM      2  C   UNL     1       2.718   5.076  18.957  0.00  0.00    +0.000 A 
ATOM      3  N   UNL     1       3.404   5.720  18.014  0.00  0.00    +0.000 NA
ATOM      4  N   UNL     1       4.016   4.785  17.299  0.00  0.00    +0.000 N 
ATOM      5  C   UNL     1       3.819   3.530  17.794  0.00  0.00    +0.000 A 
ATOM      6  C   UNL     1       2.959   3.674  18.875  0.00  0.00    +0.000 A 
ATOM      7  H   UNL     1       1.313   5.065  20.436  0.00  0.00    +0.000 HD
ENDROOT
BRANCH   1  11
ATOM      8  C   UNL     1       0.971   9.784  20.461  0.00  0.00    +0.000 A 
ATOM      9  C   UNL     1       0.813   8.840  21.485  0.00  0.00    +0.000 A 
ATOM     10  C   UNL     1       1.149   7.493  21.284  0.00  0.00    +0.000 A 
ATOM     11  C   UNL     1       1.653   7.049  20.055  0.00  0.00    +0.000 A 
ATOM     12  C   UNL     1       1.794   8.000  19.034  0.00  0.00    +0.000 A 
ATOM     13  C   UNL     1       1.458   9.344  19.228  0.00  0.00    +0.000 A 
BRANCH   8  18
ATOM     14  C   UNL     1      -1.115  14.236  20.554  0.00  0.00    +0.000 C 
ATOM     15  C   UNL     1      -0.159  13.124  20.710  0.00  0.00    +0.000 A 
ATOM     16  N   UNL     1       0.997  13.254  21.370  0.00  0.00    +0.000 NA
ATOM     17  O   UNL     1       1.533  11.965  21.324  0.00  0.00    +0.000 OA
ATOM     18  C   UNL     1       0.638  11.192  20.637  0.00  0.00    +0.000 A 
ATOM     19  N   UNL     1      -0.415  11.868  20.227  0.00  0.00    +0.000 NA
ENDBRANCH   8  18
ENDBRANCH   1  11
BRANCH   4  20
ATOM     20  C   UNL     1       4.839   5.180  16.154  0.00  0.00    +0.000 C 
ATOM     21  C   UNL     1       5.213   6.672  16.218  0.00  0.00    +0.000 C 
ATOM     22  C   UNL     1       6.299   6.973  17.248  0.00  0.00    +0.000 C 
ATOM     23  C   UNL     1       7.539   6.105  17.069  0.00  0.00    +0.000 C 
ATOM     24  C   UNL     1       7.213   4.616  16.992  0.00  0.00    +0.000 C 
ATOM     25  C   UNL     1       6.097   4.287  15.980  0.00  0.00    +0.000 C 
BRANCH  25  26
ATOM     26  C   UNL     1       6.602   4.425  14.599  0.00  0.00    +0.000 C 
ATOM     27  N   UNL     1       6.998   4.506  13.514  0.00  0.00    +0.000 NA
ENDBRANCH  25  26
ENDBRANCH   4  20
BRANCH   6  28
ATOM     28  C   UNL     1       2.416   2.623  19.705  0.00  0.00    +0.000 C 
ATOM     29  N   UNL     1       1.773   1.621  19.032  0.00  0.00    +0.000 N 
ATOM     30  O   UNL     1       2.541   2.592  20.925  0.00  0.00    +0.000 OA
ATOM     31  H   UNL     1       1.904   1.496  18.039  0.00  0.00    +0.000 HD
ATOM     32  H   UNL     1       1.474   0.823  19.577  0.00  0.00    +0.000 HD
ENDBRANCH   6  28
TORSDOF 5
ENDMDL
MODEL 4
REMARK VINA RESULT:      -8.3      0.930      1.285
REMARK  Name = 
REMARK  6 active torsions:
REMARK  status: ('A' for Active; 'I' for Inactive)
REMARK    1  A    between atoms: C_1  and  C_2
REMARK    2  A    between atoms: C_5  and  C_6
REMARK    3  A    between atoms: C_9  and  N_10
REMARK    4  A    between atoms: N_13  and  C_14
REMARK    5  A    between atoms: C_19  and  C_20
REMARK    6  A    between atoms: C_23  and  C_24
REMARK                            x       y       z     vdW  Elec       q    Type
REMARK                         _______ _______ _______ _____ _____    ______ ____
ROOT
ATOM      1  N   UNL     1       2.019   6.250  20.419  0.00  0.00    +0.000 N 
ATOM      2  C   UNL     1       2.819   5.526  19.596  0.00  0.00    +0.000 A 
ATOM      3  N   UNL     1       3.317   5.963  18.440  0.00  0.00    +0.000 NA
ATOM      4  N   UNL     1       3.973   4.939  17.910  0.00  0.00    +0.000 N 
ATOM      5  C   UNL     1       3.994   3.848  18.725  0.00  0.00    +0.000 A 
ATOM      6  C   UNL     1       3.234   4.184  19.838  0.00  0.00    +0.000 A 
ATOM      7  H   UNL     1       1.582   5.765  21.200  0.00  0.00    +0.000 HD
ENDROOT
BRANCH   1  11
ATOM      8  C   UNL     1       1.000  10.366  20.009  0.00  0.00    +0.000 A 
ATOM      9  C   UNL     1       1.466   9.615  18.922  0.00  0.00    +0.000 A 
ATOM     10  C   UNL     1       1.771   8.253  19.062  0.00  0.00    +0.000 A 
ATOM     11  C   UNL     1       1.618   7.600  20.292  0.00  0.00    +0.000 A 
ATOM     12  C   UNL     1       1.163   8.364  21.376  0.00  0.00    +0.000 A 
ATOM     13  C   UNL     1       0.860   9.724  21.242  0.00  0.00    +0.000 A 
BRANCH   8  18
ATOM     14  C   UNL     1       0.962  15.237  19.335  0.00  0.00    +0.000 C 
ATOM     15  C   UNL     1       0.557  13.855  19.651  0.00  0.00    +0.000 A 
ATOM     16  N   UNL     1      -0.708  13.519  19.929  0.00  0.00    +0.000 NA
ATOM     17  O   UNL     1      -0.638  12.134  20.095  0.00  0.00    +0.000 OA
ATOM     18  C   UNL     1       0.668  11.781  19.898  0.00  0.00    +0.000 A 
ATOM     19  N   UNL     1       1.445  12.812  19.636  0.00  0.00    +0.000 NA
ENDBRANCH   8  18
ENDBRANCH   1  11
BRANCH   4  20
ATOM     20  C   UNL     1       4.619   5.099  16.605  0.00  0.00    +0.000 C 
ATOM     21  C   UNL     1       4.994   6.568  16.338  0.00  0.00    +0.000 C 
ATOM     22  C   UNL     1       6.218   7.025  17.127  0.00  0.00    +0.000 C 
ATOM     23  C   UNL     1       7.421   6.109  16.935  0.00  0.00    +0.000 C 
ATOM     24  C   UNL     1       7.091   4.640  17.181  0.00  0.00    +0.000 C 
ATOM     25  C   UNL     1       5.841   4.158  16.418  0.00  0.00    +0.000 C 
BRANCH  25  26
ATOM     26  C   UNL     1       6.138   4.029  14.977  0.00  0.00    +0.000 C 
ATOM     27  N   UNL     1       6.387   3.907  13.853  0.00  0.00    +0.000 NA
ENDBRANCH  25  26
ENDBRANCH   4  20
BRANCH   6  28
ATOM     28  C   UNL     1       2.919   3.341  20.969  0.00  0.00    +0.000 C 
ATOM     29  N   UNL     1       3.705   2.231  21.105  0.00  0.00    +0.000 N 
ATOM     30  O   UNL     1       2.039   3.601  21.782  0.00  0.00    +0.000 OA
ATOM     31  H   UNL     1       4.587   2.156  20.619  0.00  0.00    +0.000 HD
ATOM     32  H   UNL     1       3.576   1.678  21.943  0.00  0.00    +0.000 HD
ENDBRANCH   6  28
TORSDOF 5
ENDMDL
MODEL 5
REMARK VINA RESULT:      -8.3      1.277      2.089
REMARK  Name = 
REMARK  6 active torsions:
REMARK  status: ('A' for Active; 'I' for Inactive)
REMARK    1  A    between atoms: C_1  and  C_2
REMARK    2  A    between atoms: C_5  and  C_6
REMARK    3  A    between atoms: C_9  and  N_10
REMARK    4  A    between atoms: N_13  and  C_14
REMARK    5  A    between atoms: C_19  and  C_20
REMARK    6  A    between atoms: C_23  and  C_24
REMARK                            x       y       z     vdW  Elec       q    Type
REMARK                         _______ _______ _______ _____ _____    ______ ____
ROOT
ATOM      1  N   UNL     1       1.666   6.080  20.395  0.00  0.00    +0.000 N 
ATOM      2  C   UNL     1       2.792   5.456  19.967  0.00  0.00    +0.000 A 
ATOM      3  N   UNL     1       3.819   6.062  19.372  0.00  0.00    +0.000 NA
ATOM      4  N   UNL     1       4.674   5.102  19.044  0.00  0.00    +0.000 N 
ATOM      5  C   UNL     1       4.278   3.872  19.479  0.00  0.00    +0.000 A 
ATOM      6  C   UNL     1       3.039   4.057  20.077  0.00  0.00    +0.000 A 
ATOM      7  H   UNL     1       0.889   5.496  20.701  0.00  0.00    +0.000 HD
ENDROOT
BRANCH   1  11
ATOM      8  C   UNL     1       0.962  10.282  20.331  0.00  0.00    +0.000 A 
ATOM      9  C   UNL     1       1.256   9.570  19.160  0.00  0.00    +0.000 A 
ATOM     10  C   UNL     1       1.457   8.182  19.189  0.00  0.00    +0.000 A 
ATOM     11  C   UNL     1       1.369   7.463  20.388  0.00  0.00    +0.000 A 
ATOM     12  C   UNL     1       1.088   8.187  21.555  0.00  0.00    +0.000 A 
ATOM     13  C   UNL     1       0.890   9.572  21.532  0.00  0.00    +0.000 A 
BRANCH   8  18
ATOM     14  C   UNL     1      -0.253  14.944  19.350  0.00  0.00    +0.000 C 
ATOM     15  C   UNL     1       0.279  13.734  20.003  0.00  0.00    +0.000 A 
ATOM     16  N   UNL     1       0.786  13.747  21.241  0.00  0.00    +0.000 NA
ATOM     17  O   UNL     1       1.097  12.404  21.468  0.00  0.00    +0.000 OA
ATOM     18  C   UNL     1       0.742  11.722  20.337  0.00  0.00    +0.000 A 
ATOM     19  N   UNL     1       0.245  12.504  19.401  0.00  0.00    +0.000 NA
ENDBRANCH   8  18
ENDBRANCH   1  11
BRANCH   4  20
ATOM     20  C   UNL     1       5.910   5.452  18.340  0.00  0.00    +0.000 C 
ATOM     21  C   UNL     1       6.425   4.277  17.488  0.00  0.00    +0.000 C 
ATOM     22  C   UNL     1       5.621   4.069  16.208  0.00  0.00    +0.000 C 
ATOM     23  C   UNL     1       5.500   5.339  15.373  0.00  0.00    +0.000 C 
ATOM     24  C   UNL     1       4.999   6.532  16.182  0.00  0.00    +0.000 C 
ATOM     25  C   UNL     1       5.776   6.749  17.496  0.00  0.00    +0.000 C 
BRANCH  25  26
ATOM     26  C   UNL     1       7.123   7.284  17.213  0.00  0.00    +0.000 C 
ATOM     27  N   UNL     1       8.168   7.722  16.974  0.00  0.00    +0.000 NA
ENDBRANCH  25  26
ENDBRANCH   4  20
BRANCH   6  28
ATOM     28  C   UNL     1       2.188   3.041  20.655  0.00  0.00    +0.000 C 
ATOM     29  N   UNL     1       2.224   2.956  22.019  0.00  0.00    +0.000 N 
ATOM     30  O   UNL     1       1.451   2.319  19.992  0.00  0.00    +0.000 OA
ATOM     31  H   UNL     1       2.601   3.709  22.576  0.00  0.00    +0.000 HD
ATOM     32  H   UNL     1       1.563   2.327  22.456  0.00  0.00    +0.000 HD
ENDBRANCH   6  28
TORSDOF 5
ENDMDL
MODEL 6
REMARK VINA RESULT:      -8.2      1.522      2.078
REMARK  Name = 
REMARK  6 active torsions:
REMARK  status: ('A' for Active; 'I' for Inactive)
REMARK    1  A    between atoms: C_1  and  C_2
REMARK    2  A    between atoms: C_5  and  C_6
REMARK    3  A    between atoms: C_9  and  N_10
REMARK    4  A    between atoms: N_13  and  C_14
REMARK    5  A    between atoms: C_19  and  C_20
REMARK    6  A    between atoms: C_23  and  C_24
REMARK                            x       y       z     vdW  Elec       q    Type
REMARK                         _______ _______ _______ _____ _____    ______ ____
ROOT
ATOM      1  N   UNL     1       1.661   5.802  20.270  0.00  0.00    +0.000 N 
ATOM      2  C   UNL     1       2.766   5.211  19.749  0.00  0.00    +0.000 A 
ATOM      3  N   UNL     1       3.819   5.864  19.259  0.00  0.00    +0.000 NA
ATOM      4  N   UNL     1       4.639   4.936  18.782  0.00  0.00    +0.000 N 
ATOM      5  C   UNL     1       4.194   3.669  19.015  0.00  0.00    +0.000 A 
ATOM      6  C   UNL     1       2.958   3.804  19.634  0.00  0.00    +0.000 A 
ATOM      7  H   UNL     1       0.861   5.207  20.479  0.00  0.00    +0.000 HD
ENDROOT
BRANCH   1  11
ATOM      8  C   UNL     1       0.733   9.910  20.912  0.00  0.00    +0.000 A 
ATOM      9  C   UNL     1       0.498   8.943  21.898  0.00  0.00    +0.000 A 
ATOM     10  C   UNL     1       0.835   7.597  21.686  0.00  0.00    +0.000 A 
ATOM     11  C   UNL     1       1.418   7.179  20.484  0.00  0.00    +0.000 A 
ATOM     12  C   UNL     1       1.636   8.153  19.499  0.00  0.00    +0.000 A 
ATOM     13  C   UNL     1       1.299   9.495  19.704  0.00  0.00    +0.000 A 
BRANCH   8  18
ATOM     14  C   UNL     1      -1.447  14.281  21.480  0.00  0.00    +0.000 C 
ATOM     15  C   UNL     1      -0.434  13.220  21.335  0.00  0.00    +0.000 A 
ATOM     16  N   UNL     1       0.876  13.448  21.487  0.00  0.00    +0.000 NA
ATOM     17  O   UNL     1       1.437  12.178  21.331  0.00  0.00    +0.000 OA
ATOM     18  C   UNL     1       0.401  11.317  21.100  0.00  0.00    +0.000 A 
ATOM     19  N   UNL     1      -0.772  11.917  21.080  0.00  0.00    +0.000 NA
ENDBRANCH   8  18
ENDBRANCH   1  11
BRANCH   4  20
ATOM     20  C   UNL     1       5.892   5.345  18.143  0.00  0.00    +0.000 C 
ATOM     21  C   UNL     1       6.448   4.237  17.232  0.00  0.00    +0.000 C 
ATOM     22  C   UNL     1       5.688   4.108  15.915  0.00  0.00    +0.000 C 
ATOM     23  C   UNL     1       5.578   5.430  15.164  0.00  0.00    +0.000 C 
ATOM     24  C   UNL     1       5.037   6.561  16.035  0.00  0.00    +0.000 C 
ATOM     25  C   UNL     1       5.769   6.695  17.386  0.00  0.00    +0.000 C 
BRANCH  25  26
ATOM     26  C   UNL     1       7.118   7.262  17.183  0.00  0.00    +0.000 C 
ATOM     27  N   UNL     1       8.176   7.713  17.050  0.00  0.00    +0.000 NA
ENDBRANCH  25  26
ENDBRANCH   4  20
BRANCH   6  28
ATOM     28  C   UNL     1       2.065   2.743  20.042  0.00  0.00    +0.000 C 
ATOM     29  N   UNL     1       1.884   1.747  19.123  0.00  0.00    +0.000 N 
ATOM     30  O   UNL     1       1.524   2.699  21.142  0.00  0.00    +0.000 OA
ATOM     31  H   UNL     1       2.523   1.632  18.349  0.00  0.00    +0.000 HD
ATOM     32  H   UNL     1       1.348   0.942  19.419  0.00  0.00    +0.000 HD
ENDBRANCH   6  28
TORSDOF 5
ENDMDL
MODEL 7
REMARK VINA RESULT:      -8.2      4.967      7.083
REMARK  Name = 
REMARK  6 active torsions:
REMARK  status: ('A' for Active; 'I' for Inactive)
REMARK    1  A    between atoms: C_1  and  C_2
REMARK    2  A    between atoms: C_5  and  C_6
REMARK    3  A    between atoms: C_9  and  N_10
REMARK    4  A    between atoms: N_13  and  C_14
REMARK    5  A    between atoms: C_19  and  C_20
REMARK    6  A    between atoms: C_23  and  C_24
REMARK                            x       y       z     vdW  Elec       q    Type
REMARK                         _______ _______ _______ _____ _____    ______ ____
ROOT
ATOM      1  N   UNL     1       7.565   6.967  16.870  0.00  0.00    +0.000 N 
ATOM      2  C   UNL     1       6.580   6.065  17.115  0.00  0.00    +0.000 A 
ATOM      3  N   UNL     1       5.837   6.032  18.219  0.00  0.00    +0.000 NA
ATOM      4  N   UNL     1       5.053   4.967  18.104  0.00  0.00    +0.000 N 
ATOM      5  C   UNL     1       5.200   4.332  16.907  0.00  0.00    +0.000 A 
ATOM      6  C   UNL     1       6.205   5.012  16.232  0.00  0.00    +0.000 A 
ATOM      7  H   UNL     1       8.162   6.807  16.060  0.00  0.00    +0.000 HD
ENDROOT
BRANCH   1  11
ATOM      8  C   UNL     1       8.874  10.360  19.090  0.00  0.00    +0.000 A 
ATOM      9  C   UNL     1       8.181  10.499  17.880  0.00  0.00    +0.000 A 
ATOM     10  C   UNL     1       7.729   9.374  17.173  0.00  0.00    +0.000 A 
ATOM     11  C   UNL     1       7.955   8.078  17.653  0.00  0.00    +0.000 A 
ATOM     12  C   UNL     1       8.661   7.951  18.858  0.00  0.00    +0.000 A 
ATOM     13  C   UNL     1       9.117   9.069  19.565  0.00  0.00    +0.000 A 
BRANCH   8  18
ATOM     14  C   UNL     1      10.703  14.650  20.646  0.00  0.00    +0.000 C 
ATOM     15  C   UNL     1      10.128  13.293  20.612  0.00  0.00    +0.000 A 
ATOM     16  N   UNL     1       9.711  12.658  21.713  0.00  0.00    +0.000 NA
ATOM     17  O   UNL     1       9.192  11.463  21.210  0.00  0.00    +0.000 OA
ATOM     18  C   UNL     1       9.353  11.505  19.853  0.00  0.00    +0.000 A 
ATOM     19  N   UNL     1       9.939  12.610  19.440  0.00  0.00    +0.000 NA
ENDBRANCH   8  18
ENDBRANCH   1  11
BRANCH   4  20
ATOM     20  C   UNL     1       4.125   4.638  19.189  0.00  0.00    +0.000 C 
ATOM     21  C   UNL     1       2.832   5.469  19.094  0.00  0.00    +0.000 C 
ATOM     22  C   UNL     1       1.893   4.990  17.991  0.00  0.00    +0.000 C 
ATOM     23  C   UNL     1       1.581   3.500  18.087  0.00  0.00    +0.000 C 
ATOM     24  C   UNL     1       2.836   2.639  18.191  0.00  0.00    +0.000 C 
ATOM     25  C   UNL     1       3.818   3.119  19.279  0.00  0.00    +0.000 C 
BRANCH  25  26
ATOM     26  C   UNL     1       3.285   2.811  20.621  0.00  0.00    +0.000 C 
ATOM     27  N   UNL     1       2.868   2.596  21.680  0.00  0.00    +0.000 NA
ENDBRANCH  25  26
ENDBRANCH   4  20
BRANCH   6  28
ATOM     28  C   UNL     1       6.756   4.693  14.935  0.00  0.00    +0.000 C 
ATOM     29  N   UNL     1       6.236   3.578  14.338  0.00  0.00    +0.000 N 
ATOM     30  O   UNL     1       7.604   5.378  14.373  0.00  0.00    +0.000 OA
ATOM     31  H   UNL     1       5.365   3.178  14.655  0.00  0.00    +0.000 HD
ATOM     32  H   UNL     1       6.527   3.389  13.388  0.00  0.00    +0.000 HD
ENDBRANCH   6  28
TORSDOF 5
ENDMDL
MODEL 8
REMARK VINA RESULT:      -8.1      2.752      4.620
REMARK  Name = 
REMARK  6 active torsions:
REMARK  status: ('A' for Active; 'I' for Inactive)
REMARK    1  A    between atoms: C_1  and  C_2
REMARK    2  A    between atoms: C_5  and  C_6
REMARK    3  A    between atoms: C_9  and  N_10
REMARK    4  A    between atoms: N_13  and  C_14
REMARK    5  A    between atoms: C_19  and  C_20
REMARK    6  A    between atoms: C_23  and  C_24
REMARK                            x       y       z     vdW  Elec       q    Type
REMARK                         _______ _______ _______ _____ _____    ______ ____
ROOT
ATOM      1  N   UNL     1       2.726   8.564  17.698  0.00  0.00    +0.000 N 
ATOM      2  C   UNL     1       2.917   7.234  17.895  0.00  0.00    +0.000 A 
ATOM      3  N   UNL     1       2.123   6.451  18.624  0.00  0.00    +0.000 NA
ATOM      4  N   UNL     1       2.693   5.253  18.630  0.00  0.00    +0.000 N 
ATOM      5  C   UNL     1       3.811   5.197  17.853  0.00  0.00    +0.000 A 
ATOM      6  C   UNL     1       4.003   6.482  17.363  0.00  0.00    +0.000 A 
ATOM      7  H   UNL     1       3.474   9.087  17.245  0.00  0.00    +0.000 HD
ENDROOT
BRANCH   1  11
ATOM      8  C   UNL     1      -0.538  10.882  19.155  0.00  0.00    +0.000 A 
ATOM      9  C   UNL     1       0.717  10.911  19.778  0.00  0.00    +0.000 A 
ATOM     10  C   UNL     1       1.793  10.166  19.271  0.00  0.00    +0.000 A 
ATOM     11  C   UNL     1       1.647   9.371  18.128  0.00  0.00    +0.000 A 
ATOM     12  C   UNL     1       0.383   9.339  17.521  0.00  0.00    +0.000 A 
ATOM     13  C   UNL     1      -0.693  10.078  18.023  0.00  0.00    +0.000 A 
BRANCH   8  18
ATOM     14  C   UNL     1      -3.632  13.827  21.590  0.00  0.00    +0.000 C 
ATOM     15  C   UNL     1      -3.068  12.862  20.629  0.00  0.00    +0.000 A 
ATOM     16  N   UNL     1      -3.762  12.394  19.585  0.00  0.00    +0.000 NA
ATOM     17  O   UNL     1      -2.834  11.582  18.928  0.00  0.00    +0.000 OA
ATOM     18  C   UNL     1      -1.675  11.648  19.650  0.00  0.00    +0.000 A 
ATOM     19  N   UNL     1      -1.777  12.415  20.716  0.00  0.00    +0.000 NA
ENDBRANCH   8  18
ENDBRANCH   1  11
BRANCH   4  20
ATOM     20  C   UNL     1       2.064   4.164  19.382  0.00  0.00    +0.000 C 
ATOM     21  C   UNL     1       1.445   3.115  18.441  0.00  0.00    +0.000 C 
ATOM     22  C   UNL     1       2.485   2.213  17.783  0.00  0.00    +0.000 C 
ATOM     23  C   UNL     1       3.422   1.558  18.792  0.00  0.00    +0.000 C 
ATOM     24  C   UNL     1       4.053   2.563  19.752  0.00  0.00    +0.000 C 
ATOM     25  C   UNL     1       3.027   3.507  20.409  0.00  0.00    +0.000 C 
BRANCH  25  26
ATOM     26  C   UNL     1       2.233   2.778  21.419  0.00  0.00    +0.000 C 
ATOM     27  N   UNL     1       1.633   2.204  22.226  0.00  0.00    +0.000 NA
ENDBRANCH  25  26
ENDBRANCH   4  20
BRANCH   6  28
ATOM     28  C   UNL     1       5.085   6.943  16.523  0.00  0.00    +0.000 C 
ATOM     29  N   UNL     1       6.244   7.250  17.180  0.00  0.00    +0.000 N 
ATOM     30  O   UNL     1       5.005   7.028  15.302  0.00  0.00    +0.000 OA
ATOM     31  H   UNL     1       6.408   6.927  18.123  0.00  0.00    +0.000 HD
ATOM     32  H   UNL     1       7.049   7.476  16.610  0.00  0.00    +0.000 HD
ENDBRANCH   6  28
TORSDOF 5
ENDMDL
MODEL 9
REMARK VINA RESULT:      -8.1      2.549      4.444
REMARK  Name = 
REMARK  6 active torsions:
REMARK  status: ('A' for Active; 'I' for Inactive)
REMARK    1  A    between atoms: C_1  and  C_2
REMARK    2  A    between atoms: C_5  and  C_6
REMARK    3  A    between atoms: C_9  and  N_10
REMARK    4  A    between atoms: N_13  and  C_14
REMARK    5  A    between atoms: C_19  and  C_20
REMARK    6  A    between atoms: C_23  and  C_24
REMARK                            x       y       z     vdW  Elec       q    Type
REMARK                         _______ _______ _______ _____ _____    ______ ____
ROOT
ATOM      1  N   UNL     1       3.201   8.000  17.574  0.00  0.00    +0.000 N 
ATOM      2  C   UNL     1       3.681   6.758  17.837  0.00  0.00    +0.000 A 
ATOM      3  N   UNL     1       3.415   6.058  18.938  0.00  0.00    +0.000 NA
ATOM      4  N   UNL     1       4.130   4.943  18.847  0.00  0.00    +0.000 N 
ATOM      5  C   UNL     1       4.806   4.846  17.668  0.00  0.00    +0.000 A 
ATOM      6  C   UNL     1       4.552   6.025  16.980  0.00  0.00    +0.000 A 
ATOM      7  H   UNL     1       3.586   8.496  16.771  0.00  0.00    +0.000 HD
ENDROOT
BRANCH   1  11
ATOM      8  C   UNL     1       0.586  10.440  19.889  0.00  0.00    +0.000 A 
ATOM      9  C   UNL     1       1.098  10.876  18.660  0.00  0.00    +0.000 A 
ATOM     10  C   UNL     1       1.935  10.052  17.892  0.00  0.00    +0.000 A 
ATOM     11  C   UNL     1       2.284   8.768  18.329  0.00  0.00    +0.000 A 
ATOM     12  C   UNL     1       1.777   8.347  19.567  0.00  0.00    +0.000 A 
ATOM     13  C   UNL     1       0.944   9.166  20.337  0.00  0.00    +0.000 A 
BRANCH   8  18
ATOM     14  C   UNL     1      -1.503  13.208  23.375  0.00  0.00    +0.000 C 
ATOM     15  C   UNL     1      -1.268  12.440  22.139  0.00  0.00    +0.000 A 
ATOM     16  N   UNL     1      -2.135  12.426  21.121  0.00  0.00    +0.000 NA
ATOM     17  O   UNL     1      -1.486  11.643  20.163  0.00  0.00    +0.000 OA
ATOM     18  C   UNL     1      -0.290  11.266  20.710  0.00  0.00    +0.000 A 
ATOM     19  N   UNL     1      -0.118  11.723  21.933  0.00  0.00    +0.000 NA
ENDBRANCH   8  18
ENDBRANCH   1  11
BRANCH   4  20
ATOM     20  C   UNL     1       4.073   3.964  19.935  0.00  0.00    +0.000 C 
ATOM     21  C   UNL     1       2.699   3.971  20.628  0.00  0.00    +0.000 C 
ATOM     22  C   UNL     1       1.610   3.289  19.805  0.00  0.00    +0.000 C 
ATOM     23  C   UNL     1       1.996   1.879  19.368  0.00  0.00    +0.000 C 
ATOM     24  C   UNL     1       3.359   1.825  18.682  0.00  0.00    +0.000 C 
ATOM     25  C   UNL     1       4.472   2.534  19.480  0.00  0.00    +0.000 C 
BRANCH  25  26
ATOM     26  C   UNL     1       4.843   1.733  20.664  0.00  0.00    +0.000 C 
ATOM     27  N   UNL     1       5.156   1.099  21.580  0.00  0.00    +0.000 NA
ENDBRANCH  25  26
ENDBRANCH   4  20
BRANCH   6  28
ATOM     28  C   UNL     1       5.082   6.418  15.694  0.00  0.00    +0.000 C 
ATOM     29  N   UNL     1       6.055   5.600  15.190  0.00  0.00    +0.000 N 
ATOM     30  O   UNL     1       4.679   7.391  15.065  0.00  0.00    +0.000 OA
ATOM     31  H   UNL     1       6.192   4.669  15.556  0.00  0.00    +0.000 HD
ATOM     32  H   UNL     1       6.370   5.791  14.248  0.00  0.00    +0.000 HD
ENDBRANCH   6  28
TORSDOF 5
ENDMDL
