MODEL 1
REMARK VINA RESULT:      -5.7      0.000      0.000
REMARK  Name = 
REMARK  8 active torsions:
REMARK  status: ('A' for Active; 'I' for Inactive)
REMARK    1  A    between atoms: N_1  and  C_2
REMARK    2  A    between atoms: C_2  and  C_3
REMARK    3  A    between atoms: C_3  and  S_4
REMARK    4  A    between atoms: S_4  and  C_5
REMARK    5  A    between atoms: C_5  and  C_6
REMARK    6  A    between atoms: C_6  and  C_7
REMARK    7  A    between atoms: C_7  and  S_8
REMARK    8  A    between atoms: S_8  and  C_9
REMARK                            x       y       z     vdW  Elec       q    Type
REMARK                         _______ _______ _______ _____ _____    ______ ____
ROOT
ATOM      1  S   UNL     1       3.318   5.689  18.159  0.00  0.00    +0.000 S 
ENDROOT
BRANCH   1   2
ATOM      2  C   UNL     1       5.055   5.398  18.291  0.00  0.00    +0.000 A 
ATOM      3  N   UNL     1       5.705   5.553  19.474  0.00  0.00    +0.000 NA
ATOM      4  C   UNL     1       7.035   5.332  19.496  0.00  0.00    +0.000 A 
ATOM      5  N   UNL     1       7.837   4.964  18.477  0.00  0.00    +0.000 NA
ATOM      6  C   UNL     1       7.134   4.823  17.344  0.00  0.00    +0.000 A 
ATOM      7  N   UNL     1       7.622   4.463  16.121  0.00  0.00    +0.000 N 
ATOM      8  C   UNL     1       6.571   4.438  15.249  0.00  0.00    +0.000 A 
ATOM      9  N   UNL     1       5.439   4.763  15.837  0.00  0.00    +0.000 NA
ATOM     10  C   UNL     1       5.775   5.010  17.156  0.00  0.00    +0.000 A 
ATOM     11  H   UNL     1       8.589   4.259  15.915  0.00  0.00    +0.000 HD
ENDBRANCH   1   2
BRANCH   1  12
ATOM     12  C   UNL     1       2.815   5.589  19.908  0.00  0.00    +0.000 C 
BRANCH  12  13
ATOM     13  C   UNL     1       1.426   4.967  20.060  0.00  0.00    +0.000 C 
BRANCH  13  14
ATOM     14  C   UNL     1       1.453   3.485  20.434  0.00  0.00    +0.000 C 
BRANCH  14  15
ATOM     15  S   UNL     1       1.207   2.487  18.930  0.00  0.00    +0.000 S 
BRANCH  15  16
ATOM     16  C   UNL     1       2.931   1.922  18.687  0.00  0.00    +0.000 C 
BRANCH  16  17
ATOM     17  C   UNL     1       3.751   2.099  19.972  0.00  0.00    +0.000 C 
BRANCH  17  18
ATOM     18  N   UNL     1       5.179   2.283  19.705  0.00  0.00    +0.000 NA
ATOM     19  H   UNL     1       5.338   2.272  18.697  0.00  0.00    +0.000 HD
ATOM     20  H   UNL     1       5.674   1.470  20.080  0.00  0.00    +0.000 HD
ENDBRANCH  17  18
ENDBRANCH  16  17
ENDBRANCH  15  16
ENDBRANCH  14  15
ENDBRANCH  13  14
ENDBRANCH  12  13
ENDBRANCH   1  12
TORSDOF 8
ENDMDL
MODEL 2
REMARK VINA RESULT:      -5.5      1.903      3.138
REMARK  Name = 
REMARK  8 active torsions:
REMARK  status: ('A' for Active; 'I' for Inactive)
REMARK    1  A    between atoms: N_1  and  C_2
REMARK    2  A    between atoms: C_2  and  C_3
REMARK    3  A    between atoms: C_3  and  S_4
REMARK    4  A    between atoms: S_4  and  C_5
REMARK    5  A    between atoms: C_5  and  C_6
REMARK    6  A    between atoms: C_6  and  C_7
REMARK    7  A    between atoms: C_7  and  S_8
REMARK    8  A    between atoms: S_8  and  C_9
REMARK                            x       y       z     vdW  Elec       q    Type
REMARK                         _______ _______ _______ _____ _____    ______ ____
ROOT
ATOM      1  S   UNL     1       4.018   3.152  17.840  0.00  0.00    +0.000 S 
ENDROOT
BRANCH   1   2
ATOM      2  C   UNL     1       5.211   4.140  16.992  0.00  0.00    +0.000 A 
ATOM      3  N   UNL     1       5.205   4.242  15.638  0.00  0.00    +0.000 NA
ATOM      4  C   UNL     1       6.157   5.000  15.058  0.00  0.00    +0.000 A 
ATOM      5  N   UNL     1       7.147   5.695  15.652  0.00  0.00    +0.000 NA
ATOM      6  C   UNL     1       7.094   5.557  16.984  0.00  0.00    +0.000 A 
ATOM      7  N   UNL     1       7.939   6.119  17.897  0.00  0.00    +0.000 N 
ATOM      8  C   UNL     1       7.527   5.723  19.138  0.00  0.00    +0.000 A 
ATOM      9  N   UNL     1       6.472   4.939  19.077  0.00  0.00    +0.000 NA
ATOM     10  C   UNL     1       6.186   4.823  17.729  0.00  0.00    +0.000 A 
ATOM     11  H   UNL     1       8.724   6.714  17.677  0.00  0.00    +0.000 HD
ENDBRANCH   1   2
BRANCH   1  12
ATOM     12  C   UNL     1       2.473   4.008  17.386  0.00  0.00    +0.000 C 
BRANCH  12  13
ATOM     13  C   UNL     1       2.353   5.363  18.086  0.00  0.00    +0.000 C 
BRANCH  13  14
ATOM     14  C   UNL     1       3.002   5.399  19.470  0.00  0.00    +0.000 C 
BRANCH  14  15
ATOM     15  S   UNL     1       1.698   5.327  20.740  0.00  0.00    +0.000 S 
BRANCH  15  16
ATOM     16  C   UNL     1       2.218   3.788  21.583  0.00  0.00    +0.000 C 
BRANCH  16  17
ATOM     17  C   UNL     1       1.540   2.563  20.954  0.00  0.00    +0.000 C 
BRANCH  17  18
ATOM     18  N   UNL     1       0.403   2.925  20.105  0.00  0.00    +0.000 NA
ATOM     19  H   UNL     1      -0.446   2.503  20.481  0.00  0.00    +0.000 HD
ATOM     20  H   UNL     1       0.551   2.497  19.187  0.00  0.00    +0.000 HD
ENDBRANCH  17  18
ENDBRANCH  16  17
ENDBRANCH  15  16
ENDBRANCH  14  15
ENDBRANCH  13  14
ENDBRANCH  12  13
ENDBRANCH   1  12
TORSDOF 8
ENDMDL
MODEL 3
REMARK VINA RESULT:      -5.5      1.599      2.263
REMARK  Name = 
REMARK  8 active torsions:
REMARK  status: ('A' for Active; 'I' for Inactive)
REMARK    1  A    between atoms: N_1  and  C_2
REMARK    2  A    between atoms: C_2  and  C_3
REMARK    3  A    between atoms: C_3  and  S_4
REMARK    4  A    between atoms: S_4  and  C_5
REMARK    5  A    between atoms: C_5  and  C_6
REMARK    6  A    between atoms: C_6  and  C_7
REMARK    7  A    between atoms: C_7  and  S_8
REMARK    8  A    between atoms: S_8  and  C_9
REMARK                            x       y       z     vdW  Elec       q    Type
REMARK                         _______ _______ _______ _____ _____    ______ ____
ROOT
ATOM      1  S   UNL     1       3.988   2.751  17.989  0.00  0.00    +0.000 S 
ENDROOT
BRANCH   1   2
ATOM      2  C   UNL     1       5.250   3.984  18.073  0.00  0.00    +0.000 A 
ATOM      3  N   UNL     1       5.605   4.547  19.256  0.00  0.00    +0.000 NA
ATOM      4  C   UNL     1       6.564   5.495  19.242  0.00  0.00    +0.000 A 
ATOM      5  N   UNL     1       7.243   5.979  18.183  0.00  0.00    +0.000 NA
ATOM      6  C   UNL     1       6.849   5.380  17.050  0.00  0.00    +0.000 A 
ATOM      7  N   UNL     1       7.321   5.623  15.792  0.00  0.00    +0.000 N 
ATOM      8  C   UNL     1       6.652   4.796  14.934  0.00  0.00    +0.000 A 
ATOM      9  N   UNL     1       5.778   4.040  15.564  0.00  0.00    +0.000 NA
ATOM     10  C   UNL     1       5.887   4.395  16.897  0.00  0.00    +0.000 A 
ATOM     11  H   UNL     1       8.033   6.297  15.556  0.00  0.00    +0.000 HD
ENDBRANCH   1   2
BRANCH   1  12
ATOM     12  C   UNL     1       2.581   3.736  17.377  0.00  0.00    +0.000 C 
BRANCH  12  13
ATOM     13  C   UNL     1       1.308   3.458  18.179  0.00  0.00    +0.000 C 
BRANCH  13  14
ATOM     14  C   UNL     1       1.409   2.232  19.087  0.00  0.00    +0.000 C 
BRANCH  14  15
ATOM     15  S   UNL     1       1.332   2.771  20.825  0.00  0.00    +0.000 S 
BRANCH  15  16
ATOM     16  C   UNL     1       1.149   4.571  20.549  0.00  0.00    +0.000 C 
BRANCH  16  17
ATOM     17  C   UNL     1       2.410   5.324  20.994  0.00  0.00    +0.000 C 
BRANCH  17  18
ATOM     18  N   UNL     1       2.975   6.154  19.927  0.00  0.00    +0.000 NA
ATOM     19  H   UNL     1       3.353   7.011  20.332  0.00  0.00    +0.000 HD
ATOM     20  H   UNL     1       2.206   6.443  19.317  0.00  0.00    +0.000 HD
ENDBRANCH  17  18
ENDBRANCH  16  17
ENDBRANCH  15  16
ENDBRANCH  14  15
ENDBRANCH  13  14
ENDBRANCH  12  13
ENDBRANCH   1  12
TORSDOF 8
ENDMDL
MODEL 4
REMARK VINA RESULT:      -5.4      1.758      2.108
REMARK  Name = 
REMARK  8 active torsions:
REMARK  status: ('A' for Active; 'I' for Inactive)
REMARK    1  A    between atoms: N_1  and  C_2
REMARK    2  A    between atoms: C_2  and  C_3
REMARK    3  A    between atoms: C_3  and  S_4
REMARK    4  A    between atoms: S_4  and  C_5
REMARK    5  A    between atoms: C_5  and  C_6
REMARK    6  A    between atoms: C_6  and  C_7
REMARK    7  A    between atoms: C_7  and  S_8
REMARK    8  A    between atoms: S_8  and  C_9
REMARK                            x       y       z     vdW  Elec       q    Type
REMARK                         _______ _______ _______ _____ _____    ______ ____
ROOT
ATOM      1  S   UNL     1       4.419   4.123  18.308  0.00  0.00    +0.000 S 
ENDROOT
BRANCH   1   2
ATOM      2  C   UNL     1       5.713   5.089  17.592  0.00  0.00    +0.000 A 
ATOM      3  N   UNL     1       6.304   6.096  18.285  0.00  0.00    +0.000 NA
ATOM      4  C   UNL     1       7.273   6.803  17.668  0.00  0.00    +0.000 A 
ATOM      5  N   UNL     1       7.754   6.644  16.419  0.00  0.00    +0.000 NA
ATOM      6  C   UNL     1       7.134   5.634  15.793  0.00  0.00    +0.000 A 
ATOM      7  N   UNL     1       7.367   5.197  14.521  0.00  0.00    +0.000 N 
ATOM      8  C   UNL     1       6.522   4.150  14.284  0.00  0.00    +0.000 A 
ATOM      9  N   UNL     1       5.759   3.891  15.325  0.00  0.00    +0.000 NA
ATOM     10  C   UNL     1       6.129   4.817  16.284  0.00  0.00    +0.000 A 
ATOM     11  H   UNL     1       8.043   5.589  13.884  0.00  0.00    +0.000 HD
ENDBRANCH   1   2
BRANCH   1  12
ATOM     12  C   UNL     1       2.969   5.169  17.953  0.00  0.00    +0.000 C 
BRANCH  12  13
ATOM     13  C   UNL     1       1.696   4.334  17.799  0.00  0.00    +0.000 C 
BRANCH  13  14
ATOM     14  C   UNL     1       1.945   2.826  17.817  0.00  0.00    +0.000 C 
BRANCH  14  15
ATOM     15  S   UNL     1       1.363   2.146  19.403  0.00  0.00    +0.000 S 
BRANCH  15  16
ATOM     16  C   UNL     1       1.074   3.720  20.290  0.00  0.00    +0.000 C 
BRANCH  16  17
ATOM     17  C   UNL     1       2.080   3.896  21.435  0.00  0.00    +0.000 C 
BRANCH  17  18
ATOM     18  N   UNL     1       2.572   2.617  21.952  0.00  0.00    +0.000 NA
ATOM     19  H   UNL     1       1.949   2.290  22.691  0.00  0.00    +0.000 HD
ATOM     20  H   UNL     1       3.477   2.789  22.399  0.00  0.00    +0.000 HD
ENDBRANCH  17  18
ENDBRANCH  16  17
ENDBRANCH  15  16
ENDBRANCH  14  15
ENDBRANCH  13  14
ENDBRANCH  12  13
ENDBRANCH   1  12
TORSDOF 8
ENDMDL
MODEL 5
REMARK VINA RESULT:      -5.3      1.838      3.251
REMARK  Name = 
REMARK  8 active torsions:
REMARK  status: ('A' for Active; 'I' for Inactive)
REMARK    1  A    between atoms: N_1  and  C_2
REMARK    2  A    between atoms: C_2  and  C_3
REMARK    3  A    between atoms: C_3  and  S_4
REMARK    4  A    between atoms: S_4  and  C_5
REMARK    5  A    between atoms: C_5  and  C_6
REMARK    6  A    between atoms: C_6  and  C_7
REMARK    7  A    between atoms: C_7  and  S_8
REMARK    8  A    between atoms: S_8  and  C_9
REMARK                            x       y       z     vdW  Elec       q    Type
REMARK                         _______ _______ _______ _____ _____    ______ ____
ROOT
ATOM      1  S   UNL     1       4.462   3.709  18.294  0.00  0.00    +0.000 S 
ENDROOT
BRANCH   1   2
ATOM      2  C   UNL     1       5.490   4.287  16.980  0.00  0.00    +0.000 A 
ATOM      3  N   UNL     1       5.509   3.661  15.775  0.00  0.00    +0.000 NA
ATOM      4  C   UNL     1       6.332   4.147  14.824  0.00  0.00    +0.000 A 
ATOM      5  N   UNL     1       7.165   5.204  14.902  0.00  0.00    +0.000 NA
ATOM      6  C   UNL     1       7.094   5.779  16.111  0.00  0.00    +0.000 A 
ATOM      7  N   UNL     1       7.798   6.867  16.539  0.00  0.00    +0.000 N 
ATOM      8  C   UNL     1       7.422   7.120  17.828  0.00  0.00    +0.000 A 
ATOM      9  N   UNL     1       6.523   6.258  18.254  0.00  0.00    +0.000 NA
ATOM     10  C   UNL     1       6.305   5.405  17.187  0.00  0.00    +0.000 A 
ATOM     11  H   UNL     1       8.472   7.379  15.990  0.00  0.00    +0.000 HD
ENDBRANCH   1   2
BRANCH   1  12
ATOM     12  C   UNL     1       2.991   3.159  17.368  0.00  0.00    +0.000 C 
BRANCH  12  13
ATOM     13  C   UNL     1       2.098   2.252  18.217  0.00  0.00    +0.000 C 
BRANCH  13  14
ATOM     14  C   UNL     1       1.101   3.014  19.089  0.00  0.00    +0.000 C 
BRANCH  14  15
ATOM     15  S   UNL     1       1.476   2.692  20.842  0.00  0.00    +0.000 S 
BRANCH  15  16
ATOM     16  C   UNL     1       2.260   4.292  21.257  0.00  0.00    +0.000 C 
BRANCH  16  17
ATOM     17  C   UNL     1       1.642   5.433  20.438  0.00  0.00    +0.000 C 
BRANCH  17  18
ATOM     18  N   UNL     1       2.509   6.612  20.373  0.00  0.00    +0.000 NA
ATOM     19  H   UNL     1       2.335   7.203  21.186  0.00  0.00    +0.000 HD
ATOM     20  H   UNL     1       2.227   7.162  19.556  0.00  0.00    +0.000 HD
ENDBRANCH  17  18
ENDBRANCH  16  17
ENDBRANCH  15  16
ENDBRANCH  14  15
ENDBRANCH  13  14
ENDBRANCH  12  13
ENDBRANCH   1  12
TORSDOF 8
ENDMDL
MODEL 6
REMARK VINA RESULT:      -5.3      1.467      2.184
REMARK  Name = 
REMARK  8 active torsions:
REMARK  status: ('A' for Active; 'I' for Inactive)
REMARK    1  A    between atoms: N_1  and  C_2
REMARK    2  A    between atoms: C_2  and  C_3
REMARK    3  A    between atoms: C_3  and  S_4
REMARK    4  A    between atoms: S_4  and  C_5
REMARK    5  A    between atoms: C_5  and  C_6
REMARK    6  A    between atoms: C_6  and  C_7
REMARK    7  A    between atoms: C_7  and  S_8
REMARK    8  A    between atoms: S_8  and  C_9
REMARK                            x       y       z     vdW  Elec       q    Type
REMARK                         _______ _______ _______ _____ _____    ______ ____
ROOT
ATOM      1  S   UNL     1       3.119   5.618  17.858  0.00  0.00    +0.000 S 
ENDROOT
BRANCH   1   2
ATOM      2  C   UNL     1       4.638   5.195  17.062  0.00  0.00    +0.000 A 
ATOM      3  N   UNL     1       4.790   4.006  16.424  0.00  0.00    +0.000 NA
ATOM      4  C   UNL     1       5.984   3.743  15.854  0.00  0.00    +0.000 A 
ATOM      5  N   UNL     1       7.084   4.521  15.825  0.00  0.00    +0.000 NA
ATOM      6  C   UNL     1       6.866   5.679  16.466  0.00  0.00    +0.000 A 
ATOM      7  N   UNL     1       7.758   6.699  16.633  0.00  0.00    +0.000 N 
ATOM      8  C   UNL     1       7.128   7.685  17.339  0.00  0.00    +0.000 A 
ATOM      9  N   UNL     1       5.889   7.358  17.638  0.00  0.00    +0.000 NA
ATOM     10  C   UNL     1       5.706   6.098  17.097  0.00  0.00    +0.000 A 
ATOM     11  H   UNL     1       8.707   6.705  16.293  0.00  0.00    +0.000 HD
ENDBRANCH   1   2
BRANCH   1  12
ATOM     12  C   UNL     1       3.613   5.535  19.611  0.00  0.00    +0.000 C 
BRANCH  12  13
ATOM     13  C   UNL     1       2.429   5.179  20.513  0.00  0.00    +0.000 C 
BRANCH  13  14
ATOM     14  C   UNL     1       1.409   4.253  19.851  0.00  0.00    +0.000 C 
BRANCH  14  15
ATOM     15  S   UNL     1       1.862   2.524  20.198  0.00  0.00    +0.000 S 
BRANCH  15  16
ATOM     16  C   UNL     1       2.313   2.009  18.501  0.00  0.00    +0.000 C 
BRANCH  16  17
ATOM     17  C   UNL     1       3.718   1.392  18.472  0.00  0.00    +0.000 C 
BRANCH  17  18
ATOM     18  N   UNL     1       4.683   2.153  19.269  0.00  0.00    +0.000 NA
ATOM     19  H   UNL     1       5.148   2.837  18.672  0.00  0.00    +0.000 HD
ATOM     20  H   UNL     1       5.411   1.505  19.580  0.00  0.00    +0.000 HD
ENDBRANCH  17  18
ENDBRANCH  16  17
ENDBRANCH  15  16
ENDBRANCH  14  15
ENDBRANCH  13  14
ENDBRANCH  12  13
ENDBRANCH   1  12
TORSDOF 8
ENDMDL
MODEL 7
REMARK VINA RESULT:      -5.2      1.566      1.803
REMARK  Name = 
REMARK  8 active torsions:
REMARK  status: ('A' for Active; 'I' for Inactive)
REMARK    1  A    between atoms: N_1  and  C_2
REMARK    2  A    between atoms: C_2  and  C_3
REMARK    3  A    between atoms: C_3  and  S_4
REMARK    4  A    between atoms: S_4  and  C_5
REMARK    5  A    between atoms: C_5  and  C_6
REMARK    6  A    between atoms: C_6  and  C_7
REMARK    7  A    between atoms: C_7  and  S_8
REMARK    8  A    between atoms: S_8  and  C_9
REMARK                            x       y       z     vdW  Elec       q    Type
REMARK                         _______ _______ _______ _____ _____    ______ ____
ROOT
ATOM      1  S   UNL     1       3.884   7.133  17.459  0.00  0.00    +0.000 S 
ENDROOT
BRANCH   1   2
ATOM      2  C   UNL     1       5.311   6.139  17.764  0.00  0.00    +0.000 A 
ATOM      3  N   UNL     1       5.715   5.858  19.030  0.00  0.00    +0.000 NA
ATOM      4  C   UNL     1       6.824   5.108  19.188  0.00  0.00    +0.000 A 
ATOM      5  N   UNL     1       7.615   4.578  18.234  0.00  0.00    +0.000 NA
ATOM      6  C   UNL     1       7.160   4.887  17.011  0.00  0.00    +0.000 A 
ATOM      7  N   UNL     1       7.713   4.519  15.818  0.00  0.00    +0.000 N 
ATOM      8  C   UNL     1       6.933   5.042  14.825  0.00  0.00    +0.000 A 
ATOM      9  N   UNL     1       5.917   5.725  15.307  0.00  0.00    +0.000 NA
ATOM     10  C   UNL     1       6.044   5.639  16.682  0.00  0.00    +0.000 A 
ATOM     11  H   UNL     1       8.548   3.964  15.708  0.00  0.00    +0.000 HD
ENDBRANCH   1   2
BRANCH   1  12
ATOM     12  C   UNL     1       2.579   6.106  18.210  0.00  0.00    +0.000 C 
BRANCH  12  13
ATOM     13  C   UNL     1       2.686   4.645  17.767  0.00  0.00    +0.000 C 
BRANCH  13  14
ATOM     14  C   UNL     1       1.370   3.873  17.871  0.00  0.00    +0.000 C 
BRANCH  14  15
ATOM     15  S   UNL     1       1.638   2.373  18.869  0.00  0.00    +0.000 S 
BRANCH  15  16
ATOM     16  C   UNL     1       1.057   3.007  20.484  0.00  0.00    +0.000 C 
BRANCH  16  17
ATOM     17  C   UNL     1       2.242   3.392  21.380  0.00  0.00    +0.000 C 
BRANCH  17  18
ATOM     18  N   UNL     1       2.475   4.838  21.413  0.00  0.00    +0.000 NA
ATOM     19  H   UNL     1       3.259   5.038  22.034  0.00  0.00    +0.000 HD
ATOM     20  H   UNL     1       1.654   5.276  21.841  0.00  0.00    +0.000 HD
ENDBRANCH  17  18
ENDBRANCH  16  17
ENDBRANCH  15  16
ENDBRANCH  14  15
ENDBRANCH  13  14
ENDBRANCH  12  13
ENDBRANCH   1  12
TORSDOF 8
ENDMDL
MODEL 8
REMARK VINA RESULT:      -5.2      1.205      3.278
REMARK  Name = 
REMARK  8 active torsions:
REMARK  status: ('A' for Active; 'I' for Inactive)
REMARK    1  A    between atoms: N_1  and  C_2
REMARK    2  A    between atoms: C_2  and  C_3
REMARK    3  A    between atoms: C_3  and  S_4
REMARK    4  A    between atoms: S_4  and  C_5
REMARK    5  A    between atoms: C_5  and  C_6
REMARK    6  A    between atoms: C_6  and  C_7
REMARK    7  A    between atoms: C_7  and  S_8
REMARK    8  A    between atoms: S_8  and  C_9
REMARK                            x       y       z     vdW  Elec       q    Type
REMARK                         _______ _______ _______ _____ _____    ______ ____
ROOT
ATOM      1  S   UNL     1       3.303   3.883  17.363  0.00  0.00    +0.000 S 
ENDROOT
BRANCH   1   2
ATOM      2  C   UNL     1       4.951   4.257  16.853  0.00  0.00    +0.000 A 
ATOM      3  N   UNL     1       5.360   4.035  15.577  0.00  0.00    +0.000 NA
ATOM      4  C   UNL     1       6.639   4.328  15.264  0.00  0.00    +0.000 A 
ATOM      5  N   UNL     1       7.600   4.828  16.065  0.00  0.00    +0.000 NA
ATOM      6  C   UNL     1       7.131   5.029  17.305  0.00  0.00    +0.000 A 
ATOM      7  N   UNL     1       7.828   5.522  18.371  0.00  0.00    +0.000 N 
ATOM      8  C   UNL     1       6.974   5.565  19.437  0.00  0.00    +0.000 A 
ATOM      9  N   UNL     1       5.774   5.127  19.121  0.00  0.00    +0.000 NA
ATOM     10  C   UNL     1       5.855   4.783  17.783  0.00  0.00    +0.000 A 
ATOM     11  H   UNL     1       8.798   5.797  18.357  0.00  0.00    +0.000 HD
ENDBRANCH   1   2
BRANCH   1  12
ATOM     12  C   UNL     1       3.329   2.060  17.310  0.00  0.00    +0.000 C 
BRANCH  12  13
ATOM     13  C   UNL     1       3.424   1.457  18.713  0.00  0.00    +0.000 C 
BRANCH  13  14
ATOM     14  C   UNL     1       3.533   2.501  19.824  0.00  0.00    +0.000 C 
BRANCH  14  15
ATOM     15  S   UNL     1       1.926   2.639  20.671  0.00  0.00    +0.000 S 
BRANCH  15  16
ATOM     16  C   UNL     1       2.183   4.253  21.493  0.00  0.00    +0.000 C 
BRANCH  16  17
ATOM     17  C   UNL     1       1.808   5.410  20.557  0.00  0.00    +0.000 C 
BRANCH  17  18
ATOM     18  N   UNL     1       2.972   6.191  20.134  0.00  0.00    +0.000 NA
ATOM     19  H   UNL     1       2.974   7.086  20.625  0.00  0.00    +0.000 HD
ATOM     20  H   UNL     1       2.856   6.411  19.141  0.00  0.00    +0.000 HD
ENDBRANCH  17  18
ENDBRANCH  16  17
ENDBRANCH  15  16
ENDBRANCH  14  15
ENDBRANCH  13  14
ENDBRANCH  12  13
ENDBRANCH   1  12
TORSDOF 8
ENDMDL
MODEL 9
REMARK VINA RESULT:      -5.2      1.067      1.209
REMARK  Name = 
REMARK  8 active torsions:
REMARK  status: ('A' for Active; 'I' for Inactive)
REMARK    1  A    between atoms: N_1  and  C_2
REMARK    2  A    between atoms: C_2  and  C_3
REMARK    3  A    between atoms: C_3  and  S_4
REMARK    4  A    between atoms: S_4  and  C_5
REMARK    5  A    between atoms: C_5  and  C_6
REMARK    6  A    between atoms: C_6  and  C_7
REMARK    7  A    between atoms: C_7  and  S_8
REMARK    8  A    between atoms: S_8  and  C_9
REMARK                            x       y       z     vdW  Elec       q    Type
REMARK                         _______ _______ _______ _____ _____    ______ ____
ROOT
ATOM      1  S   UNL     1       3.487   6.104  18.033  0.00  0.00    +0.000 S 
ENDROOT
BRANCH   1   2
ATOM      2  C   UNL     1       5.175   5.621  18.224  0.00  0.00    +0.000 A 
ATOM      3  N   UNL     1       5.771   5.620  19.444  0.00  0.00    +0.000 NA
ATOM      4  C   UNL     1       7.068   5.257  19.512  0.00  0.00    +0.000 A 
ATOM      5  N   UNL     1       7.883   4.882  18.507  0.00  0.00    +0.000 NA
ATOM      6  C   UNL     1       7.233   4.899  17.334  0.00  0.00    +0.000 A 
ATOM      7  N   UNL     1       7.749   4.580  16.111  0.00  0.00    +0.000 N 
ATOM      8  C   UNL     1       6.750   4.730  15.191  0.00  0.00    +0.000 A 
ATOM      9  N   UNL     1       5.627   5.130  15.748  0.00  0.00    +0.000 NA
ATOM     10  C   UNL     1       5.913   5.243  17.097  0.00  0.00    +0.000 A 
ATOM     11  H   UNL     1       8.699   4.290  15.936  0.00  0.00    +0.000 HD
ENDBRANCH   1   2
BRANCH   1  12
ATOM     12  C   UNL     1       2.748   4.548  17.434  0.00  0.00    +0.000 C 
BRANCH  12  13
ATOM     13  C   UNL     1       1.517   4.156  18.255  0.00  0.00    +0.000 C 
BRANCH  13  14
ATOM     14  C   UNL     1       1.734   4.242  19.766  0.00  0.00    +0.000 C 
BRANCH  14  15
ATOM     15  S   UNL     1       1.548   2.581  20.489  0.00  0.00    +0.000 S 
BRANCH  15  16
ATOM     16  C   UNL     1       3.241   2.376  21.154  0.00  0.00    +0.000 C 
BRANCH  16  17
ATOM     17  C   UNL     1       4.283   2.455  20.030  0.00  0.00    +0.000 C 
BRANCH  17  18
ATOM     18  N   UNL     1       4.027   1.490  18.958  0.00  0.00    +0.000 NA
ATOM     19  H   UNL     1       4.856   0.912  18.820  0.00  0.00    +0.000 HD
ATOM     20  H   UNL     1       3.899   2.017  18.089  0.00  0.00    +0.000 HD
ENDBRANCH  17  18
ENDBRANCH  16  17
ENDBRANCH  15  16
ENDBRANCH  14  15
ENDBRANCH  13  14
ENDBRANCH  12  13
ENDBRANCH   1  12
TORSDOF 8
ENDMDL
