MODEL 1
REMARK VINA RESULT:      -6.8      0.000      0.000
REMARK  Name = 
REMARK  7 active torsions:
REMARK  status: ('A' for Active; 'I' for Inactive)
REMARK    1  A    between atoms: C_1  and  C_2
REMARK    2  A    between atoms: C_2  and  O_3
REMARK    3  A    between atoms: O_3  and  C_4
REMARK    4  A    between atoms: C_7  and  N_8
REMARK    5  A    between atoms: C_9  and  C_11
REMARK    6  A    between atoms: C_11  and  N_12
REMARK    7  A    between atoms: N_15  and  C_16
REMARK                            x       y       z     vdW  Elec       q    Type
REMARK                         _______ _______ _______ _____ _____    ______ ____
ROOT
ATOM      1  C   UNL     1       3.112   4.881  20.336  0.00  0.00    +0.000 C 
ENDROOT
BRANCH   1   2
ATOM      2  N   UNL     1       2.904   3.988  19.172  0.00  0.00    +0.000 NA
ATOM      3  C   UNL     1       2.592   4.753  17.935  0.00  0.00    +0.000 C 
ATOM      4  C   UNL     1       3.741   5.616  17.371  0.00  0.00    +0.000 C 
ATOM      5  N   UNL     1       4.929   4.782  17.135  0.00  0.00    +0.000 N 
ATOM      6  C   UNL     1       5.364   3.977  18.285  0.00  0.00    +0.000 C 
ATOM      7  C   UNL     1       4.154   3.206  18.897  0.00  0.00    +0.000 C 
BRANCH   5   8
ATOM      8  C   UNL     1       5.513   4.670  15.890  0.00  0.00    +0.000 A 
ATOM      9  C   UNL     1       4.858   4.039  14.818  0.00  0.00    +0.000 A 
ATOM     10  C   UNL     1       5.459   3.899  13.560  0.00  0.00    +0.000 A 
ATOM     11  C   UNL     1       6.737   4.403  13.345  0.00  0.00    +0.000 A 
ATOM     12 CL   UNL     1       7.481   4.238  11.804  0.00  0.00    +0.000 Cl
ATOM     13  C   UNL     1       7.410   5.043  14.375  0.00  0.00    +0.000 A 
ATOM     14  C   UNL     1       6.802   5.172  15.629  0.00  0.00    +0.000 A 
ENDBRANCH   5   8
ENDBRANCH   1   2
BRANCH   1  16
ATOM     15  N   UNL     1       2.319   7.237  20.497  0.00  0.00    +0.000 N 
ATOM     16  C   UNL     1       1.979   5.896  20.572  0.00  0.00    +0.000 C 
ATOM     17  O   UNL     1       0.833   5.460  20.735  0.00  0.00    +0.000 OA
ATOM     18  H   UNL     1       3.277   7.432  20.221  0.00  0.00    +0.000 HD
BRANCH  15  22
ATOM     19  C   UNL     1      -0.392  10.480  20.932  0.00  0.00    +0.000 A 
ATOM     20  C   UNL     1      -0.059   9.694  22.029  0.00  0.00    +0.000 A 
ATOM     21  C   UNL     1       0.852   8.644  21.902  0.00  0.00    +0.000 A 
ATOM     22  C   UNL     1       1.428   8.328  20.669  0.00  0.00    +0.000 A 
ATOM     23  C   UNL     1       1.103   9.128  19.569  0.00  0.00    +0.000 A 
ATOM     24  C   UNL     1       0.180  10.187  19.694  0.00  0.00    +0.000 A 
BRANCH  19  25
ATOM     25  O   UNL     1      -1.285  11.481  21.185  0.00  0.00    +0.000 OA
BRANCH  25  27
ATOM     26  C   UNL     1      -2.463  12.179  23.136  0.00  0.00    +0.000 C 
ATOM     27  C   UNL     1      -1.123  12.171  22.422  0.00  0.00    +0.000 C 
ENDBRANCH  25  27
ENDBRANCH  19  25
ENDBRANCH  15  22
ENDBRANCH   1  16
TORSDOF 6
ENDMDL
MODEL 2
REMARK VINA RESULT:      -6.7      4.825     10.944
REMARK  Name = 
REMARK  7 active torsions:
REMARK  status: ('A' for Active; 'I' for Inactive)
REMARK    1  A    between atoms: C_1  and  C_2
REMARK    2  A    between atoms: C_2  and  O_3
REMARK    3  A    between atoms: O_3  and  C_4
REMARK    4  A    between atoms: C_7  and  N_8
REMARK    5  A    between atoms: C_9  and  C_11
REMARK    6  A    between atoms: C_11  and  N_12
REMARK    7  A    between atoms: N_15  and  C_16
REMARK                            x       y       z     vdW  Elec       q    Type
REMARK                         _______ _______ _______ _____ _____    ______ ____
ROOT
ATOM      1  C   UNL     1       1.189   9.961  19.459  0.00  0.00    +0.000 C 
ENDROOT
BRANCH   1   2
ATOM      2  N   UNL     1      -0.178   9.532  19.837  0.00  0.00    +0.000 NA
ATOM      3  C   UNL     1      -0.420   9.671  21.297  0.00  0.00    +0.000 C 
ATOM      4  C   UNL     1      -0.468  11.117  21.835  0.00  0.00    +0.000 C 
ATOM      5  N   UNL     1      -1.480  11.894  21.103  0.00  0.00    +0.000 N 
ATOM      6  C   UNL     1      -1.353  11.859  19.640  0.00  0.00    +0.000 C 
ATOM      7  C   UNL     1      -1.194  10.389  19.143  0.00  0.00    +0.000 C 
BRANCH   5   8
ATOM      8  C   UNL     1      -2.541  12.505  21.740  0.00  0.00    +0.000 A 
ATOM      9  C   UNL     1      -3.594  13.096  21.023  0.00  0.00    +0.000 A 
ATOM     10  C   UNL     1      -4.660  13.741  21.665  0.00  0.00    +0.000 A 
ATOM     11  C   UNL     1      -4.697  13.797  23.054  0.00  0.00    +0.000 A 
ATOM     12 CL   UNL     1      -6.001  14.584  23.852  0.00  0.00    +0.000 Cl
ATOM     13  C   UNL     1      -3.681  13.213  23.797  0.00  0.00    +0.000 A 
ATOM     14  C   UNL     1      -2.619  12.577  23.143  0.00  0.00    +0.000 A 
ENDBRANCH   5   8
ENDBRANCH   1   2
BRANCH   1  16
ATOM     15  N   UNL     1       2.318   7.791  18.993  0.00  0.00    +0.000 N 
ATOM     16  C   UNL     1       1.909   9.012  18.484  0.00  0.00    +0.000 C 
ATOM     17  O   UNL     1       2.009   9.360  17.302  0.00  0.00    +0.000 OA
ATOM     18  H   UNL     1       2.042   7.600  19.952  0.00  0.00    +0.000 HD
BRANCH  15  22
ATOM     19  C   UNL     1       4.397   4.772  16.843  0.00  0.00    +0.000 A 
ATOM     20  C   UNL     1       3.258   4.454  17.572  0.00  0.00    +0.000 A 
ATOM     21  C   UNL     1       2.552   5.442  18.259  0.00  0.00    +0.000 A 
ATOM     22  C   UNL     1       2.985   6.771  18.265  0.00  0.00    +0.000 A 
ATOM     23  C   UNL     1       4.124   7.093  17.520  0.00  0.00    +0.000 A 
ATOM     24  C   UNL     1       4.841   6.095  16.828  0.00  0.00    +0.000 A 
BRANCH  19  25
ATOM     25  O   UNL     1       4.992   3.721  16.208  0.00  0.00    +0.000 OA
BRANCH  25  27
ATOM     26  C   UNL     1       5.972   3.947  14.046  0.00  0.00    +0.000 C 
ATOM     27  C   UNL     1       6.223   4.002  15.544  0.00  0.00    +0.000 C 
ENDBRANCH  25  27
ENDBRANCH  19  25
ENDBRANCH  15  22
ENDBRANCH   1  16
TORSDOF 6
ENDMDL
MODEL 3
REMARK VINA RESULT:      -6.7      1.503      1.975
REMARK  Name = 
REMARK  7 active torsions:
REMARK  status: ('A' for Active; 'I' for Inactive)
REMARK    1  A    between atoms: C_1  and  C_2
REMARK    2  A    between atoms: C_2  and  O_3
REMARK    3  A    between atoms: O_3  and  C_4
REMARK    4  A    between atoms: C_7  and  N_8
REMARK    5  A    between atoms: C_9  and  C_11
REMARK    6  A    between atoms: C_11  and  N_12
REMARK    7  A    between atoms: N_15  and  C_16
REMARK                            x       y       z     vdW  Elec       q    Type
REMARK                         _______ _______ _______ _____ _____    ______ ____
ROOT
ATOM      1  C   UNL     1       2.660   3.723  20.893  0.00  0.00    +0.000 C 
ENDROOT
BRANCH   1   2
ATOM      2  N   UNL     1       2.938   2.858  19.722  0.00  0.00    +0.000 NA
ATOM      3  C   UNL     1       2.507   3.493  18.449  0.00  0.00    +0.000 C 
ATOM      4  C   UNL     1       3.307   4.742  18.017  0.00  0.00    +0.000 C 
ATOM      5  N   UNL     1       4.739   4.420  17.935  0.00  0.00    +0.000 N 
ATOM      6  C   UNL     1       5.308   3.796  19.138  0.00  0.00    +0.000 C 
ATOM      7  C   UNL     1       4.412   2.608  19.609  0.00  0.00    +0.000 C 
BRANCH   5   8
ATOM      8  C   UNL     1       5.463   4.577  16.770  0.00  0.00    +0.000 A 
ATOM      9  C   UNL     1       6.249   5.717  16.535  0.00  0.00    +0.000 A 
ATOM     10  C   UNL     1       6.964   5.893  15.342  0.00  0.00    +0.000 A 
ATOM     11  C   UNL     1       6.912   4.915  14.356  0.00  0.00    +0.000 A 
ATOM     12 CL   UNL     1       7.787   5.120  12.890  0.00  0.00    +0.000 Cl
ATOM     13  C   UNL     1       6.156   3.769  14.557  0.00  0.00    +0.000 A 
ATOM     14  C   UNL     1       5.443   3.608  15.750  0.00  0.00    +0.000 A 
ENDBRANCH   5   8
ENDBRANCH   1   2
BRANCH   1  16
ATOM     15  N   UNL     1       2.514   6.166  20.432  0.00  0.00    +0.000 N 
ATOM     16  C   UNL     1       1.822   4.975  20.577  0.00  0.00    +0.000 C 
ATOM     17  O   UNL     1       0.608   4.831  20.397  0.00  0.00    +0.000 OA
ATOM     18  H   UNL     1       3.527   6.094  20.478  0.00  0.00    +0.000 HD
BRANCH  15  22
ATOM     19  C   UNL     1       0.762   9.908  19.442  0.00  0.00    +0.000 A 
ATOM     20  C   UNL     1       0.590   9.369  20.711  0.00  0.00    +0.000 A 
ATOM     21  C   UNL     1       1.184   8.154  21.055  0.00  0.00    +0.000 A 
ATOM     22  C   UNL     1       1.938   7.427  20.130  0.00  0.00    +0.000 A 
ATOM     23  C   UNL     1       2.122   7.977  18.857  0.00  0.00    +0.000 A 
ATOM     24  C   UNL     1       1.519   9.203  18.506  0.00  0.00    +0.000 A 
BRANCH  19  25
ATOM     25  O   UNL     1       0.139  11.104  19.231  0.00  0.00    +0.000 OA
BRANCH  25  27
ATOM     26  C   UNL     1      -1.865  10.493  18.093  0.00  0.00    +0.000 C 
ATOM     27  C   UNL     1      -1.282  11.104  19.355  0.00  0.00    +0.000 C 
ENDBRANCH  25  27
ENDBRANCH  19  25
ENDBRANCH  15  22
ENDBRANCH   1  16
TORSDOF 6
ENDMDL
MODEL 4
REMARK VINA RESULT:      -6.6      1.518      2.207
REMARK  Name = 
REMARK  7 active torsions:
REMARK  status: ('A' for Active; 'I' for Inactive)
REMARK    1  A    between atoms: C_1  and  C_2
REMARK    2  A    between atoms: C_2  and  O_3
REMARK    3  A    between atoms: O_3  and  C_4
REMARK    4  A    between atoms: C_7  and  N_8
REMARK    5  A    between atoms: C_9  and  C_11
REMARK    6  A    between atoms: C_11  and  N_12
REMARK    7  A    between atoms: N_15  and  C_16
REMARK                            x       y       z     vdW  Elec       q    Type
REMARK                         _______ _______ _______ _____ _____    ______ ____
ROOT
ATOM      1  C   UNL     1       2.545   3.496  21.037  0.00  0.00    +0.000 C 
ENDROOT
BRANCH   1   2
ATOM      2  N   UNL     1       2.895   2.616  19.897  0.00  0.00    +0.000 NA
ATOM      3  C   UNL     1       2.448   3.186  18.599  0.00  0.00    +0.000 C 
ATOM      4  C   UNL     1       3.178   4.469  18.142  0.00  0.00    +0.000 C 
ATOM      5  N   UNL     1       4.628   4.233  18.092  0.00  0.00    +0.000 N 
ATOM      6  C   UNL     1       5.213   3.680  19.322  0.00  0.00    +0.000 C 
ATOM      7  C   UNL     1       4.383   2.454  19.814  0.00  0.00    +0.000 C 
BRANCH   5   8
ATOM      8  C   UNL     1       5.361   4.400  16.934  0.00  0.00    +0.000 A 
ATOM      9  C   UNL     1       6.731   4.708  16.963  0.00  0.00    +0.000 A 
ATOM     10  C   UNL     1       7.473   4.906  15.790  0.00  0.00    +0.000 A 
ATOM     11  C   UNL     1       6.851   4.786  14.553  0.00  0.00    +0.000 A 
ATOM     12 CL   UNL     1       7.753   5.025  13.108  0.00  0.00    +0.000 Cl
ATOM     13  C   UNL     1       5.502   4.472  14.484  0.00  0.00    +0.000 A 
ATOM     14  C   UNL     1       4.771   4.282  15.662  0.00  0.00    +0.000 A 
ENDBRANCH   5   8
ENDBRANCH   1   2
BRANCH   1  16
ATOM     15  N   UNL     1       2.470   5.947  20.600  0.00  0.00    +0.000 N 
ATOM     16  C   UNL     1       1.757   4.761  20.649  0.00  0.00    +0.000 C 
ATOM     17  O   UNL     1       0.569   4.630  20.332  0.00  0.00    +0.000 OA
ATOM     18  H   UNL     1       3.470   5.865  20.757  0.00  0.00    +0.000 HD
BRANCH  15  22
ATOM     19  C   UNL     1       0.914   9.784  19.649  0.00  0.00    +0.000 A 
ATOM     20  C   UNL     1       1.637   9.069  18.704  0.00  0.00    +0.000 A 
ATOM     21  C   UNL     1       2.129   7.796  18.997  0.00  0.00    +0.000 A 
ATOM     22  C   UNL     1       1.941   7.217  20.255  0.00  0.00    +0.000 A 
ATOM     23  C   UNL     1       1.201   7.933  21.201  0.00  0.00    +0.000 A 
ATOM     24  C   UNL     1       0.707   9.221  20.909  0.00  0.00    +0.000 A 
BRANCH  19  25
ATOM     25  O   UNL     1       0.479  11.012  19.240  0.00  0.00    +0.000 OA
BRANCH  25  27
ATOM     26  C   UNL     1       1.483  12.926  20.245  0.00  0.00    +0.000 C 
ATOM     27  C   UNL     1       0.291  11.987  20.264  0.00  0.00    +0.000 C 
ENDBRANCH  25  27
ENDBRANCH  19  25
ENDBRANCH  15  22
ENDBRANCH   1  16
TORSDOF 6
ENDMDL
MODEL 5
REMARK VINA RESULT:      -6.6      1.329      1.802
REMARK  Name = 
REMARK  7 active torsions:
REMARK  status: ('A' for Active; 'I' for Inactive)
REMARK    1  A    between atoms: C_1  and  C_2
REMARK    2  A    between atoms: C_2  and  O_3
REMARK    3  A    between atoms: O_3  and  C_4
REMARK    4  A    between atoms: C_7  and  N_8
REMARK    5  A    between atoms: C_9  and  C_11
REMARK    6  A    between atoms: C_11  and  N_12
REMARK    7  A    between atoms: N_15  and  C_16
REMARK                            x       y       z     vdW  Elec       q    Type
REMARK                         _______ _______ _______ _____ _____    ______ ____
ROOT
ATOM      1  C   UNL     1       2.498   3.544  20.975  0.00  0.00    +0.000 C 
ENDROOT
BRANCH   1   2
ATOM      2  N   UNL     1       2.789   2.692  19.798  0.00  0.00    +0.000 NA
ATOM      3  C   UNL     1       2.374   3.341  18.526  0.00  0.00    +0.000 C 
ATOM      4  C   UNL     1       3.181   4.593  18.118  0.00  0.00    +0.000 C 
ATOM      5  N   UNL     1       4.614   4.270  18.049  0.00  0.00    +0.000 N 
ATOM      6  C   UNL     1       5.167   3.632  19.252  0.00  0.00    +0.000 C 
ATOM      7  C   UNL     1       4.264   2.441  19.700  0.00  0.00    +0.000 C 
BRANCH   5   8
ATOM      8  C   UNL     1       5.351   4.438  16.895  0.00  0.00    +0.000 A 
ATOM      9  C   UNL     1       6.680   4.894  16.925  0.00  0.00    +0.000 A 
ATOM     10  C   UNL     1       7.423   5.093  15.754  0.00  0.00    +0.000 A 
ATOM     11  C   UNL     1       6.848   4.824  14.517  0.00  0.00    +0.000 A 
ATOM     12 CL   UNL     1       7.753   5.063  13.075  0.00  0.00    +0.000 Cl
ATOM     13  C   UNL     1       5.543   4.360  14.448  0.00  0.00    +0.000 A 
ATOM     14  C   UNL     1       4.809   4.172  15.625  0.00  0.00    +0.000 A 
ENDBRANCH   5   8
ENDBRANCH   1   2
BRANCH   1  16
ATOM     15  N   UNL     1       2.381   6.009  20.632  0.00  0.00    +0.000 N 
ATOM     16  C   UNL     1       1.684   4.813  20.658  0.00  0.00    +0.000 C 
ATOM     17  O   UNL     1       0.489   4.679  20.373  0.00  0.00    +0.000 OA
ATOM     18  H   UNL     1       3.387   5.934  20.756  0.00  0.00    +0.000 HD
BRANCH  15  22
ATOM     19  C   UNL     1       0.699   9.798  19.703  0.00  0.00    +0.000 A 
ATOM     20  C   UNL     1       0.460   9.211  20.939  0.00  0.00    +0.000 A 
ATOM     21  C   UNL     1       1.030   7.980  21.265  0.00  0.00    +0.000 A 
ATOM     22  C   UNL     1       1.827   7.284  20.351  0.00  0.00    +0.000 A 
ATOM     23  C   UNL     1       2.078   7.883  19.112  0.00  0.00    +0.000 A 
ATOM     24  C   UNL     1       1.499   9.125  18.780  0.00  0.00    +0.000 A 
BRANCH  19  25
ATOM     25  O   UNL     1       0.093  11.006  19.508  0.00  0.00    +0.000 OA
BRANCH  25  27
ATOM     26  C   UNL     1       0.326  12.947  20.872  0.00  0.00    +0.000 C 
ATOM     27  C   UNL     1      -0.428  11.644  20.672  0.00  0.00    +0.000 C 
ENDBRANCH  25  27
ENDBRANCH  19  25
ENDBRANCH  15  22
ENDBRANCH   1  16
TORSDOF 6
ENDMDL
MODEL 6
REMARK VINA RESULT:      -6.6      1.558      2.021
REMARK  Name = 
REMARK  7 active torsions:
REMARK  status: ('A' for Active; 'I' for Inactive)
REMARK    1  A    between atoms: C_1  and  C_2
REMARK    2  A    between atoms: C_2  and  O_3
REMARK    3  A    between atoms: O_3  and  C_4
REMARK    4  A    between atoms: C_7  and  N_8
REMARK    5  A    between atoms: C_9  and  C_11
REMARK    6  A    between atoms: C_11  and  N_12
REMARK    7  A    between atoms: N_15  and  C_16
REMARK                            x       y       z     vdW  Elec       q    Type
REMARK                         _______ _______ _______ _____ _____    ______ ____
ROOT
ATOM      1  C   UNL     1       2.570   3.520  21.033  0.00  0.00    +0.000 C 
ENDROOT
BRANCH   1   2
ATOM      2  N   UNL     1       2.940   2.649  19.893  0.00  0.00    +0.000 NA
ATOM      3  C   UNL     1       2.465   3.200  18.596  0.00  0.00    +0.000 C 
ATOM      4  C   UNL     1       3.149   4.504  18.131  0.00  0.00    +0.000 C 
ATOM      5  N   UNL     1       4.606   4.315  18.070  0.00  0.00    +0.000 N 
ATOM      6  C   UNL     1       5.218   3.785  19.296  0.00  0.00    +0.000 C 
ATOM      7  C   UNL     1       4.432   2.534  19.799  0.00  0.00    +0.000 C 
BRANCH   5   8
ATOM      8  C   UNL     1       5.324   4.503  16.906  0.00  0.00    +0.000 A 
ATOM      9  C   UNL     1       4.869   4.018  15.669  0.00  0.00    +0.000 A 
ATOM     10  C   UNL     1       5.609   4.182  14.489  0.00  0.00    +0.000 A 
ATOM     11  C   UNL     1       6.826   4.853  14.526  0.00  0.00    +0.000 A 
ATOM     12 CL   UNL     1       7.740   5.061  13.084  0.00  0.00    +0.000 Cl
ATOM     13  C   UNL     1       7.302   5.357  15.727  0.00  0.00    +0.000 A 
ATOM     14  C   UNL     1       6.557   5.181  16.899  0.00  0.00    +0.000 A 
ENDBRANCH   5   8
ENDBRANCH   1   2
BRANCH   1  16
ATOM     15  N   UNL     1       2.477   5.964  20.561  0.00  0.00    +0.000 N 
ATOM     16  C   UNL     1       1.770   4.776  20.643  0.00  0.00    +0.000 C 
ATOM     17  O   UNL     1       0.576   4.637  20.354  0.00  0.00    +0.000 OA
ATOM     18  H   UNL     1       3.481   5.887  20.697  0.00  0.00    +0.000 HD
BRANCH  15  22
ATOM     19  C   UNL     1       0.884   9.781  19.588  0.00  0.00    +0.000 A 
ATOM     20  C   UNL     1       1.631   9.075  18.653  0.00  0.00    +0.000 A 
ATOM     21  C   UNL     1       2.135   7.809  18.953  0.00  0.00    +0.000 A 
ATOM     22  C   UNL     1       1.936   7.227  20.208  0.00  0.00    +0.000 A 
ATOM     23  C   UNL     1       1.173   7.932  21.143  0.00  0.00    +0.000 A 
ATOM     24  C   UNL     1       0.666   9.214  20.844  0.00  0.00    +0.000 A 
BRANCH  19  25
ATOM     25  O   UNL     1       0.439  11.002  19.173  0.00  0.00    +0.000 OA
BRANCH  25  27
ATOM     26  C   UNL     1      -1.878  11.560  19.260  0.00  0.00    +0.000 C 
ATOM     27  C   UNL     1      -0.758  11.006  18.397  0.00  0.00    +0.000 C 
ENDBRANCH  25  27
ENDBRANCH  19  25
ENDBRANCH  15  22
ENDBRANCH   1  16
TORSDOF 6
ENDMDL
MODEL 7
REMARK VINA RESULT:      -6.5      4.691     10.884
REMARK  Name = 
REMARK  7 active torsions:
REMARK  status: ('A' for Active; 'I' for Inactive)
REMARK    1  A    between atoms: C_1  and  C_2
REMARK    2  A    between atoms: C_2  and  O_3
REMARK    3  A    between atoms: O_3  and  C_4
REMARK    4  A    between atoms: C_7  and  N_8
REMARK    5  A    between atoms: C_9  and  C_11
REMARK    6  A    between atoms: C_11  and  N_12
REMARK    7  A    between atoms: N_15  and  C_16
REMARK                            x       y       z     vdW  Elec       q    Type
REMARK                         _______ _______ _______ _____ _____    ______ ____
ROOT
ATOM      1  C   UNL     1       0.807   8.409  20.988  0.00  0.00    +0.000 C 
ENDROOT
BRANCH   1   2
ATOM      2  N   UNL     1       1.289   9.558  21.790  0.00  0.00    +0.000 NA
ATOM      3  C   UNL     1       0.945  10.859  21.158  0.00  0.00    +0.000 C 
ATOM      4  C   UNL     1      -0.559  11.209  21.119  0.00  0.00    +0.000 C 
ATOM      5  N   UNL     1      -1.121  11.170  22.477  0.00  0.00    +0.000 N 
ATOM      6  C   UNL     1      -0.868   9.927  23.220  0.00  0.00    +0.000 C 
ATOM      7  C   UNL     1       0.642   9.544  23.143  0.00  0.00    +0.000 C 
BRANCH   5   8
ATOM      8  C   UNL     1      -1.730  12.265  23.054  0.00  0.00    +0.000 A 
ATOM      9  C   UNL     1      -1.060  13.491  23.204  0.00  0.00    +0.000 A 
ATOM     10  C   UNL     1      -1.665  14.599  23.813  0.00  0.00    +0.000 A 
ATOM     11  C   UNL     1      -2.971  14.502  24.279  0.00  0.00    +0.000 A 
ATOM     12 CL   UNL     1      -3.724  15.855  25.027  0.00  0.00    +0.000 Cl
ATOM     13  C   UNL     1      -3.669  13.311  24.138  0.00  0.00    +0.000 A 
ATOM     14  C   UNL     1      -3.052  12.211  23.532  0.00  0.00    +0.000 A 
ENDBRANCH   5   8
ENDBRANCH   1   2
BRANCH   1  16
ATOM     15  N   UNL     1       2.389   6.676  20.152  0.00  0.00    +0.000 N 
ATOM     16  C   UNL     1       1.804   7.910  19.925  0.00  0.00    +0.000 C 
ATOM     17  O   UNL     1       1.961   8.597  18.909  0.00  0.00    +0.000 OA
ATOM     18  H   UNL     1       2.054   6.174  20.969  0.00  0.00    +0.000 HD
BRANCH  15  22
ATOM     19  C   UNL     1       5.195   4.828  17.550  0.00  0.00    +0.000 A 
ATOM     20  C   UNL     1       5.159   4.486  18.896  0.00  0.00    +0.000 A 
ATOM     21  C   UNL     1       4.223   5.067  19.753  0.00  0.00    +0.000 A 
ATOM     22  C   UNL     1       3.320   6.031  19.296  0.00  0.00    +0.000 A 
ATOM     23  C   UNL     1       3.349   6.364  17.939  0.00  0.00    +0.000 A 
ATOM     24  C   UNL     1       4.297   5.782  17.072  0.00  0.00    +0.000 A 
BRANCH  19  25
ATOM     25  O   UNL     1       6.149   4.186  16.814  0.00  0.00    +0.000 OA
BRANCH  25  27
ATOM     26  C   UNL     1       6.650   4.498  14.504  0.00  0.00    +0.000 C 
ATOM     27  C   UNL     1       6.903   4.997  15.916  0.00  0.00    +0.000 C 
ENDBRANCH  25  27
ENDBRANCH  19  25
ENDBRANCH  15  22
ENDBRANCH   1  16
TORSDOF 6
ENDMDL
MODEL 8
REMARK VINA RESULT:      -6.5      0.517      1.422
REMARK  Name = 
REMARK  7 active torsions:
REMARK  status: ('A' for Active; 'I' for Inactive)
REMARK    1  A    between atoms: C_1  and  C_2
REMARK    2  A    between atoms: C_2  and  O_3
REMARK    3  A    between atoms: O_3  and  C_4
REMARK    4  A    between atoms: C_7  and  N_8
REMARK    5  A    between atoms: C_9  and  C_11
REMARK    6  A    between atoms: C_11  and  N_12
REMARK    7  A    between atoms: N_15  and  C_16
REMARK                            x       y       z     vdW  Elec       q    Type
REMARK                         _______ _______ _______ _____ _____    ______ ____
ROOT
ATOM      1  C   UNL     1       2.630   4.776  20.515  0.00  0.00    +0.000 C 
ENDROOT
BRANCH   1   2
ATOM      2  N   UNL     1       2.501   4.030  19.241  0.00  0.00    +0.000 NA
ATOM      3  C   UNL     1       2.386   4.943  18.073  0.00  0.00    +0.000 C 
ATOM      4  C   UNL     1       3.648   5.769  17.739  0.00  0.00    +0.000 C 
ATOM      5  N   UNL     1       4.798   4.874  17.540  0.00  0.00    +0.000 N 
ATOM      6  C   UNL     1       5.041   3.920  18.631  0.00  0.00    +0.000 C 
ATOM      7  C   UNL     1       3.720   3.186  19.017  0.00  0.00    +0.000 C 
BRANCH   5   8
ATOM      8  C   UNL     1       5.515   4.849  16.361  0.00  0.00    +0.000 A 
ATOM      9  C   UNL     1       6.735   5.531  16.222  0.00  0.00    +0.000 A 
ATOM     10  C   UNL     1       7.452   5.530  15.017  0.00  0.00    +0.000 A 
ATOM     11  C   UNL     1       6.962   4.829  13.922  0.00  0.00    +0.000 A 
ATOM     12 CL   UNL     1       7.836   4.821  12.441  0.00  0.00    +0.000 Cl
ATOM     13  C   UNL     1       5.766   4.133  14.025  0.00  0.00    +0.000 A 
ATOM     14  C   UNL     1       5.056   4.146  15.231  0.00  0.00    +0.000 A 
ENDBRANCH   5   8
ENDBRANCH   1   2
BRANCH   1  16
ATOM     15  N   UNL     1       2.135   7.202  20.777  0.00  0.00    +0.000 N 
ATOM     16  C   UNL     1       1.616   5.922  20.689  0.00  0.00    +0.000 C 
ATOM     17  O   UNL     1       0.413   5.641  20.662  0.00  0.00    +0.000 OA
ATOM     18  H   UNL     1       3.140   7.279  20.647  0.00  0.00    +0.000 HD
BRANCH  15  22
ATOM     19  C   UNL     1      -0.076  10.794  21.298  0.00  0.00    +0.000 A 
ATOM     20  C   UNL     1       0.304  10.384  20.026  0.00  0.00    +0.000 A 
ATOM     21  C   UNL     1       1.006   9.193  19.841  0.00  0.00    +0.000 A 
ATOM     22  C   UNL     1       1.379   8.394  20.926  0.00  0.00    +0.000 A 
ATOM     23  C   UNL     1       0.984   8.800  22.205  0.00  0.00    +0.000 A 
ATOM     24  C   UNL     1       0.278  10.006  22.394  0.00  0.00    +0.000 A 
BRANCH  19  25
ATOM     25  O   UNL     1      -0.765  11.970  21.347  0.00  0.00    +0.000 OA
BRANCH  25  27
ATOM     26  C   UNL     1      -2.510  12.028  22.971  0.00  0.00    +0.000 C 
ATOM     27  C   UNL     1      -1.089  12.457  22.648  0.00  0.00    +0.000 C 
ENDBRANCH  25  27
ENDBRANCH  19  25
ENDBRANCH  15  22
ENDBRANCH   1  16
TORSDOF 6
ENDMDL
MODEL 9
REMARK VINA RESULT:      -6.5      4.783     10.929
REMARK  Name = 
REMARK  7 active torsions:
REMARK  status: ('A' for Active; 'I' for Inactive)
REMARK    1  A    between atoms: C_1  and  C_2
REMARK    2  A    between atoms: C_2  and  O_3
REMARK    3  A    between atoms: O_3  and  C_4
REMARK    4  A    between atoms: C_7  and  N_8
REMARK    5  A    between atoms: C_9  and  C_11
REMARK    6  A    between atoms: C_11  and  N_12
REMARK    7  A    between atoms: N_15  and  C_16
REMARK                            x       y       z     vdW  Elec       q    Type
REMARK                         _______ _______ _______ _____ _____    ______ ____
ROOT
ATOM      1  C   UNL     1       0.699   9.552  19.058  0.00  0.00    +0.000 C 
ENDROOT
BRANCH   1   2
ATOM      2  N   UNL     1       1.272  10.618  19.914  0.00  0.00    +0.000 NA
ATOM      3  C   UNL     1       0.645  11.939  19.649  0.00  0.00    +0.000 C 
ATOM      4  C   UNL     1      -0.837  12.074  20.063  0.00  0.00    +0.000 C 
ATOM      5  N   UNL     1      -0.995  11.741  21.487  0.00  0.00    +0.000 N 
ATOM      6  C   UNL     1      -0.429  10.446  21.891  0.00  0.00    +0.000 C 
ATOM      7  C   UNL     1       1.030  10.300  21.359  0.00  0.00    +0.000 C 
BRANCH   5   8
ATOM      8  C   UNL     1      -1.521  12.635  22.397  0.00  0.00    +0.000 A 
ATOM      9  C   UNL     1      -0.800  13.759  22.834  0.00  0.00    +0.000 A 
ATOM     10  C   UNL     1      -1.320  14.654  23.779  0.00  0.00    +0.000 A 
ATOM     11  C   UNL     1      -2.591  14.445  24.301  0.00  0.00    +0.000 A 
ATOM     12 CL   UNL     1      -3.239  15.538  25.459  0.00  0.00    +0.000 Cl
ATOM     13  C   UNL     1      -3.339  13.353  23.884  0.00  0.00    +0.000 A 
ATOM     14  C   UNL     1      -2.806  12.463  22.944  0.00  0.00    +0.000 A 
ENDBRANCH   5   8
ENDBRANCH   1   2
BRANCH   1  16
ATOM     15  N   UNL     1       2.028   7.476  18.701  0.00  0.00    +0.000 N 
ATOM     16  C   UNL     1       1.738   8.753  18.250  0.00  0.00    +0.000 C 
ATOM     17  O   UNL     1       2.188   9.263  17.218  0.00  0.00    +0.000 OA
ATOM     18  H   UNL     1       1.474   7.152  19.488  0.00  0.00    +0.000 HD
BRANCH  15  22
ATOM     19  C   UNL     1       4.693   4.729  16.854  0.00  0.00    +0.000 A 
ATOM     20  C   UNL     1       5.007   6.082  16.905  0.00  0.00    +0.000 A 
ATOM     21  C   UNL     1       4.152   6.988  17.534  0.00  0.00    +0.000 A 
ATOM     22  C   UNL     1       2.942   6.573  18.098  0.00  0.00    +0.000 A 
ATOM     23  C   UNL     1       2.634   5.210  18.058  0.00  0.00    +0.000 A 
ATOM     24  C   UNL     1       3.494   4.293  17.419  0.00  0.00    +0.000 A 
BRANCH  19  25
ATOM     25  O   UNL     1       5.612   3.944  16.221  0.00  0.00    +0.000 OA
BRANCH  25  27
ATOM     26  C   UNL     1       6.419   4.281  14.003  0.00  0.00    +0.000 C 
ATOM     27  C   UNL     1       6.613   4.627  15.469  0.00  0.00    +0.000 C 
ENDBRANCH  25  27
ENDBRANCH  19  25
ENDBRANCH  15  22
ENDBRANCH   1  16
TORSDOF 6
ENDMDL
