MODEL 1
REMARK VINA RESULT:      -8.1      0.000      0.000
REMARK  Name = 
REMARK  7 active torsions:
REMARK  status: ('A' for Active; 'I' for Inactive)
REMARK    1  A    between atoms: C_1  and  C_2
REMARK    2  A    between atoms: C_4  and  C_5
REMARK    3  A    between atoms: N_7  and  C_8
REMARK    4  A    between atoms: C_8  and  C_9
REMARK    5  A    between atoms: C_8  and  C_16
REMARK    6  A    between atoms: C_9  and  C_10
REMARK    7  A    between atoms: C_20  and  C_21
REMARK                            x       y       z     vdW  Elec       q    Type
REMARK                         _______ _______ _______ _____ _____    ______ ____
ROOT
ATOM      1  C   UNL     1       6.238   6.037  18.246  0.00  0.00    +0.000 C 
ENDROOT
BRANCH   1   2
ATOM      2  C   UNL     1       7.661   6.274  18.785  0.00  0.00    +0.000 C 
ATOM      3  N   UNL     1       8.102   5.391  19.734  0.00  0.00    +0.000 N 
ATOM      4  O   UNL     1       8.313   7.285  18.540  0.00  0.00    +0.000 OA
ATOM      5  H   UNL     1       7.719   4.454  19.737  0.00  0.00    +0.000 HD
ATOM      6  H   UNL     1       9.058   5.514  20.038  0.00  0.00    +0.000 HD
ENDBRANCH   1   2
BRANCH   1   9
ATOM      7  C   UNL     1       7.146   4.824  16.279  0.00  0.00    +0.000 C 
ATOM      8  O   UNL     1       7.909   4.150  16.964  0.00  0.00    +0.000 OA
ATOM      9  N   UNL     1       6.257   5.738  16.808  0.00  0.00    +0.000 N 
ATOM     10  H   UNL     1       5.744   6.320  16.151  0.00  0.00    +0.000 HD
BRANCH   7  14
ATOM     11  C   UNL     1       5.397   2.749  12.099  0.00  0.00    +0.000 C 
ATOM     12  C   UNL     1       6.290   3.695  12.844  0.00  0.00    +0.000 A 
ATOM     13  C   UNL     1       6.281   3.748  14.218  0.00  0.00    +0.000 A 
ATOM     14  C   UNL     1       7.122   4.681  14.789  0.00  0.00    +0.000 A 
ATOM     15  N   UNL     1       7.921   5.523  14.088  0.00  0.00    +0.000 NA
ATOM     16  C   UNL     1       7.846   5.400  12.753  0.00  0.00    +0.000 A 
ATOM     17  C   UNL     1       8.638   6.352  11.911  0.00  0.00    +0.000 C 
ATOM     18  N   UNL     1       7.059   4.521  12.103  0.00  0.00    +0.000 NA
ENDBRANCH   7  14
ENDBRANCH   1   9
BRANCH   1  19
ATOM     19  C   UNL     1       5.614   4.904  19.081  0.00  0.00    +0.000 C 
BRANCH  19  20
ATOM     20  C   UNL     1       4.257   4.457  18.589  0.00  0.00    +0.000 A 
ATOM     21  C   UNL     1       3.142   5.292  18.738  0.00  0.00    +0.000 A 
ATOM     22  C   UNL     1       1.878   4.865  18.328  0.00  0.00    +0.000 A 
ATOM     23  C   UNL     1       1.718   3.606  17.753  0.00  0.00    +0.000 A 
ATOM     24  C   UNL     1       2.827   2.783  17.565  0.00  0.00    +0.000 A 
ATOM     25  C   UNL     1       4.091   3.207  17.973  0.00  0.00    +0.000 A 
ENDBRANCH  19  20
ENDBRANCH   1  19
TORSDOF 5
ENDMDL
MODEL 2
REMARK VINA RESULT:      -7.7      2.171      3.136
REMARK  Name = 
REMARK  7 active torsions:
REMARK  status: ('A' for Active; 'I' for Inactive)
REMARK    1  A    between atoms: C_1  and  C_2
REMARK    2  A    between atoms: C_4  and  C_5
REMARK    3  A    between atoms: N_7  and  C_8
REMARK    4  A    between atoms: C_8  and  C_9
REMARK    5  A    between atoms: C_8  and  C_16
REMARK    6  A    between atoms: C_9  and  C_10
REMARK    7  A    between atoms: C_20  and  C_21
REMARK                            x       y       z     vdW  Elec       q    Type
REMARK                         _______ _______ _______ _____ _____    ______ ____
ROOT
ATOM      1  C   UNL     1       4.368   3.676  18.284  0.00  0.00    +0.000 C 
ENDROOT
BRANCH   1   2
ATOM      2  C   UNL     1       4.504   2.330  19.018  0.00  0.00    +0.000 C 
ATOM      3  N   UNL     1       4.022   1.231  18.358  0.00  0.00    +0.000 N 
ATOM      4  O   UNL     1       4.845   2.236  20.194  0.00  0.00    +0.000 OA
ATOM      5  H   UNL     1       4.003   1.246  17.347  0.00  0.00    +0.000 HD
ATOM      6  H   UNL     1       4.171   0.343  18.817  0.00  0.00    +0.000 HD
ENDBRANCH   1   2
BRANCH   1   9
ATOM      7  C   UNL     1       5.752   4.645  16.464  0.00  0.00    +0.000 C 
ATOM      8  O   UNL     1       6.063   5.625  17.134  0.00  0.00    +0.000 OA
ATOM      9  N   UNL     1       4.970   3.615  16.945  0.00  0.00    +0.000 N 
ATOM     10  H   UNL     1       4.682   2.902  16.281  0.00  0.00    +0.000 HD
BRANCH   7  14
ATOM     11  C   UNL     1       5.324   2.774  11.866  0.00  0.00    +0.000 C 
ATOM     12  C   UNL     1       6.009   3.608  12.906  0.00  0.00    +0.000 A 
ATOM     13  C   UNL     1       5.532   3.670  14.193  0.00  0.00    +0.000 A 
ATOM     14  C   UNL     1       6.227   4.497  15.053  0.00  0.00    +0.000 A 
ATOM     15  N   UNL     1       7.311   5.230  14.700  0.00  0.00    +0.000 NA
ATOM     16  C   UNL     1       7.689   5.109  13.417  0.00  0.00    +0.000 A 
ATOM     17  C   UNL     1       8.828   5.951  12.933  0.00  0.00    +0.000 C 
ATOM     18  N   UNL     1       7.078   4.329  12.505  0.00  0.00    +0.000 NA
ENDBRANCH   7  14
ENDBRANCH   1   9
BRANCH   1  19
ATOM     19  C   UNL     1       2.870   4.030  18.247  0.00  0.00    +0.000 C 
BRANCH  19  20
ATOM     20  C   UNL     1       2.547   5.389  18.822  0.00  0.00    +0.000 A 
ATOM     21  C   UNL     1       2.061   5.505  20.131  0.00  0.00    +0.000 A 
ATOM     22  C   UNL     1       1.716   6.753  20.650  0.00  0.00    +0.000 A 
ATOM     23  C   UNL     1       1.867   7.900  19.873  0.00  0.00    +0.000 A 
ATOM     24  C   UNL     1       2.386   7.800  18.584  0.00  0.00    +0.000 A 
ATOM     25  C   UNL     1       2.732   6.554  18.062  0.00  0.00    +0.000 A 
ENDBRANCH  19  20
ENDBRANCH   1  19
TORSDOF 5
ENDMDL
MODEL 3
REMARK VINA RESULT:      -7.7      3.139      4.798
REMARK  Name = 
REMARK  7 active torsions:
REMARK  status: ('A' for Active; 'I' for Inactive)
REMARK    1  A    between atoms: C_1  and  C_2
REMARK    2  A    between atoms: C_4  and  C_5
REMARK    3  A    between atoms: N_7  and  C_8
REMARK    4  A    between atoms: C_8  and  C_9
REMARK    5  A    between atoms: C_8  and  C_16
REMARK    6  A    between atoms: C_9  and  C_10
REMARK    7  A    between atoms: C_20  and  C_21
REMARK                            x       y       z     vdW  Elec       q    Type
REMARK                         _______ _______ _______ _____ _____    ______ ____
ROOT
ATOM      1  C   UNL     1       2.598   4.273  19.819  0.00  0.00    +0.000 C 
ENDROOT
BRANCH   1   2
ATOM      2  C   UNL     1       1.364   3.657  19.133  0.00  0.00    +0.000 C 
ATOM      3  N   UNL     1       0.437   3.084  19.961  0.00  0.00    +0.000 N 
ATOM      4  O   UNL     1       1.277   3.504  17.918  0.00  0.00    +0.000 OA
ATOM      5  H   UNL     1       0.357   3.429  20.909  0.00  0.00    +0.000 HD
ATOM      6  H   UNL     1      -0.400   2.737  19.511  0.00  0.00    +0.000 HD
ENDBRANCH   1   2
BRANCH   1   9
ATOM      7  C   UNL     1       4.867   4.269  18.811  0.00  0.00    +0.000 C 
ATOM      8  O   UNL     1       5.263   3.370  19.546  0.00  0.00    +0.000 OA
ATOM      9  N   UNL     1       3.573   4.750  18.829  0.00  0.00    +0.000 N 
ATOM     10  H   UNL     1       3.373   5.564  18.256  0.00  0.00    +0.000 HD
BRANCH   7  14
ATOM     11  C   UNL     1       6.912   4.520  14.274  0.00  0.00    +0.000 C 
ATOM     12  C   UNL     1       6.729   5.003  15.681  0.00  0.00    +0.000 A 
ATOM     13  C   UNL     1       5.894   4.347  16.554  0.00  0.00    +0.000 A 
ATOM     14  C   UNL     1       5.782   4.904  17.812  0.00  0.00    +0.000 A 
ATOM     15  N   UNL     1       6.425   6.029  18.211  0.00  0.00    +0.000 NA
ATOM     16  C   UNL     1       7.206   6.600  17.280  0.00  0.00    +0.000 A 
ATOM     17  C   UNL     1       7.883   7.891  17.621  0.00  0.00    +0.000 C 
ATOM     18  N   UNL     1       7.381   6.133  16.029  0.00  0.00    +0.000 NA
ENDBRANCH   7  14
ENDBRANCH   1   9
BRANCH   1  19
ATOM     19  C   UNL     1       2.095   5.394  20.746  0.00  0.00    +0.000 C 
BRANCH  19  20
ATOM     20  C   UNL     1       1.921   6.727  20.057  0.00  0.00    +0.000 A 
ATOM     21  C   UNL     1       1.366   7.812  20.749  0.00  0.00    +0.000 A 
ATOM     22  C   UNL     1       1.160   9.032  20.104  0.00  0.00    +0.000 A 
ATOM     23  C   UNL     1       1.518   9.184  18.766  0.00  0.00    +0.000 A 
ATOM     24  C   UNL     1       2.106   8.124  18.080  0.00  0.00    +0.000 A 
ATOM     25  C   UNL     1       2.313   6.904  18.722  0.00  0.00    +0.000 A 
ENDBRANCH  19  20
ENDBRANCH   1  19
TORSDOF 5
ENDMDL
MODEL 4
REMARK VINA RESULT:      -7.7      1.272      1.272
REMARK  Name = 
REMARK  7 active torsions:
REMARK  status: ('A' for Active; 'I' for Inactive)
REMARK    1  A    between atoms: C_1  and  C_2
REMARK    2  A    between atoms: C_4  and  C_5
REMARK    3  A    between atoms: N_7  and  C_8
REMARK    4  A    between atoms: C_8  and  C_9
REMARK    5  A    between atoms: C_8  and  C_16
REMARK    6  A    between atoms: C_9  and  C_10
REMARK    7  A    between atoms: C_20  and  C_21
REMARK                            x       y       z     vdW  Elec       q    Type
REMARK                         _______ _______ _______ _____ _____    ______ ____
ROOT
ATOM      1  C   UNL     1       6.144   5.276  18.550  0.00  0.00    +0.000 C 
ENDROOT
BRANCH   1   2
ATOM      2  C   UNL     1       7.328   5.744  19.415  0.00  0.00    +0.000 C 
ATOM      3  N   UNL     1       8.135   6.703  18.864  0.00  0.00    +0.000 N 
ATOM      4  O   UNL     1       7.666   5.183  20.453  0.00  0.00    +0.000 OA
ATOM      5  H   UNL     1       7.736   7.337  18.183  0.00  0.00    +0.000 HD
ATOM      6  H   UNL     1       8.873   7.052  19.461  0.00  0.00    +0.000 HD
ENDBRANCH   1   2
BRANCH   1   9
ATOM      7  C   UNL     1       5.806   5.394  16.093  0.00  0.00    +0.000 C 
ATOM      8  O   UNL     1       4.785   6.066  16.199  0.00  0.00    +0.000 OA
ATOM      9  N   UNL     1       6.569   4.996  17.172  0.00  0.00    +0.000 N 
ATOM     10  H   UNL     1       7.336   4.355  16.987  0.00  0.00    +0.000 HD
BRANCH   7  14
ATOM     11  C   UNL     1       5.443   2.665  11.940  0.00  0.00    +0.000 C 
ATOM     12  C   UNL     1       6.119   3.678  12.813  0.00  0.00    +0.000 A 
ATOM     13  C   UNL     1       5.617   3.996  14.052  0.00  0.00    +0.000 A 
ATOM     14  C   UNL     1       6.308   4.966  14.749  0.00  0.00    +0.000 A 
ATOM     15  N   UNL     1       7.411   5.604  14.285  0.00  0.00    +0.000 NA
ATOM     16  C   UNL     1       7.812   5.229  13.060  0.00  0.00    +0.000 A 
ATOM     17  C   UNL     1       8.975   5.947  12.448  0.00  0.00    +0.000 C 
ATOM     18  N   UNL     1       7.208   4.293  12.304  0.00  0.00    +0.000 NA
ENDBRANCH   7  14
ENDBRANCH   1   9
BRANCH   1  19
ATOM     19  C   UNL     1       5.527   4.047  19.243  0.00  0.00    +0.000 C 
BRANCH  19  20
ATOM     20  C   UNL     1       4.097   3.770  18.842  0.00  0.00    +0.000 A 
ATOM     21  C   UNL     1       3.138   4.790  18.902  0.00  0.00    +0.000 A 
ATOM     22  C   UNL     1       1.806   4.529  18.578  0.00  0.00    +0.000 A 
ATOM     23  C   UNL     1       1.422   3.250  18.176  0.00  0.00    +0.000 A 
ATOM     24  C   UNL     1       2.375   2.239  18.076  0.00  0.00    +0.000 A 
ATOM     25  C   UNL     1       3.707   2.498  18.399  0.00  0.00    +0.000 A 
ENDBRANCH  19  20
ENDBRANCH   1  19
TORSDOF 5
ENDMDL
MODEL 5
REMARK VINA RESULT:      -7.7      1.271      1.628
REMARK  Name = 
REMARK  7 active torsions:
REMARK  status: ('A' for Active; 'I' for Inactive)
REMARK    1  A    between atoms: C_1  and  C_2
REMARK    2  A    between atoms: C_4  and  C_5
REMARK    3  A    between atoms: N_7  and  C_8
REMARK    4  A    between atoms: C_8  and  C_9
REMARK    5  A    between atoms: C_8  and  C_16
REMARK    6  A    between atoms: C_9  and  C_10
REMARK    7  A    between atoms: C_20  and  C_21
REMARK                            x       y       z     vdW  Elec       q    Type
REMARK                         _______ _______ _______ _____ _____    ______ ____
ROOT
ATOM      1  C   UNL     1       6.118   5.267  18.525  0.00  0.00    +0.000 C 
ENDROOT
BRANCH   1   2
ATOM      2  C   UNL     1       7.301   5.738  19.392  0.00  0.00    +0.000 C 
ATOM      3  N   UNL     1       8.112   6.693  18.839  0.00  0.00    +0.000 N 
ATOM      4  O   UNL     1       7.633   5.182  20.435  0.00  0.00    +0.000 OA
ATOM      5  H   UNL     1       7.717   7.323  18.153  0.00  0.00    +0.000 HD
ATOM      6  H   UNL     1       8.848   7.043  19.437  0.00  0.00    +0.000 HD
ENDBRANCH   1   2
BRANCH   1   9
ATOM      7  C   UNL     1       5.791   5.388  16.066  0.00  0.00    +0.000 C 
ATOM      8  O   UNL     1       4.772   6.065  16.169  0.00  0.00    +0.000 OA
ATOM      9  N   UNL     1       6.548   4.987  17.148  0.00  0.00    +0.000 N 
ATOM     10  H   UNL     1       7.312   4.342  16.966  0.00  0.00    +0.000 HD
BRANCH   7  14
ATOM     11  C   UNL     1       5.446   2.641  11.924  0.00  0.00    +0.000 C 
ATOM     12  C   UNL     1       6.115   3.662  12.793  0.00  0.00    +0.000 A 
ATOM     13  C   UNL     1       5.611   3.982  14.031  0.00  0.00    +0.000 A 
ATOM     14  C   UNL     1       6.295   4.959  14.724  0.00  0.00    +0.000 A 
ATOM     15  N   UNL     1       7.394   5.602  14.258  0.00  0.00    +0.000 NA
ATOM     16  C   UNL     1       7.798   5.226  13.034  0.00  0.00    +0.000 A 
ATOM     17  C   UNL     1       8.955   5.949  12.419  0.00  0.00    +0.000 C 
ATOM     18  N   UNL     1       7.200   4.283  12.281  0.00  0.00    +0.000 NA
ENDBRANCH   7  14
ENDBRANCH   1   9
BRANCH   1  19
ATOM     19  C   UNL     1       5.502   4.039  19.217  0.00  0.00    +0.000 C 
BRANCH  19  20
ATOM     20  C   UNL     1       4.063   3.779  18.836  0.00  0.00    +0.000 A 
ATOM     21  C   UNL     1       3.668   2.507  18.401  0.00  0.00    +0.000 A 
ATOM     22  C   UNL     1       2.351   2.272  18.003  0.00  0.00    +0.000 A 
ATOM     23  C   UNL     1       1.413   3.302  18.049  0.00  0.00    +0.000 A 
ATOM     24  C   UNL     1       1.787   4.560  18.516  0.00  0.00    +0.000 A 
ATOM     25  C   UNL     1       3.102   4.797  18.915  0.00  0.00    +0.000 A 
ENDBRANCH  19  20
ENDBRANCH   1  19
TORSDOF 5
ENDMDL
MODEL 6
REMARK VINA RESULT:      -7.6      3.097      4.845
REMARK  Name = 
REMARK  7 active torsions:
REMARK  status: ('A' for Active; 'I' for Inactive)
REMARK    1  A    between atoms: C_1  and  C_2
REMARK    2  A    between atoms: C_4  and  C_5
REMARK    3  A    between atoms: N_7  and  C_8
REMARK    4  A    between atoms: C_8  and  C_9
REMARK    5  A    between atoms: C_8  and  C_16
REMARK    6  A    between atoms: C_9  and  C_10
REMARK    7  A    between atoms: C_20  and  C_21
REMARK                            x       y       z     vdW  Elec       q    Type
REMARK                         _______ _______ _______ _____ _____    ______ ____
ROOT
ATOM      1  C   UNL     1       2.693   4.187  19.839  0.00  0.00    +0.000 C 
ENDROOT
BRANCH   1   2
ATOM      2  C   UNL     1       1.471   3.541  19.159  0.00  0.00    +0.000 C 
ATOM      3  N   UNL     1       0.474   3.111  19.993  0.00  0.00    +0.000 N 
ATOM      4  O   UNL     1       1.442   3.244  17.968  0.00  0.00    +0.000 OA
ATOM      5  H   UNL     1       0.359   3.573  20.886  0.00  0.00    +0.000 HD
ATOM      6  H   UNL     1      -0.352   2.746  19.539  0.00  0.00    +0.000 HD
ENDBRANCH   1   2
BRANCH   1   9
ATOM      7  C   UNL     1       4.952   4.248  18.809  0.00  0.00    +0.000 C 
ATOM      8  O   UNL     1       5.378   3.355  19.534  0.00  0.00    +0.000 OA
ATOM      9  N   UNL     1       3.647   4.696  18.844  0.00  0.00    +0.000 N 
ATOM     10  H   UNL     1       3.420   5.509  18.279  0.00  0.00    +0.000 HD
BRANCH   7  14
ATOM     11  C   UNL     1       6.913   4.612  14.243  0.00  0.00    +0.000 C 
ATOM     12  C   UNL     1       6.749   5.066  15.662  0.00  0.00    +0.000 A 
ATOM     13  C   UNL     1       5.938   4.383  16.537  0.00  0.00    +0.000 A 
ATOM     14  C   UNL     1       5.841   4.914  17.807  0.00  0.00    +0.000 A 
ATOM     15  N   UNL     1       6.476   6.040  18.216  0.00  0.00    +0.000 NA
ATOM     16  C   UNL     1       7.233   6.639  17.282  0.00  0.00    +0.000 A 
ATOM     17  C   UNL     1       7.900   7.932  17.636  0.00  0.00    +0.000 C 
ATOM     18  N   UNL     1       7.392   6.198  16.020  0.00  0.00    +0.000 NA
ENDBRANCH   7  14
ENDBRANCH   1   9
BRANCH   1  19
ATOM     19  C   UNL     1       2.167   5.288  20.777  0.00  0.00    +0.000 C 
BRANCH  19  20
ATOM     20  C   UNL     1       1.948   6.619  20.096  0.00  0.00    +0.000 A 
ATOM     21  C   UNL     1       2.333   6.801  18.761  0.00  0.00    +0.000 A 
ATOM     22  C   UNL     1       2.175   8.042  18.141  0.00  0.00    +0.000 A 
ATOM     23  C   UNL     1       1.619   9.108  18.845  0.00  0.00    +0.000 A 
ATOM     24  C   UNL     1       1.197   8.927  20.160  0.00  0.00    +0.000 A 
ATOM     25  C   UNL     1       1.353   7.689  20.782  0.00  0.00    +0.000 A 
ENDBRANCH  19  20
ENDBRANCH   1  19
TORSDOF 5
ENDMDL
MODEL 7
REMARK VINA RESULT:      -7.6      2.265      3.330
REMARK  Name = 
REMARK  7 active torsions:
REMARK  status: ('A' for Active; 'I' for Inactive)
REMARK    1  A    between atoms: C_1  and  C_2
REMARK    2  A    between atoms: C_4  and  C_5
REMARK    3  A    between atoms: N_7  and  C_8
REMARK    4  A    between atoms: C_8  and  C_9
REMARK    5  A    between atoms: C_8  and  C_16
REMARK    6  A    between atoms: C_9  and  C_10
REMARK    7  A    between atoms: C_20  and  C_21
REMARK                            x       y       z     vdW  Elec       q    Type
REMARK                         _______ _______ _______ _____ _____    ______ ____
ROOT
ATOM      1  C   UNL     1       3.992   3.827  17.854  0.00  0.00    +0.000 C 
ENDROOT
BRANCH   1   2
ATOM      2  C   UNL     1       3.821   2.457  18.536  0.00  0.00    +0.000 C 
ATOM      3  N   UNL     1       2.830   1.655  18.039  0.00  0.00    +0.000 N 
ATOM      4  O   UNL     1       4.392   2.149  19.578  0.00  0.00    +0.000 OA
ATOM      5  H   UNL     1       2.561   1.764  17.069  0.00  0.00    +0.000 HD
ATOM      6  H   UNL     1       2.763   0.733  18.448  0.00  0.00    +0.000 HD
ENDBRANCH   1   2
BRANCH   1   9
ATOM      7  C   UNL     1       5.349   4.791  16.012  0.00  0.00    +0.000 C 
ATOM      8  O   UNL     1       5.406   5.895  16.544  0.00  0.00    +0.000 OA
ATOM      9  N   UNL     1       4.726   3.703  16.587  0.00  0.00    +0.000 N 
ATOM     10  H   UNL     1       4.642   2.863  16.021  0.00  0.00    +0.000 HD
BRANCH   7  14
ATOM     11  C   UNL     1       5.505   2.520  11.579  0.00  0.00    +0.000 C 
ATOM     12  C   UNL     1       6.037   3.471  12.608  0.00  0.00    +0.000 A 
ATOM     13  C   UNL     1       5.419   3.618  13.827  0.00  0.00    +0.000 A 
ATOM     14  C   UNL     1       5.982   4.547  14.678  0.00  0.00    +0.000 A 
ATOM     15  N   UNL     1       7.070   5.300  14.379  0.00  0.00    +0.000 NA
ATOM     16  C   UNL     1       7.590   5.089  13.159  0.00  0.00    +0.000 A 
ATOM     17  C   UNL     1       8.743   5.942  12.726  0.00  0.00    +0.000 C 
ATOM     18  N   UNL     1       7.115   4.206  12.260  0.00  0.00    +0.000 NA
ENDBRANCH   7  14
ENDBRANCH   1   9
BRANCH   1  19
ATOM     19  C   UNL     1       2.586   4.427  17.671  0.00  0.00    +0.000 C 
BRANCH  19  20
ATOM     20  C   UNL     1       2.301   5.606  18.572  0.00  0.00    +0.000 A 
ATOM     21  C   UNL     1       2.367   6.911  18.068  0.00  0.00    +0.000 A 
ATOM     22  C   UNL     1       2.150   8.006  18.906  0.00  0.00    +0.000 A 
ATOM     23  C   UNL     1       1.852   7.806  20.253  0.00  0.00    +0.000 A 
ATOM     24  C   UNL     1       1.746   6.511  20.755  0.00  0.00    +0.000 A 
ATOM     25  C   UNL     1       1.961   5.416  19.920  0.00  0.00    +0.000 A 
ENDBRANCH  19  20
ENDBRANCH   1  19
TORSDOF 5
ENDMDL
MODEL 8
REMARK VINA RESULT:      -7.5      1.976      2.717
REMARK  Name = 
REMARK  7 active torsions:
REMARK  status: ('A' for Active; 'I' for Inactive)
REMARK    1  A    between atoms: C_1  and  C_2
REMARK    2  A    between atoms: C_4  and  C_5
REMARK    3  A    between atoms: N_7  and  C_8
REMARK    4  A    between atoms: C_8  and  C_9
REMARK    5  A    between atoms: C_8  and  C_16
REMARK    6  A    between atoms: C_9  and  C_10
REMARK    7  A    between atoms: C_20  and  C_21
REMARK                            x       y       z     vdW  Elec       q    Type
REMARK                         _______ _______ _______ _____ _____    ______ ____
ROOT
ATOM      1  C   UNL     1       4.877   5.352  17.985  0.00  0.00    +0.000 C 
ENDROOT
BRANCH   1   2
ATOM      2  C   UNL     1       5.566   4.405  18.985  0.00  0.00    +0.000 C 
ATOM      3  N   UNL     1       5.088   3.123  19.029  0.00  0.00    +0.000 N 
ATOM      4  O   UNL     1       6.366   4.789  19.834  0.00  0.00    +0.000 OA
ATOM      5  H   UNL     1       4.657   2.739  18.198  0.00  0.00    +0.000 HD
ATOM      6  H   UNL     1       5.584   2.489  19.641  0.00  0.00    +0.000 HD
ENDBRANCH   1   2
BRANCH   1   9
ATOM      7  C   UNL     1       6.551   5.040  16.178  0.00  0.00    +0.000 C 
ATOM      8  O   UNL     1       7.498   5.255  16.928  0.00  0.00    +0.000 OA
ATOM      9  N   UNL     1       5.237   5.017  16.601  0.00  0.00    +0.000 N 
ATOM     10  H   UNL     1       4.520   4.935  15.885  0.00  0.00    +0.000 HD
BRANCH   7  14
ATOM     11  C   UNL     1       5.516   2.577  11.972  0.00  0.00    +0.000 C 
ATOM     12  C   UNL     1       6.270   3.601  12.764  0.00  0.00    +0.000 A 
ATOM     13  C   UNL     1       6.038   3.773  14.108  0.00  0.00    +0.000 A 
ATOM     14  C   UNL     1       6.770   4.768  14.723  0.00  0.00    +0.000 A 
ATOM     15  N   UNL     1       7.668   5.561  14.088  0.00  0.00    +0.000 NA
ATOM     16  C   UNL     1       7.812   5.321  12.775  0.00  0.00    +0.000 A 
ATOM     17  C   UNL     1       8.726   6.211  11.990  0.00  0.00    +0.000 C 
ATOM     18  N   UNL     1       7.146   4.374  12.087  0.00  0.00    +0.000 NA
ENDBRANCH   7  14
ENDBRANCH   1   9
BRANCH   1  19
ATOM     19  C   UNL     1       3.362   5.267  18.243  0.00  0.00    +0.000 C 
BRANCH  19  20
ATOM     20  C   UNL     1       2.737   6.578  18.659  0.00  0.00    +0.000 A 
ATOM     21  C   UNL     1       2.268   6.752  19.968  0.00  0.00    +0.000 A 
ATOM     22  C   UNL     1       1.648   7.944  20.346  0.00  0.00    +0.000 A 
ATOM     23  C   UNL     1       1.502   8.978  19.423  0.00  0.00    +0.000 A 
ATOM     24  C   UNL     1       1.998   8.830  18.130  0.00  0.00    +0.000 A 
ATOM     25  C   UNL     1       2.619   7.640  17.750  0.00  0.00    +0.000 A 
ENDBRANCH  19  20
ENDBRANCH   1  19
TORSDOF 5
ENDMDL
MODEL 9
REMARK VINA RESULT:      -7.5      2.654      6.884
REMARK  Name = 
REMARK  7 active torsions:
REMARK  status: ('A' for Active; 'I' for Inactive)
REMARK    1  A    between atoms: C_1  and  C_2
REMARK    2  A    between atoms: C_4  and  C_5
REMARK    3  A    between atoms: N_7  and  C_8
REMARK    4  A    between atoms: C_8  and  C_9
REMARK    5  A    between atoms: C_8  and  C_16
REMARK    6  A    between atoms: C_9  and  C_10
REMARK    7  A    between atoms: C_20  and  C_21
REMARK                            x       y       z     vdW  Elec       q    Type
REMARK                         _______ _______ _______ _____ _____    ______ ____
ROOT
ATOM      1  C   UNL     1       6.001   4.600  16.588  0.00  0.00    +0.000 C 
ENDROOT
BRANCH   1   2
ATOM      2  C   UNL     1       7.424   5.094  16.911  0.00  0.00    +0.000 C 
ATOM      3  N   UNL     1       8.188   4.266  17.688  0.00  0.00    +0.000 N 
ATOM      4  O   UNL     1       7.813   6.231  16.662  0.00  0.00    +0.000 OA
ATOM      5  H   UNL     1       8.001   3.272  17.663  0.00  0.00    +0.000 HD
ATOM      6  H   UNL     1       9.141   4.565  17.844  0.00  0.00    +0.000 HD
ENDBRANCH   1   2
BRANCH   1   9
ATOM      7  C   UNL     1       4.129   3.880  18.052  0.00  0.00    +0.000 C 
ATOM      8  O   UNL     1       4.014   2.798  17.484  0.00  0.00    +0.000 OA
ATOM      9  N   UNL     1       5.095   4.810  17.725  0.00  0.00    +0.000 N 
ATOM     10  H   UNL     1       5.041   5.716  18.183  0.00  0.00    +0.000 HD
BRANCH   7  14
ATOM     11  C   UNL     1       1.507   7.243  20.629  0.00  0.00    +0.000 C 
ATOM     12  C   UNL     1       1.995   5.850  20.368  0.00  0.00    +0.000 A 
ATOM     13  C   UNL     1       2.862   5.583  19.336  0.00  0.00    +0.000 A 
ATOM     14  C   UNL     1       3.215   4.258  19.174  0.00  0.00    +0.000 A 
ATOM     15  N   UNL     1       2.758   3.245  19.950  0.00  0.00    +0.000 NA
ATOM     16  C   UNL     1       1.907   3.610  20.922  0.00  0.00    +0.000 A 
ATOM     17  C   UNL     1       1.297   2.535  21.768  0.00  0.00    +0.000 C 
ATOM     18  N   UNL     1       1.504   4.873  21.160  0.00  0.00    +0.000 NA
ENDBRANCH   7  14
ENDBRANCH   1   9
BRANCH   1  19
ATOM     19  C   UNL     1       5.539   5.333  15.316  0.00  0.00    +0.000 C 
BRANCH  19  20
ATOM     20  C   UNL     1       5.992   4.677  14.032  0.00  0.00    +0.000 A 
ATOM     21  C   UNL     1       7.190   5.073  13.423  0.00  0.00    +0.000 A 
ATOM     22  C   UNL     1       7.590   4.504  12.213  0.00  0.00    +0.000 A 
ATOM     23  C   UNL     1       6.804   3.526  11.607  0.00  0.00    +0.000 A 
ATOM     24  C   UNL     1       5.631   3.098  12.224  0.00  0.00    +0.000 A 
ATOM     25  C   UNL     1       5.229   3.665  13.433  0.00  0.00    +0.000 A 
ENDBRANCH  19  20
ENDBRANCH   1  19
TORSDOF 5
ENDMDL
