MODEL 1
REMARK VINA RESULT:      -6.3      0.000      0.000
REMARK  Name = 
REMARK  14 active torsions:
REMARK  status: ('A' for Active; 'I' for Inactive)
REMARK    1  A    between atoms: C_1  and  C_2
REMARK    2  A    between atoms: C_2  and  C_3
REMARK    3  A    between atoms: C_3  and  C_4
REMARK    4  A    between atoms: C_3  and  C_6
REMARK    5  A    between atoms: C_4  and  C_5
REMARK    6  A    between atoms: C_6  and  O_7
REMARK    7  A    between atoms: O_7  and  C_8
REMARK    8  A    between atoms: C_8  and  C_10
REMARK    9  A    between atoms: C_10  and  C_11
REMARK   10  A    between atoms: C_10  and  N_12
REMARK   11  A    between atoms: N_12  and  P_13
REMARK   12  A    between atoms: C_19  and  N_20
REMARK   13  A    between atoms: C_28  and  C_29
REMARK   14  A    between atoms: C_28  and  O_30
REMARK                            x       y       z     vdW  Elec       q    Type
REMARK                         _______ _______ _______ _____ _____    ______ ____
ROOT
ATOM      1  P   UNL     1      -6.986  12.065  20.930  0.00  0.00    +0.000 P 
ATOM      2  O   UNL     1      -7.590  10.697  20.894  0.00  0.00    +0.000 OA
ATOM      3  O   UNL     1      -7.657  12.996  22.061  0.00  0.00    +0.000 OA
ATOM      4  C   UNL     1      -6.996  14.120  22.621  0.00  0.00    +0.000 C 
ATOM      5  C   UNL     1      -5.681  14.376  21.927  0.00  0.00    +0.000 C 
ATOM      6  O   UNL     1      -4.864  15.413  22.465  0.00  0.00    +0.000 OA
ATOM      7  C   UNL     1      -3.473  15.022  22.221  0.00  0.00    +0.000 C 
ATOM      8  C   UNL     1      -3.522  13.625  21.499  0.00  0.00    +0.000 C 
ATOM      9  C   UNL     1      -2.356  12.683  21.752  0.00  0.00    +0.000 C 
ATOM     10  C   UNL     1      -4.855  13.108  22.029  0.00  0.00    +0.000 C 
ATOM     11  O   UNL     1      -5.431  11.998  21.378  0.00  0.00    +0.000 OA
ENDROOT
BRANCH   7  12
ATOM     12  N   UNL     1      -2.743  15.102  23.486  0.00  0.00    +0.000 N 
ATOM     13  C   UNL     1      -3.319  14.717  24.678  0.00  0.00    +0.000 A 
ATOM     14  C   UNL     1      -2.678  14.863  25.833  0.00  0.00    +0.000 A 
ATOM     15  C   UNL     1      -1.342  15.473  25.749  0.00  0.00    +0.000 A 
ATOM     16  N   UNL     1      -0.652  15.732  26.902  0.00  0.00    +0.000 N 
ATOM     17  N   UNL     1      -0.779  15.806  24.630  0.00  0.00    +0.000 NA
ATOM     18  C   UNL     1      -1.445  15.613  23.443  0.00  0.00    +0.000 A 
ATOM     19  O   UNL     1      -0.919  15.906  22.370  0.00  0.00    +0.000 OA
ATOM     20  H   UNL     1      -1.194  15.948  27.729  0.00  0.00    +0.000 HD
ATOM     21  H   UNL     1       0.115  16.383  26.750  0.00  0.00    +0.000 HD
ENDBRANCH   7  12
BRANCH   1  22
ATOM     22  N   UNL     1      -6.908  12.861  19.500  0.00  0.00    +0.000 NA
ATOM     23  H   UNL     1      -6.108  13.489  19.532  0.00  0.00    +0.000 HD
BRANCH  22  24
ATOM     24  C   UNL     1      -6.836  12.119  18.224  0.00  0.00    +0.000 C 
ATOM     25  C   UNL     1      -6.854  13.067  17.022  0.00  0.00    +0.000 C 
BRANCH  24  26
ATOM     26  C   UNL     1      -5.630  11.166  18.205  0.00  0.00    +0.000 C 
ATOM     27  O   UNL     1      -5.669   9.984  18.522  0.00  0.00    +0.000 OA
BRANCH  26  28
ATOM     28  O   UNL     1      -4.516  11.806  17.742  0.00  0.00    +0.000 OA
BRANCH  28  29
ATOM     29  C   UNL     1      -3.263  11.252  18.171  0.00  0.00    +0.000 C 
BRANCH  29  30
ATOM     30  C   UNL     1      -2.600  10.340  17.124  0.00  0.00    +0.000 C 
BRANCH  30  32
ATOM     31  C   UNL     1      -3.330  10.037  14.678  0.00  0.00    +0.000 C 
ATOM     32  C   UNL     1      -2.699  10.960  15.714  0.00  0.00    +0.000 C 
ENDBRANCH  30  32
BRANCH  30  33
ATOM     33  C   UNL     1      -1.161   9.986  17.560  0.00  0.00    +0.000 C 
ATOM     34  C   UNL     1      -0.849  10.216  19.033  0.00  0.00    +0.000 C 
ENDBRANCH  30  33
ENDBRANCH  29  30
ENDBRANCH  28  29
ENDBRANCH  26  28
ENDBRANCH  24  26
ENDBRANCH  22  24
ENDBRANCH   1  22
BRANCH   8  35
ATOM     35  O   UNL     1      -3.627  13.764  20.060  0.00  0.00    +0.000 OA
ATOM     36  H   UNL     1      -4.437  14.255  19.837  0.00  0.00    +0.000 HD
ENDBRANCH   8  35
TORSDOF 10
ENDMDL
MODEL 2
REMARK VINA RESULT:      -6.0      4.378      6.164
REMARK  Name = 
REMARK  14 active torsions:
REMARK  status: ('A' for Active; 'I' for Inactive)
REMARK    1  A    between atoms: C_1  and  C_2
REMARK    2  A    between atoms: C_2  and  C_3
REMARK    3  A    between atoms: C_3  and  C_4
REMARK    4  A    between atoms: C_3  and  C_6
REMARK    5  A    between atoms: C_4  and  C_5
REMARK    6  A    between atoms: C_6  and  O_7
REMARK    7  A    between atoms: O_7  and  C_8
REMARK    8  A    between atoms: C_8  and  C_10
REMARK    9  A    between atoms: C_10  and  C_11
REMARK   10  A    between atoms: C_10  and  N_12
REMARK   11  A    between atoms: N_12  and  P_13
REMARK   12  A    between atoms: C_19  and  N_20
REMARK   13  A    between atoms: C_28  and  C_29
REMARK   14  A    between atoms: C_28  and  O_30
REMARK                            x       y       z     vdW  Elec       q    Type
REMARK                         _______ _______ _______ _____ _____    ______ ____
ROOT
ATOM      1  P   UNL     1      -0.897  11.258  18.917  0.00  0.00    +0.000 P 
ATOM      2  O   UNL     1      -1.679  10.358  18.015  0.00  0.00    +0.000 OA
ATOM      3  O   UNL     1      -0.651  12.711  18.264  0.00  0.00    +0.000 OA
ATOM      4  C   UNL     1      -0.374  13.864  19.042  0.00  0.00    +0.000 C 
ATOM      5  C   UNL     1      -0.218  13.510  20.501  0.00  0.00    +0.000 C 
ATOM      6  O   UNL     1      -0.045  14.595  21.409  0.00  0.00    +0.000 OA
ATOM      7  C   UNL     1      -0.657  14.185  22.675  0.00  0.00    +0.000 C 
ATOM      8  C   UNL     1      -1.244  12.743  22.442  0.00  0.00    +0.000 C 
ATOM      9  C   UNL     1      -2.477  12.368  23.249  0.00  0.00    +0.000 C 
ATOM     10  C   UNL     1      -1.489  12.806  20.938  0.00  0.00    +0.000 C 
ATOM     11  O   UNL     1      -1.730  11.592  20.265  0.00  0.00    +0.000 OA
ENDROOT
BRANCH   7  12
ATOM     12  N   UNL     1      -1.586  15.231  23.100  0.00  0.00    +0.000 N 
ATOM     13  C   UNL     1      -2.502  15.781  22.228  0.00  0.00    +0.000 A 
ATOM     14  C   UNL     1      -3.292  16.783  22.598  0.00  0.00    +0.000 A 
ATOM     15  C   UNL     1      -3.106  17.267  23.975  0.00  0.00    +0.000 A 
ATOM     16  N   UNL     1      -3.824  18.351  24.405  0.00  0.00    +0.000 N 
ATOM     17  N   UNL     1      -2.272  16.735  24.812  0.00  0.00    +0.000 NA
ATOM     18  C   UNL     1      -1.490  15.674  24.420  0.00  0.00    +0.000 A 
ATOM     19  O   UNL     1      -0.707  15.144  25.207  0.00  0.00    +0.000 OA
ATOM     20  H   UNL     1      -4.075  19.046  23.713  0.00  0.00    +0.000 HD
ATOM     21  H   UNL     1      -3.432  18.757  25.251  0.00  0.00    +0.000 HD
ENDBRANCH   7  12
BRANCH   1  22
ATOM     22  N   UNL     1       0.504  10.649  19.511  0.00  0.00    +0.000 NA
ATOM     23  H   UNL     1       0.451  10.667  20.526  0.00  0.00    +0.000 HD
BRANCH  22  24
ATOM     24  C   UNL     1       0.971   9.303  19.117  0.00  0.00    +0.000 C 
ATOM     25  C   UNL     1       2.000   9.374  17.987  0.00  0.00    +0.000 C 
BRANCH  24  26
ATOM     26  C   UNL     1       1.486   8.517  20.334  0.00  0.00    +0.000 C 
ATOM     27  O   UNL     1       1.240   8.797  21.501  0.00  0.00    +0.000 OA
BRANCH  26  28
ATOM     28  O   UNL     1       2.219   7.437  19.936  0.00  0.00    +0.000 OA
BRANCH  28  29
ATOM     29  C   UNL     1       1.863   6.189  20.549  0.00  0.00    +0.000 C 
BRANCH  29  30
ATOM     30  C   UNL     1       2.500   4.963  19.871  0.00  0.00    +0.000 C 
BRANCH  30  32
ATOM     31  C   UNL     1       0.772   3.061  19.906  0.00  0.00    +0.000 C 
ATOM     32  C   UNL     1       2.025   3.656  20.538  0.00  0.00    +0.000 C 
ENDBRANCH  30  32
BRANCH  30  33
ATOM     33  C   UNL     1       2.264   5.016  18.345  0.00  0.00    +0.000 C 
ATOM     34  C   UNL     1       3.324   4.329  17.495  0.00  0.00    +0.000 C 
ENDBRANCH  30  33
ENDBRANCH  29  30
ENDBRANCH  28  29
ENDBRANCH  26  28
ENDBRANCH  24  26
ENDBRANCH  22  24
ENDBRANCH   1  22
BRANCH   8  35
ATOM     35  O   UNL     1      -0.260  11.711  22.701  0.00  0.00    +0.000 OA
ATOM     36  H   UNL     1       0.557  12.116  23.041  0.00  0.00    +0.000 HD
ENDBRANCH   8  35
TORSDOF 10
ENDMDL
MODEL 3
REMARK VINA RESULT:      -5.9      4.160      5.883
REMARK  Name = 
REMARK  14 active torsions:
REMARK  status: ('A' for Active; 'I' for Inactive)
REMARK    1  A    between atoms: C_1  and  C_2
REMARK    2  A    between atoms: C_2  and  C_3
REMARK    3  A    between atoms: C_3  and  C_4
REMARK    4  A    between atoms: C_3  and  C_6
REMARK    5  A    between atoms: C_4  and  C_5
REMARK    6  A    between atoms: C_6  and  O_7
REMARK    7  A    between atoms: O_7  and  C_8
REMARK    8  A    between atoms: C_8  and  C_10
REMARK    9  A    between atoms: C_10  and  C_11
REMARK   10  A    between atoms: C_10  and  N_12
REMARK   11  A    between atoms: N_12  and  P_13
REMARK   12  A    between atoms: C_19  and  N_20
REMARK   13  A    between atoms: C_28  and  C_29
REMARK   14  A    between atoms: C_28  and  O_30
REMARK                            x       y       z     vdW  Elec       q    Type
REMARK                         _______ _______ _______ _____ _____    ______ ____
ROOT
ATOM      1  P   UNL     1      -1.046  11.532  19.075  0.00  0.00    +0.000 P 
ATOM      2  O   UNL     1      -1.813  10.707  18.092  0.00  0.00    +0.000 OA
ATOM      3  O   UNL     1      -0.798  13.035  18.547  0.00  0.00    +0.000 OA
ATOM      4  C   UNL     1      -0.537  14.122  19.421  0.00  0.00    +0.000 C 
ATOM      5  C   UNL     1      -0.399  13.649  20.847  0.00  0.00    +0.000 C 
ATOM      6  O   UNL     1      -0.243  14.656  21.844  0.00  0.00    +0.000 OA
ATOM      7  C   UNL     1      -0.869  14.141  23.064  0.00  0.00    +0.000 C 
ATOM      8  C   UNL     1      -1.447  12.722  22.705  0.00  0.00    +0.000 C 
ATOM      9  C   UNL     1      -2.689  12.278  23.462  0.00  0.00    +0.000 C 
ATOM     10  C   UNL     1      -1.672  12.907  21.209  0.00  0.00    +0.000 C 
ATOM     11  O   UNL     1      -1.899  11.751  20.435  0.00  0.00    +0.000 OA
ENDROOT
BRANCH   7  12
ATOM     12  N   UNL     1      -1.809  15.146  23.560  0.00  0.00    +0.000 N 
ATOM     13  C   UNL     1      -2.844  15.615  22.779  0.00  0.00    +0.000 A 
ATOM     14  C   UNL     1      -3.648  16.581  23.208  0.00  0.00    +0.000 A 
ATOM     15  C   UNL     1      -3.346  17.119  24.544  0.00  0.00    +0.000 A 
ATOM     16  N   UNL     1      -4.077  18.173  25.022  0.00  0.00    +0.000 N 
ATOM     17  N   UNL     1      -2.397  16.662  25.298  0.00  0.00    +0.000 NA
ATOM     18  C   UNL     1      -1.599  15.635  24.851  0.00  0.00    +0.000 A 
ATOM     19  O   UNL     1      -0.705  15.176  25.561  0.00  0.00    +0.000 OA
ATOM     20  H   UNL     1      -4.442  18.830  24.344  0.00  0.00    +0.000 HD
ATOM     21  H   UNL     1      -3.622  18.627  25.809  0.00  0.00    +0.000 HD
ENDBRANCH   7  12
BRANCH   1  22
ATOM     22  N   UNL     1       0.350  10.881  19.635  0.00  0.00    +0.000 NA
ATOM     23  H   UNL     1       0.308  10.874  20.652  0.00  0.00    +0.000 HD
BRANCH  22  24
ATOM     24  C   UNL     1       0.786   9.538  19.201  0.00  0.00    +0.000 C 
ATOM     25  C   UNL     1       1.766   9.618  18.029  0.00  0.00    +0.000 C 
BRANCH  24  26
ATOM     26  C   UNL     1       1.345   8.728  20.382  0.00  0.00    +0.000 C 
ATOM     27  O   UNL     1       0.956   8.823  21.540  0.00  0.00    +0.000 OA
BRANCH  26  28
ATOM     28  O   UNL     1       2.305   7.855  19.958  0.00  0.00    +0.000 OA
BRANCH  28  29
ATOM     29  C   UNL     1       1.973   6.464  20.082  0.00  0.00    +0.000 C 
BRANCH  29  30
ATOM     30  C   UNL     1       2.353   5.626  18.849  0.00  0.00    +0.000 C 
BRANCH  30  32
ATOM     31  C   UNL     1       4.185   6.559  17.306  0.00  0.00    +0.000 C 
ATOM     32  C   UNL     1       3.863   5.741  18.551  0.00  0.00    +0.000 C 
ENDBRANCH  30  32
BRANCH  30  33
ATOM     33  C   UNL     1       1.850   4.175  19.015  0.00  0.00    +0.000 C 
ATOM     34  C   UNL     1       0.979   3.921  20.237  0.00  0.00    +0.000 C 
ENDBRANCH  30  33
ENDBRANCH  29  30
ENDBRANCH  28  29
ENDBRANCH  26  28
ENDBRANCH  24  26
ENDBRANCH  22  24
ENDBRANCH   1  22
BRANCH   8  35
ATOM     35  O   UNL     1      -0.461  11.675  22.892  0.00  0.00    +0.000 OA
ATOM     36  H   UNL     1      -0.907  10.811  22.944  0.00  0.00    +0.000 HD
ENDBRANCH   8  35
TORSDOF 10
ENDMDL
MODEL 4
REMARK VINA RESULT:      -5.9      4.951      7.445
REMARK  Name = 
REMARK  14 active torsions:
REMARK  status: ('A' for Active; 'I' for Inactive)
REMARK    1  A    between atoms: C_1  and  C_2
REMARK    2  A    between atoms: C_2  and  C_3
REMARK    3  A    between atoms: C_3  and  C_4
REMARK    4  A    between atoms: C_3  and  C_6
REMARK    5  A    between atoms: C_4  and  C_5
REMARK    6  A    between atoms: C_6  and  O_7
REMARK    7  A    between atoms: O_7  and  C_8
REMARK    8  A    between atoms: C_8  and  C_10
REMARK    9  A    between atoms: C_10  and  C_11
REMARK   10  A    between atoms: C_10  and  N_12
REMARK   11  A    between atoms: N_12  and  P_13
REMARK   12  A    between atoms: C_19  and  N_20
REMARK   13  A    between atoms: C_28  and  C_29
REMARK   14  A    between atoms: C_28  and  O_30
REMARK                            x       y       z     vdW  Elec       q    Type
REMARK                         _______ _______ _______ _____ _____    ______ ____
ROOT
ATOM      1  P   UNL     1      -2.861  13.530  20.973  0.00  0.00    +0.000 P 
ATOM      2  O   UNL     1      -4.300  13.619  21.369  0.00  0.00    +0.000 OA
ATOM      3  O   UNL     1      -1.893  13.306  22.242  0.00  0.00    +0.000 OA
ATOM      4  C   UNL     1      -0.600  12.732  22.128  0.00  0.00    +0.000 C 
ATOM      5  C   UNL     1      -0.235  12.500  20.683  0.00  0.00    +0.000 C 
ATOM      6  O   UNL     1       0.996  11.826  20.433  0.00  0.00    +0.000 OA
ATOM      7  C   UNL     1       0.813  11.061  19.197  0.00  0.00    +0.000 C 
ATOM      8  C   UNL     1      -0.667  11.317  18.728  0.00  0.00    +0.000 C 
ATOM      9  C   UNL     1      -1.346  10.192  17.964  0.00  0.00    +0.000 C 
ATOM     10  C   UNL     1      -1.313  11.625  20.074  0.00  0.00    +0.000 C 
ATOM     11  O   UNL     1      -2.592  12.217  20.063  0.00  0.00    +0.000 OA
ENDROOT
BRANCH   7  12
ATOM     12  N   UNL     1       1.211   9.676  19.448  0.00  0.00    +0.000 N 
ATOM     13  C   UNL     1       0.934   9.052  20.646  0.00  0.00    +0.000 A 
ATOM     14  C   UNL     1       1.364   7.820  20.897  0.00  0.00    +0.000 A 
ATOM     15  C   UNL     1       2.160   7.191  19.831  0.00  0.00    +0.000 A 
ATOM     16  N   UNL     1       2.708   5.955  20.045  0.00  0.00    +0.000 N 
ATOM     17  N   UNL     1       2.397   7.758  18.689  0.00  0.00    +0.000 NA
ATOM     18  C   UNL     1       1.911   9.019  18.435  0.00  0.00    +0.000 A 
ATOM     19  O   UNL     1       2.110   9.565  17.351  0.00  0.00    +0.000 OA
ATOM     20  H   UNL     1       2.964   5.720  20.996  0.00  0.00    +0.000 HD
ATOM     21  H   UNL     1       3.441   5.741  19.373  0.00  0.00    +0.000 HD
ENDBRANCH   7  12
BRANCH   1  22
ATOM     22  N   UNL     1      -2.294  14.740  20.023  0.00  0.00    +0.000 NA
ATOM     23  H   UNL     1      -2.895  14.806  19.205  0.00  0.00    +0.000 HD
BRANCH  22  24
ATOM     24  C   UNL     1      -2.125  16.106  20.559  0.00  0.00    +0.000 C 
ATOM     25  C   UNL     1      -3.020  16.346  21.777  0.00  0.00    +0.000 C 
BRANCH  24  26
ATOM     26  C   UNL     1      -0.645  16.409  20.846  0.00  0.00    +0.000 C 
ATOM     27  O   UNL     1      -0.072  16.157  21.899  0.00  0.00    +0.000 OA
BRANCH  26  28
ATOM     28  O   UNL     1      -0.043  16.958  19.751  0.00  0.00    +0.000 OA
BRANCH  28  29
ATOM     29  C   UNL     1       0.999  16.169  19.159  0.00  0.00    +0.000 C 
BRANCH  29  30
ATOM     30  C   UNL     1       1.595  16.791  17.883  0.00  0.00    +0.000 C 
BRANCH  30  32
ATOM     31  C   UNL     1       0.223  18.420  16.444  0.00  0.00    +0.000 C 
ATOM     32  C   UNL     1       1.087  18.234  17.686  0.00  0.00    +0.000 C 
ENDBRANCH  30  32
BRANCH  30  33
ATOM     33  C   UNL     1       3.134  16.657  17.893  0.00  0.00    +0.000 C 
ATOM     34  C   UNL     1       3.766  16.485  19.268  0.00  0.00    +0.000 C 
ENDBRANCH  30  33
ENDBRANCH  29  30
ENDBRANCH  28  29
ENDBRANCH  26  28
ENDBRANCH  24  26
ENDBRANCH  22  24
ENDBRANCH   1  22
BRANCH   8  35
ATOM     35  O   UNL     1      -0.772  12.497  17.891  0.00  0.00    +0.000 OA
ATOM     36  H   UNL     1       0.061  13.000  17.930  0.00  0.00    +0.000 HD
ENDBRANCH   8  35
TORSDOF 10
ENDMDL
MODEL 5
REMARK VINA RESULT:      -5.9      4.557      6.342
REMARK  Name = 
REMARK  14 active torsions:
REMARK  status: ('A' for Active; 'I' for Inactive)
REMARK    1  A    between atoms: C_1  and  C_2
REMARK    2  A    between atoms: C_2  and  C_3
REMARK    3  A    between atoms: C_3  and  C_4
REMARK    4  A    between atoms: C_3  and  C_6
REMARK    5  A    between atoms: C_4  and  C_5
REMARK    6  A    between atoms: C_6  and  O_7
REMARK    7  A    between atoms: O_7  and  C_8
REMARK    8  A    between atoms: C_8  and  C_10
REMARK    9  A    between atoms: C_10  and  C_11
REMARK   10  A    between atoms: C_10  and  N_12
REMARK   11  A    between atoms: N_12  and  P_13
REMARK   12  A    between atoms: C_19  and  N_20
REMARK   13  A    between atoms: C_28  and  C_29
REMARK   14  A    between atoms: C_28  and  O_30
REMARK                            x       y       z     vdW  Elec       q    Type
REMARK                         _______ _______ _______ _____ _____    ______ ____
ROOT
ATOM      1  P   UNL     1      -0.585  11.008  18.943  0.00  0.00    +0.000 P 
ATOM      2  O   UNL     1      -1.374  10.137  18.020  0.00  0.00    +0.000 OA
ATOM      3  O   UNL     1      -0.150  12.395  18.246  0.00  0.00    +0.000 OA
ATOM      4  C   UNL     1       0.172  13.560  18.991  0.00  0.00    +0.000 C 
ATOM      5  C   UNL     1       0.175  13.272  20.472  0.00  0.00    +0.000 C 
ATOM      6  O   UNL     1       0.377  14.384  21.341  0.00  0.00    +0.000 OA
ATOM      7  C   UNL     1      -0.371  14.101  22.568  0.00  0.00    +0.000 C 
ATOM      8  C   UNL     1      -1.072  12.708  22.352  0.00  0.00    +0.000 C 
ATOM      9  C   UNL     1      -2.397  12.491  23.068  0.00  0.00    +0.000 C 
ATOM     10  C   UNL     1      -1.188  12.712  20.832  0.00  0.00    +0.000 C 
ATOM     11  O   UNL     1      -1.489  11.490  20.198  0.00  0.00    +0.000 OA
ENDROOT
BRANCH   7  12
ATOM     12  N   UNL     1      -1.227  15.249  22.863  0.00  0.00    +0.000 N 
ATOM     13  C   UNL     1      -1.916  15.910  21.868  0.00  0.00    +0.000 A 
ATOM     14  C   UNL     1      -2.633  16.997  22.130  0.00  0.00    +0.000 A 
ATOM     15  C   UNL     1      -2.620  17.448  23.531  0.00  0.00    +0.000 A 
ATOM     16  N   UNL     1      -3.266  18.607  23.867  0.00  0.00    +0.000 N 
ATOM     17  N   UNL     1      -2.004  16.814  24.479  0.00  0.00    +0.000 NA
ATOM     18  C   UNL     1      -1.298  15.669  24.192  0.00  0.00    +0.000 A 
ATOM     19  O   UNL     1      -0.722  15.043  25.081  0.00  0.00    +0.000 OA
ATOM     20  H   UNL     1      -3.316  19.332  23.162  0.00  0.00    +0.000 HD
ATOM     21  H   UNL     1      -2.973  18.958  24.776  0.00  0.00    +0.000 HD
ENDBRANCH   7  12
BRANCH   1  22
ATOM     22  N   UNL     1       0.699  10.307  19.681  0.00  0.00    +0.000 NA
ATOM     23  H   UNL     1       0.532  10.321  20.684  0.00  0.00    +0.000 HD
BRANCH  22  24
ATOM     24  C   UNL     1       1.122   8.938  19.323  0.00  0.00    +0.000 C 
ATOM     25  C   UNL     1       2.144   8.946  18.183  0.00  0.00    +0.000 C 
BRANCH  24  26
ATOM     26  C   UNL     1       1.624   8.172  20.558  0.00  0.00    +0.000 C 
ATOM     27  O   UNL     1       1.487   8.548  21.716  0.00  0.00    +0.000 OA
BRANCH  26  28
ATOM     28  O   UNL     1       2.206   6.993  20.192  0.00  0.00    +0.000 OA
BRANCH  28  29
ATOM     29  C   UNL     1       1.517   5.807  20.616  0.00  0.00    +0.000 C 
BRANCH  29  30
ATOM     30  C   UNL     1       1.662   4.626  19.640  0.00  0.00    +0.000 C 
BRANCH  30  32
ATOM     31  C   UNL     1       3.179   4.233  17.603  0.00  0.00    +0.000 C 
ATOM     32  C   UNL     1       2.118   5.115  18.249  0.00  0.00    +0.000 C 
ENDBRANCH  30  32
BRANCH  30  33
ATOM     33  C   UNL     1       2.566   3.534  20.254  0.00  0.00    +0.000 C 
ATOM     34  C   UNL     1       2.294   3.208  21.716  0.00  0.00    +0.000 C 
ENDBRANCH  30  33
ENDBRANCH  29  30
ENDBRANCH  28  29
ENDBRANCH  26  28
ENDBRANCH  24  26
ENDBRANCH  22  24
ENDBRANCH   1  22
BRANCH   8  35
ATOM     35  O   UNL     1      -0.215  11.606  22.742  0.00  0.00    +0.000 OA
ATOM     36  H   UNL     1      -0.177  10.951  22.023  0.00  0.00    +0.000 HD
ENDBRANCH   8  35
TORSDOF 10
ENDMDL
MODEL 6
REMARK VINA RESULT:      -5.8      0.980      1.632
REMARK  Name = 
REMARK  14 active torsions:
REMARK  status: ('A' for Active; 'I' for Inactive)
REMARK    1  A    between atoms: C_1  and  C_2
REMARK    2  A    between atoms: C_2  and  C_3
REMARK    3  A    between atoms: C_3  and  C_4
REMARK    4  A    between atoms: C_3  and  C_6
REMARK    5  A    between atoms: C_4  and  C_5
REMARK    6  A    between atoms: C_6  and  O_7
REMARK    7  A    between atoms: O_7  and  C_8
REMARK    8  A    between atoms: C_8  and  C_10
REMARK    9  A    between atoms: C_10  and  C_11
REMARK   10  A    between atoms: C_10  and  N_12
REMARK   11  A    between atoms: N_12  and  P_13
REMARK   12  A    between atoms: C_19  and  N_20
REMARK   13  A    between atoms: C_28  and  C_29
REMARK   14  A    between atoms: C_28  and  O_30
REMARK                            x       y       z     vdW  Elec       q    Type
REMARK                         _______ _______ _______ _____ _____    ______ ____
ROOT
ATOM      1  P   UNL     1      -6.839  12.528  21.895  0.00  0.00    +0.000 P 
ATOM      2  O   UNL     1      -7.647  11.298  22.157  0.00  0.00    +0.000 OA
ATOM      3  O   UNL     1      -7.320  13.776  22.794  0.00  0.00    +0.000 OA
ATOM      4  C   UNL     1      -6.475  14.875  23.095  0.00  0.00    +0.000 C 
ATOM      5  C   UNL     1      -5.160  14.764  22.364  0.00  0.00    +0.000 C 
ATOM      6  O   UNL     1      -4.175  15.750  22.664  0.00  0.00    +0.000 OA
ATOM      7  C   UNL     1      -2.871  15.101  22.514  0.00  0.00    +0.000 C 
ATOM      8  C   UNL     1      -3.159  13.606  22.115  0.00  0.00    +0.000 C 
ATOM      9  C   UNL     1      -2.144  12.569  22.569  0.00  0.00    +0.000 C 
ATOM     10  C   UNL     1      -4.538  13.434  22.742  0.00  0.00    +0.000 C 
ATOM     11  O   UNL     1      -5.299  12.314  22.349  0.00  0.00    +0.000 OA
ENDROOT
BRANCH   7  12
ATOM     12  N   UNL     1      -2.096  15.336  23.732  0.00  0.00    +0.000 N 
ATOM     13  C   UNL     1      -2.656  15.193  24.984  0.00  0.00    +0.000 A 
ATOM     14  C   UNL     1      -1.970  15.481  26.084  0.00  0.00    +0.000 A 
ATOM     15  C   UNL     1      -0.600  15.974  25.871  0.00  0.00    +0.000 A 
ATOM     16  N   UNL     1       0.144  16.370  26.951  0.00  0.00    +0.000 N 
ATOM     17  N   UNL     1      -0.053  16.078  24.701  0.00  0.00    +0.000 NA
ATOM     18  C   UNL     1      -0.769  15.740  23.577  0.00  0.00    +0.000 A 
ATOM     19  O   UNL     1      -0.260  15.815  22.459  0.00  0.00    +0.000 OA
ATOM     20  H   UNL     1      -0.356  16.756  27.742  0.00  0.00    +0.000 HD
ATOM     21  H   UNL     1       0.946  16.931  26.676  0.00  0.00    +0.000 HD
ENDBRANCH   7  12
BRANCH   1  22
ATOM     22  N   UNL     1      -6.685  12.974  20.325  0.00  0.00    +0.000 NA
ATOM     23  H   UNL     1      -5.693  13.010  20.103  0.00  0.00    +0.000 HD
BRANCH  22  24
ATOM     24  C   UNL     1      -7.350  12.205  19.252  0.00  0.00    +0.000 C 
ATOM     25  C   UNL     1      -7.724  13.102  18.069  0.00  0.00    +0.000 C 
BRANCH  24  26
ATOM     26  C   UNL     1      -6.500  10.996  18.830  0.00  0.00    +0.000 C 
ATOM     27  O   UNL     1      -6.930   9.859  18.680  0.00  0.00    +0.000 OA
BRANCH  26  28
ATOM     28  O   UNL     1      -5.208  11.370  18.600  0.00  0.00    +0.000 OA
BRANCH  28  29
ATOM     29  C   UNL     1      -4.906  11.749  17.249  0.00  0.00    +0.000 C 
BRANCH  29  30
ATOM     30  C   UNL     1      -3.563  11.196  16.738  0.00  0.00    +0.000 C 
BRANCH  30  32
ATOM     31  C   UNL     1      -1.786  10.188  18.297  0.00  0.00    +0.000 C 
ATOM     32  C   UNL     1      -3.114   9.982  17.577  0.00  0.00    +0.000 C 
ENDBRANCH  30  32
BRANCH  30  33
ATOM     33  C   UNL     1      -3.644  10.921  15.219  0.00  0.00    +0.000 C 
ATOM     34  C   UNL     1      -2.762   9.787  14.714  0.00  0.00    +0.000 C 
ENDBRANCH  30  33
ENDBRANCH  29  30
ENDBRANCH  28  29
ENDBRANCH  26  28
ENDBRANCH  24  26
ENDBRANCH  22  24
ENDBRANCH   1  22
BRANCH   8  35
ATOM     35  O   UNL     1      -3.288  13.446  20.680  0.00  0.00    +0.000 OA
ATOM     36  H   UNL     1      -3.807  14.184  20.314  0.00  0.00    +0.000 HD
ENDBRANCH   8  35
TORSDOF 10
ENDMDL
MODEL 7
REMARK VINA RESULT:      -5.7      4.183      5.820
REMARK  Name = 
REMARK  14 active torsions:
REMARK  status: ('A' for Active; 'I' for Inactive)
REMARK    1  A    between atoms: C_1  and  C_2
REMARK    2  A    between atoms: C_2  and  C_3
REMARK    3  A    between atoms: C_3  and  C_4
REMARK    4  A    between atoms: C_3  and  C_6
REMARK    5  A    between atoms: C_4  and  C_5
REMARK    6  A    between atoms: C_6  and  O_7
REMARK    7  A    between atoms: O_7  and  C_8
REMARK    8  A    between atoms: C_8  and  C_10
REMARK    9  A    between atoms: C_10  and  C_11
REMARK   10  A    between atoms: C_10  and  N_12
REMARK   11  A    between atoms: N_12  and  P_13
REMARK   12  A    between atoms: C_19  and  N_20
REMARK   13  A    between atoms: C_28  and  C_29
REMARK   14  A    between atoms: C_28  and  O_30
REMARK                            x       y       z     vdW  Elec       q    Type
REMARK                         _______ _______ _______ _____ _____    ______ ____
ROOT
ATOM      1  P   UNL     1      -1.220  11.594  19.132  0.00  0.00    +0.000 P 
ATOM      2  O   UNL     1      -1.985  10.800  18.122  0.00  0.00    +0.000 OA
ATOM      3  O   UNL     1      -1.014  13.125  18.672  0.00  0.00    +0.000 OA
ATOM      4  C   UNL     1      -0.762  14.175  19.593  0.00  0.00    +0.000 C 
ATOM      5  C   UNL     1      -0.591  13.638  20.993  0.00  0.00    +0.000 C 
ATOM      6  O   UNL     1      -0.440  14.601  22.034  0.00  0.00    +0.000 OA
ATOM      7  C   UNL     1      -1.036  14.014  23.237  0.00  0.00    +0.000 C 
ATOM      8  C   UNL     1      -1.588  12.601  22.820  0.00  0.00    +0.000 C 
ATOM      9  C   UNL     1      -2.808  12.094  23.573  0.00  0.00    +0.000 C 
ATOM     10  C   UNL     1      -1.841  12.852  21.338  0.00  0.00    +0.000 C 
ATOM     11  O   UNL     1      -2.056  11.729  20.513  0.00  0.00    +0.000 OA
ENDROOT
BRANCH   7  12
ATOM     12  N   UNL     1      -1.989  14.973  23.795  0.00  0.00    +0.000 N 
ATOM     13  C   UNL     1      -3.163  15.285  23.145  0.00  0.00    +0.000 A 
ATOM     14  C   UNL     1      -3.989  16.212  23.618  0.00  0.00    +0.000 A 
ATOM     15  C   UNL     1      -3.555  16.883  24.854  0.00  0.00    +0.000 A 
ATOM     16  N   UNL     1      -4.310  17.907  25.359  0.00  0.00    +0.000 N 
ATOM     17  N   UNL     1      -2.470  16.573  25.490  0.00  0.00    +0.000 NA
ATOM     18  C   UNL     1      -1.647  15.585  25.003  0.00  0.00    +0.000 A 
ATOM     19  O   UNL     1      -0.623  15.264  25.603  0.00  0.00    +0.000 OA
ATOM     20  H   UNL     1      -4.828  18.472  24.698  0.00  0.00    +0.000 HD
ATOM     21  H   UNL     1      -3.794  18.463  26.037  0.00  0.00    +0.000 HD
ENDBRANCH   7  12
BRANCH   1  22
ATOM     22  N   UNL     1       0.198  10.948  19.639  0.00  0.00    +0.000 NA
ATOM     23  H   UNL     1       0.014  10.403  20.478  0.00  0.00    +0.000 HD
BRANCH  22  24
ATOM     24  C   UNL     1       1.013  10.109  18.737  0.00  0.00    +0.000 C 
ATOM     25  C   UNL     1       2.118  10.923  18.060  0.00  0.00    +0.000 C 
BRANCH  24  26
ATOM     26  C   UNL     1       1.557   8.873  19.470  0.00  0.00    +0.000 C 
ATOM     27  O   UNL     1       1.305   8.584  20.634  0.00  0.00    +0.000 OA
BRANCH  26  28
ATOM     28  O   UNL     1       2.325   8.114  18.635  0.00  0.00    +0.000 OA
BRANCH  28  29
ATOM     29  C   UNL     1       2.571   6.770  19.072  0.00  0.00    +0.000 C 
BRANCH  29  30
ATOM     30  C   UNL     1       3.692   6.061  18.291  0.00  0.00    +0.000 C 
BRANCH  30  32
ATOM     31  C   UNL     1       1.695   4.526  17.781  0.00  0.00    +0.000 C 
ATOM     32  C   UNL     1       3.209   4.700  17.750  0.00  0.00    +0.000 C 
ENDBRANCH  30  32
BRANCH  30  33
ATOM     33  C   UNL     1       4.267   7.004  17.211  0.00  0.00    +0.000 C 
ATOM     34  C   UNL     1       5.151   6.337  16.165  0.00  0.00    +0.000 C 
ENDBRANCH  30  33
ENDBRANCH  29  30
ENDBRANCH  28  29
ENDBRANCH  26  28
ENDBRANCH  24  26
ENDBRANCH  22  24
ENDBRANCH   1  22
BRANCH   8  35
ATOM     35  O   UNL     1      -0.577  11.569  22.942  0.00  0.00    +0.000 OA
ATOM     36  H   UNL     1      -0.822  10.805  22.390  0.00  0.00    +0.000 HD
ENDBRANCH   8  35
TORSDOF 10
ENDMDL
MODEL 8
REMARK VINA RESULT:      -5.7      4.368      6.106
REMARK  Name = 
REMARK  14 active torsions:
REMARK  status: ('A' for Active; 'I' for Inactive)
REMARK    1  A    between atoms: C_1  and  C_2
REMARK    2  A    between atoms: C_2  and  C_3
REMARK    3  A    between atoms: C_3  and  C_4
REMARK    4  A    between atoms: C_3  and  C_6
REMARK    5  A    between atoms: C_4  and  C_5
REMARK    6  A    between atoms: C_6  and  O_7
REMARK    7  A    between atoms: O_7  and  C_8
REMARK    8  A    between atoms: C_8  and  C_10
REMARK    9  A    between atoms: C_10  and  C_11
REMARK   10  A    between atoms: C_10  and  N_12
REMARK   11  A    between atoms: N_12  and  P_13
REMARK   12  A    between atoms: C_19  and  N_20
REMARK   13  A    between atoms: C_28  and  C_29
REMARK   14  A    between atoms: C_28  and  O_30
REMARK                            x       y       z     vdW  Elec       q    Type
REMARK                         _______ _______ _______ _____ _____    ______ ____
ROOT
ATOM      1  P   UNL     1      -0.628  11.206  18.812  0.00  0.00    +0.000 P 
ATOM      2  O   UNL     1      -1.187  10.155  17.907  0.00  0.00    +0.000 OA
ATOM      3  O   UNL     1      -0.886  12.694  18.247  0.00  0.00    +0.000 OA
ATOM      4  C   UNL     1      -0.895  13.841  19.082  0.00  0.00    +0.000 C 
ATOM      5  C   UNL     1      -0.510  13.484  20.497  0.00  0.00    +0.000 C 
ATOM      6  O   UNL     1      -0.586  14.528  21.465  0.00  0.00    +0.000 OA
ATOM      7  C   UNL     1      -0.930  13.895  22.740  0.00  0.00    +0.000 C 
ATOM      8  C   UNL     1      -1.081  12.356  22.448  0.00  0.00    +0.000 C 
ATOM      9  C   UNL     1      -2.069  11.590  23.314  0.00  0.00    +0.000 C 
ATOM     10  C   UNL     1      -1.468  12.411  20.975  0.00  0.00    +0.000 C 
ATOM     11  O   UNL     1      -1.398  11.212  20.237  0.00  0.00    +0.000 OA
ENDROOT
BRANCH   7  12
ATOM     12  N   UNL     1      -2.086  14.591  23.303  0.00  0.00    +0.000 N 
ATOM     13  C   UNL     1      -3.252  14.753  22.586  0.00  0.00    +0.000 A 
ATOM     14  C   UNL     1      -4.272  15.451  23.074  0.00  0.00    +0.000 A 
ATOM     15  C   UNL     1      -4.060  16.046  24.403  0.00  0.00    +0.000 A 
ATOM     16  N   UNL     1      -5.032  16.848  24.939  0.00  0.00    +0.000 N 
ATOM     17  N   UNL     1      -2.981  15.871  25.099  0.00  0.00    +0.000 NA
ATOM     18  C   UNL     1      -1.952  15.114  24.591  0.00  0.00    +0.000 A 
ATOM     19  O   UNL     1      -0.928  14.922  25.245  0.00  0.00    +0.000 OA
ATOM     20  H   UNL     1      -5.603  17.379  24.294  0.00  0.00    +0.000 HD
ATOM     21  H   UNL     1      -4.680  17.409  25.711  0.00  0.00    +0.000 HD
ENDBRANCH   7  12
BRANCH   1  22
ATOM     22  N   UNL     1       0.938  11.023  19.257  0.00  0.00    +0.000 NA
ATOM     23  H   UNL     1       1.130  11.679  20.010  0.00  0.00    +0.000 HD
BRANCH  22  24
ATOM     24  C   UNL     1       1.455   9.704  19.678  0.00  0.00    +0.000 C 
ATOM     25  C   UNL     1       0.431   8.944  20.524  0.00  0.00    +0.000 C 
BRANCH  24  26
ATOM     26  C   UNL     1       1.941   8.889  18.468  0.00  0.00    +0.000 C 
ATOM     27  O   UNL     1       2.075   9.333  17.335  0.00  0.00    +0.000 OA
BRANCH  26  28
ATOM     28  O   UNL     1       2.247   7.611  18.839  0.00  0.00    +0.000 OA
BRANCH  28  29
ATOM     29  C   UNL     1       3.289   6.980  18.079  0.00  0.00    +0.000 C 
BRANCH  29  30
ATOM     30  C   UNL     1       3.592   5.538  18.524  0.00  0.00    +0.000 C 
BRANCH  30  32
ATOM     31  C   UNL     1       1.525   4.325  17.595  0.00  0.00    +0.000 C 
ATOM     32  C   UNL     1       2.288   4.774  18.836  0.00  0.00    +0.000 C 
ENDBRANCH  30  32
BRANCH  30  33
ATOM     33  C   UNL     1       4.502   4.841  17.489  0.00  0.00    +0.000 C 
ATOM     34  C   UNL     1       4.951   5.711  16.323  0.00  0.00    +0.000 C 
ENDBRANCH  30  33
ENDBRANCH  29  30
ENDBRANCH  28  29
ENDBRANCH  26  28
ENDBRANCH  24  26
ENDBRANCH  22  24
ENDBRANCH   1  22
BRANCH   8  35
ATOM     35  O   UNL     1       0.184  11.658  22.562  0.00  0.00    +0.000 OA
ATOM     36  H   UNL     1       0.470  11.354  21.682  0.00  0.00    +0.000 HD
ENDBRANCH   8  35
TORSDOF 10
ENDMDL
MODEL 9
REMARK VINA RESULT:      -5.7      4.343      6.152
REMARK  Name = 
REMARK  14 active torsions:
REMARK  status: ('A' for Active; 'I' for Inactive)
REMARK    1  A    between atoms: C_1  and  C_2
REMARK    2  A    between atoms: C_2  and  C_3
REMARK    3  A    between atoms: C_3  and  C_4
REMARK    4  A    between atoms: C_3  and  C_6
REMARK    5  A    between atoms: C_4  and  C_5
REMARK    6  A    between atoms: C_6  and  O_7
REMARK    7  A    between atoms: O_7  and  C_8
REMARK    8  A    between atoms: C_8  and  C_10
REMARK    9  A    between atoms: C_10  and  C_11
REMARK   10  A    between atoms: C_10  and  N_12
REMARK   11  A    between atoms: N_12  and  P_13
REMARK   12  A    between atoms: C_19  and  N_20
REMARK   13  A    between atoms: C_28  and  C_29
REMARK   14  A    between atoms: C_28  and  O_30
REMARK                            x       y       z     vdW  Elec       q    Type
REMARK                         _______ _______ _______ _____ _____    ______ ____
ROOT
ATOM      1  P   UNL     1      -0.644  11.264  18.795  0.00  0.00    +0.000 P 
ATOM      2  O   UNL     1      -1.219  10.232  17.880  0.00  0.00    +0.000 OA
ATOM      3  O   UNL     1      -0.849  12.760  18.231  0.00  0.00    +0.000 OA
ATOM      4  C   UNL     1      -0.837  13.904  19.070  0.00  0.00    +0.000 C 
ATOM      5  C   UNL     1      -0.483  13.532  20.489  0.00  0.00    +0.000 C 
ATOM      6  O   UNL     1      -0.542  14.576  21.459  0.00  0.00    +0.000 OA
ATOM      7  C   UNL     1      -0.923  13.950  22.727  0.00  0.00    +0.000 C 
ATOM      8  C   UNL     1      -1.115  12.417  22.428  0.00  0.00    +0.000 C 
ATOM      9  C   UNL     1      -2.137  11.677  23.278  0.00  0.00    +0.000 C 
ATOM     10  C   UNL     1      -1.479  12.486  20.950  0.00  0.00    +0.000 C 
ATOM     11  O   UNL     1      -1.433  11.288  20.209  0.00  0.00    +0.000 OA
ENDROOT
BRANCH   7  12
ATOM     12  N   UNL     1      -2.066  14.678  23.276  0.00  0.00    +0.000 N 
ATOM     13  C   UNL     1      -3.236  14.831  22.562  0.00  0.00    +0.000 A 
ATOM     14  C   UNL     1      -4.243  15.557  23.035  0.00  0.00    +0.000 A 
ATOM     15  C   UNL     1      -4.014  16.192  24.342  0.00  0.00    +0.000 A 
ATOM     16  N   UNL     1      -4.972  17.022  24.859  0.00  0.00    +0.000 N 
ATOM     17  N   UNL     1      -2.932  16.026  25.035  0.00  0.00    +0.000 NA
ATOM     18  C   UNL     1      -1.916  15.240  24.544  0.00  0.00    +0.000 A 
ATOM     19  O   UNL     1      -0.889  15.057  25.197  0.00  0.00    +0.000 OA
ATOM     20  H   UNL     1      -5.542  17.539  24.201  0.00  0.00    +0.000 HD
ATOM     21  H   UNL     1      -4.607  17.604  25.610  0.00  0.00    +0.000 HD
ENDBRANCH   7  12
BRANCH   1  22
ATOM     22  N   UNL     1       0.910  11.034  19.262  0.00  0.00    +0.000 NA
ATOM     23  H   UNL     1       1.125  11.713  19.988  0.00  0.00    +0.000 HD
BRANCH  22  24
ATOM     24  C   UNL     1       1.367   9.713  19.743  0.00  0.00    +0.000 C 
ATOM     25  C   UNL     1       0.277   9.001  20.547  0.00  0.00    +0.000 C 
BRANCH  24  26
ATOM     26  C   UNL     1       1.899   8.856  18.583  0.00  0.00    +0.000 C 
ATOM     27  O   UNL     1       2.026   9.244  17.429  0.00  0.00    +0.000 OA
BRANCH  26  28
ATOM     28  O   UNL     1       2.254   7.613  19.025  0.00  0.00    +0.000 OA
BRANCH  28  29
ATOM     29  C   UNL     1       2.389   6.611  18.006  0.00  0.00    +0.000 C 
BRANCH  29  30
ATOM     30  C   UNL     1       2.881   5.253  18.537  0.00  0.00    +0.000 C 
BRANCH  30  32
ATOM     31  C   UNL     1       5.358   5.103  19.208  0.00  0.00    +0.000 C 
ATOM     32  C   UNL     1       4.332   4.981  18.087  0.00  0.00    +0.000 C 
ENDBRANCH  30  32
BRANCH  30  33
ATOM     33  C   UNL     1       2.666   5.168  20.064  0.00  0.00    +0.000 C 
ATOM     34  C   UNL     1       1.350   4.540  20.504  0.00  0.00    +0.000 C 
ENDBRANCH  30  33
ENDBRANCH  29  30
ENDBRANCH  28  29
ENDBRANCH  26  28
ENDBRANCH  24  26
ENDBRANCH  22  24
ENDBRANCH   1  22
BRANCH   8  35
ATOM     35  O   UNL     1       0.128  11.682  22.558  0.00  0.00    +0.000 OA
ATOM     36  H   UNL     1       0.613  11.995  23.341  0.00  0.00    +0.000 HD
ENDBRANCH   8  35
TORSDOF 10
ENDMDL
