MODEL 1
REMARK VINA RESULT:      -7.0      0.000      0.000
REMARK  Name = 
REMARK  12 active torsions:
REMARK  status: ('A' for Active; 'I' for Inactive)
REMARK    1  A    between atoms: C_1  and  O_2
REMARK    2  A    between atoms: O_2  and  C_3
REMARK    3  A    between atoms: C_7  and  O_8
REMARK    4  A    between atoms: O_8  and  C_9
REMARK    5  A    between atoms: N_12  and  S_13
REMARK    6  A    between atoms: S_13  and  C_16
REMARK    7  A    between atoms: C_19  and  O_20
REMARK    8  A    between atoms: O_20  and  C_21
REMARK    9  A    between atoms: C_22  and  O_23
REMARK   10  A    between atoms: O_23  and  C_24
REMARK   11  A    between atoms: C_25  and  C_26
REMARK   12  A    between atoms: N_28  and  O_29
REMARK                            x       y       z     vdW  Elec       q    Type
REMARK                         _______ _______ _______ _____ _____    ______ ____
ROOT
ATOM      1  S   UNL     1       1.656   5.216  20.534  0.00  0.00    +0.000 S 
ATOM      2  O   UNL     1       0.240   4.961  20.637  0.00  0.00    +0.000 OA
ATOM      3  O   UNL     1       2.455   5.195  21.747  0.00  0.00    +0.000 OA
ENDROOT
BRANCH   1   7
ATOM      4  C   UNL     1       3.689   2.710  17.474  0.00  0.00    +0.000 C 
ATOM      5  C   UNL     1       2.209   2.389  17.648  0.00  0.00    +0.000 C 
ATOM      6  C   UNL     1       1.497   3.298  18.649  0.00  0.00    +0.000 C 
ATOM      7  N   UNL     1       2.418   4.115  19.467  0.00  0.00    +0.000 NA
ATOM      8  C   UNL     1       3.684   3.473  19.914  0.00  0.00    +0.000 C 
ATOM      9  C   UNL     1       4.324   2.559  18.856  0.00  0.00    +0.000 C 
BRANCH   4  10
ATOM     10  O   UNL     1       3.932   4.056  17.069  0.00  0.00    +0.000 OA
BRANCH  10  15
ATOM     11  C   UNL     1       6.959   5.841  16.244  0.00  0.00    +0.000 A 
ATOM     12  C   UNL     1       7.307   5.327  14.999  0.00  0.00    +0.000 A 
ATOM     13  C   UNL     1       6.509   4.338  14.415  0.00  0.00    +0.000 A 
ATOM     14  C   UNL     1       5.370   3.853  15.075  0.00  0.00    +0.000 A 
ATOM     15  C   UNL     1       5.011   4.388  16.306  0.00  0.00    +0.000 A 
ATOM     16  C   UNL     1       5.798   5.394  16.874  0.00  0.00    +0.000 A 
BRANCH  11  18
ATOM     17  C   UNL     1       7.802   6.713  18.239  0.00  0.00    +0.000 C 
ATOM     18  O   UNL     1       7.631   6.877  16.833  0.00  0.00    +0.000 OA
ENDBRANCH  11  18
ENDBRANCH  10  15
ENDBRANCH   4  10
ENDBRANCH   1   7
BRANCH   1  19
ATOM     19  C   UNL     1       1.894   6.817  19.771  0.00  0.00    +0.000 A 
ATOM     20  C   UNL     1       2.786   6.809  18.686  0.00  0.00    +0.000 A 
ATOM     21  C   UNL     1       2.935   7.925  17.875  0.00  0.00    +0.000 A 
ATOM     22  C   UNL     1       2.139   9.047  18.080  0.00  0.00    +0.000 A 
ATOM     23  C   UNL     1       1.352   9.140  19.239  0.00  0.00    +0.000 A 
ATOM     24  C   UNL     1       1.294   8.038  20.153  0.00  0.00    +0.000 A 
BRANCH  24  25
ATOM     25  C   UNL     1       0.699   8.294  21.516  0.00  0.00    +0.000 C 
ATOM     26  O   UNL     1      -0.422   7.922  21.842  0.00  0.00    +0.000 OA
ATOM     27  N   UNL     1       1.507   8.997  22.398  0.00  0.00    +0.000 N 
ATOM     28  H   UNL     1       2.211   9.634  22.025  0.00  0.00    +0.000 HD
BRANCH  27  29
ATOM     29  O   UNL     1       0.918   9.433  23.611  0.00  0.00    +0.000 OA
ATOM     30  H   UNL     1       0.082   8.924  23.619  0.00  0.00    +0.000 HD
ENDBRANCH  27  29
ENDBRANCH  24  25
BRANCH  22  31
ATOM     31  O   UNL     1       2.192  10.073  17.172  0.00  0.00    +0.000 OA
ATOM     32  C   UNL     1       2.623  11.296  17.775  0.00  0.00    +0.000 C 
ENDBRANCH  22  31
BRANCH  23  33
ATOM     33  O   UNL     1       0.600  10.235  19.596  0.00  0.00    +0.000 OA
ATOM     34  C   UNL     1      -0.724  10.415  19.112  0.00  0.00    +0.000 C 
ENDBRANCH  23  33
ENDBRANCH   1  19
TORSDOF 9
ENDMDL
MODEL 2
REMARK VINA RESULT:      -6.8      6.342     11.317
REMARK  Name = 
REMARK  12 active torsions:
REMARK  status: ('A' for Active; 'I' for Inactive)
REMARK    1  A    between atoms: C_1  and  O_2
REMARK    2  A    between atoms: O_2  and  C_3
REMARK    3  A    between atoms: C_7  and  O_8
REMARK    4  A    between atoms: O_8  and  C_9
REMARK    5  A    between atoms: N_12  and  S_13
REMARK    6  A    between atoms: S_13  and  C_16
REMARK    7  A    between atoms: C_19  and  O_20
REMARK    8  A    between atoms: O_20  and  C_21
REMARK    9  A    between atoms: C_22  and  O_23
REMARK   10  A    between atoms: O_23  and  C_24
REMARK   11  A    between atoms: C_25  and  C_26
REMARK   12  A    between atoms: N_28  and  O_29
REMARK                            x       y       z     vdW  Elec       q    Type
REMARK                         _______ _______ _______ _____ _____    ______ ____
ROOT
ATOM      1  S   UNL     1      -3.124  10.849  17.898  0.00  0.00    +0.000 S 
ATOM      2  O   UNL     1      -3.013   9.410  17.893  0.00  0.00    +0.000 OA
ATOM      3  O   UNL     1      -2.684  11.583  16.723  0.00  0.00    +0.000 OA
ENDROOT
BRANCH   1   7
ATOM      4  C   UNL     1      -7.162  12.339  19.013  0.00  0.00    +0.000 C 
ATOM      5  C   UNL     1      -7.041  10.819  19.030  0.00  0.00    +0.000 C 
ATOM      6  C   UNL     1      -5.634  10.313  18.716  0.00  0.00    +0.000 C 
ATOM      7  N   UNL     1      -4.737  11.354  18.174  0.00  0.00    +0.000 NA
ATOM      8  C   UNL     1      -5.329  12.343  17.233  0.00  0.00    +0.000 C 
ATOM      9  C   UNL     1      -6.752  12.785  17.611  0.00  0.00    +0.000 C 
BRANCH   4  10
ATOM     10  O   UNL     1      -6.268  12.989  19.915  0.00  0.00    +0.000 OA
BRANCH  10  15
ATOM     11  C   UNL     1      -6.309  12.984  23.523  0.00  0.00    +0.000 A 
ATOM     12  C   UNL     1      -7.264  13.947  23.837  0.00  0.00    +0.000 A 
ATOM     13  C   UNL     1      -7.913  14.633  22.805  0.00  0.00    +0.000 A 
ATOM     14  C   UNL     1      -7.604  14.369  21.462  0.00  0.00    +0.000 A 
ATOM     15  C   UNL     1      -6.668  13.388  21.154  0.00  0.00    +0.000 A 
ATOM     16  C   UNL     1      -6.041  12.688  22.188  0.00  0.00    +0.000 A 
BRANCH  11  18
ATOM     17  C   UNL     1      -4.312  12.468  24.618  0.00  0.00    +0.000 C 
ATOM     18  O   UNL     1      -5.706  12.203  24.471  0.00  0.00    +0.000 OA
ENDBRANCH  11  18
ENDBRANCH  10  15
ENDBRANCH   4  10
ENDBRANCH   1   7
BRANCH   1  19
ATOM     19  C   UNL     1      -2.207  11.488  19.295  0.00  0.00    +0.000 A 
ATOM     20  C   UNL     1      -2.941  12.367  20.109  0.00  0.00    +0.000 A 
ATOM     21  C   UNL     1      -2.439  12.801  21.327  0.00  0.00    +0.000 A 
ATOM     22  C   UNL     1      -1.228  12.304  21.799  0.00  0.00    +0.000 A 
ATOM     23  C   UNL     1      -0.407  11.547  20.947  0.00  0.00    +0.000 A 
ATOM     24  C   UNL     1      -0.866  11.203  19.634  0.00  0.00    +0.000 A 
BRANCH  24  25
ATOM     25  C   UNL     1       0.154  10.669  18.658  0.00  0.00    +0.000 C 
ATOM     26  O   UNL     1       0.152   9.514  18.248  0.00  0.00    +0.000 OA
ATOM     27  N   UNL     1       1.119  11.576  18.247  0.00  0.00    +0.000 N 
ATOM     28  H   UNL     1       1.366  12.351  18.862  0.00  0.00    +0.000 HD
BRANCH  27  29
ATOM     29  O   UNL     1       2.208  11.068  17.493  0.00  0.00    +0.000 OA
ATOM     30  H   UNL     1       1.844  10.219  17.168  0.00  0.00    +0.000 HD
ENDBRANCH  27  29
ENDBRANCH  24  25
BRANCH  22  31
ATOM     31  O   UNL     1      -0.829  12.624  23.071  0.00  0.00    +0.000 OA
ATOM     32  C   UNL     1      -1.128  13.984  23.397  0.00  0.00    +0.000 C 
ENDBRANCH  22  31
BRANCH  23  33
ATOM     33  O   UNL     1       0.848  11.084  21.268  0.00  0.00    +0.000 OA
ATOM     34  C   UNL     1       1.034   9.831  21.910  0.00  0.00    +0.000 C 
ENDBRANCH  23  33
ENDBRANCH   1  19
TORSDOF 9
ENDMDL
MODEL 3
REMARK VINA RESULT:      -6.7      2.174      6.264
REMARK  Name = 
REMARK  12 active torsions:
REMARK  status: ('A' for Active; 'I' for Inactive)
REMARK    1  A    between atoms: C_1  and  O_2
REMARK    2  A    between atoms: O_2  and  C_3
REMARK    3  A    between atoms: C_7  and  O_8
REMARK    4  A    between atoms: O_8  and  C_9
REMARK    5  A    between atoms: N_12  and  S_13
REMARK    6  A    between atoms: S_13  and  C_16
REMARK    7  A    between atoms: C_19  and  O_20
REMARK    8  A    between atoms: O_20  and  C_21
REMARK    9  A    between atoms: C_22  and  O_23
REMARK   10  A    between atoms: O_23  and  C_24
REMARK   11  A    between atoms: C_25  and  C_26
REMARK   12  A    between atoms: N_28  and  O_29
REMARK                            x       y       z     vdW  Elec       q    Type
REMARK                         _______ _______ _______ _____ _____    ______ ____
ROOT
ATOM      1  S   UNL     1       4.370   2.248  18.837  0.00  0.00    +0.000 S 
ATOM      2  O   UNL     1       5.341   1.896  19.844  0.00  0.00    +0.000 OA
ATOM      3  O   UNL     1       3.741   1.181  18.077  0.00  0.00    +0.000 OA
ENDROOT
BRANCH   1   7
ATOM      4  C   UNL     1       1.314   4.966  20.583  0.00  0.00    +0.000 C 
ATOM      5  C   UNL     1       1.739   3.837  21.516  0.00  0.00    +0.000 C 
ATOM      6  C   UNL     1       2.840   2.948  20.941  0.00  0.00    +0.000 C 
ATOM      7  N   UNL     1       3.079   3.159  19.498  0.00  0.00    +0.000 NA
ATOM      8  C   UNL     1       1.891   3.410  18.639  0.00  0.00    +0.000 C 
ATOM      9  C   UNL     1       0.823   4.297  19.300  0.00  0.00    +0.000 C 
BRANCH   4  10
ATOM     10  O   UNL     1       2.390   5.820  20.200  0.00  0.00    +0.000 OA
BRANCH  10  15
ATOM     11  C   UNL     1       1.292   9.244  19.894  0.00  0.00    +0.000 A 
ATOM     12  C   UNL     1       1.565   9.553  18.565  0.00  0.00    +0.000 A 
ATOM     13  C   UNL     1       2.149   8.586  17.740  0.00  0.00    +0.000 A 
ATOM     14  C   UNL     1       2.470   7.316  18.240  0.00  0.00    +0.000 A 
ATOM     15  C   UNL     1       2.171   7.003  19.561  0.00  0.00    +0.000 A 
ATOM     16  C   UNL     1       1.565   7.964  20.375  0.00  0.00    +0.000 A 
BRANCH  11  18
ATOM     17  C   UNL     1      -0.283   9.442  21.606  0.00  0.00    +0.000 C 
ATOM     18  O   UNL     1       0.633  10.100  20.734  0.00  0.00    +0.000 OA
ENDBRANCH  11  18
ENDBRANCH  10  15
ENDBRANCH   4  10
ENDBRANCH   1   7
BRANCH   1  19
ATOM     19  C   UNL     1       5.141   3.352  17.659  0.00  0.00    +0.000 A 
ATOM     20  C   UNL     1       5.197   2.847  16.350  0.00  0.00    +0.000 A 
ATOM     21  C   UNL     1       5.592   3.650  15.290  0.00  0.00    +0.000 A 
ATOM     22  C   UNL     1       5.865   4.998  15.500  0.00  0.00    +0.000 A 
ATOM     23  C   UNL     1       5.964   5.491  16.811  0.00  0.00    +0.000 A 
ATOM     24  C   UNL     1       5.683   4.630  17.921  0.00  0.00    +0.000 A 
BRANCH  24  25
ATOM     25  C   UNL     1       6.099   5.104  19.293  0.00  0.00    +0.000 C 
ATOM     26  O   UNL     1       5.312   5.561  20.114  0.00  0.00    +0.000 OA
ATOM     27  N   UNL     1       7.452   4.998  19.576  0.00  0.00    +0.000 N 
ATOM     28  H   UNL     1       8.122   5.020  18.808  0.00  0.00    +0.000 HD
BRANCH  27  29
ATOM     29  O   UNL     1       7.916   5.613  20.767  0.00  0.00    +0.000 OA
ATOM     30  H   UNL     1       8.883   5.624  20.618  0.00  0.00    +0.000 HD
ENDBRANCH  27  29
ENDBRANCH  24  25
BRANCH  22  31
ATOM     31  O   UNL     1       6.100   5.804  14.416  0.00  0.00    +0.000 OA
ATOM     32  C   UNL     1       7.024   5.211  13.500  0.00  0.00    +0.000 C 
ENDBRANCH  22  31
BRANCH  23  33
ATOM     33  O   UNL     1       6.319   6.778  17.144  0.00  0.00    +0.000 OA
ATOM     34  C   UNL     1       7.675   7.201  17.125  0.00  0.00    +0.000 C 
ENDBRANCH  23  33
ENDBRANCH   1  19
TORSDOF 9
ENDMDL
MODEL 4
REMARK VINA RESULT:      -6.7      0.883      1.654
REMARK  Name = 
REMARK  12 active torsions:
REMARK  status: ('A' for Active; 'I' for Inactive)
REMARK    1  A    between atoms: C_1  and  O_2
REMARK    2  A    between atoms: O_2  and  C_3
REMARK    3  A    between atoms: C_7  and  O_8
REMARK    4  A    between atoms: O_8  and  C_9
REMARK    5  A    between atoms: N_12  and  S_13
REMARK    6  A    between atoms: S_13  and  C_16
REMARK    7  A    between atoms: C_19  and  O_20
REMARK    8  A    between atoms: O_20  and  C_21
REMARK    9  A    between atoms: C_22  and  O_23
REMARK   10  A    between atoms: O_23  and  C_24
REMARK   11  A    between atoms: C_25  and  C_26
REMARK   12  A    between atoms: N_28  and  O_29
REMARK                            x       y       z     vdW  Elec       q    Type
REMARK                         _______ _______ _______ _____ _____    ______ ____
ROOT
ATOM      1  S   UNL     1       1.693   5.314  20.489  0.00  0.00    +0.000 S 
ATOM      2  O   UNL     1       0.285   5.032  20.624  0.00  0.00    +0.000 OA
ATOM      3  O   UNL     1       2.526   5.278  21.680  0.00  0.00    +0.000 OA
ENDROOT
BRANCH   1   7
ATOM      4  C   UNL     1       3.674   2.914  17.312  0.00  0.00    +0.000 C 
ATOM      5  C   UNL     1       2.213   2.543  17.543  0.00  0.00    +0.000 C 
ATOM      6  C   UNL     1       1.516   3.416  18.585  0.00  0.00    +0.000 C 
ATOM      7  N   UNL     1       2.444   4.251  19.375  0.00  0.00    +0.000 NA
ATOM      8  C   UNL     1       3.748   3.645  19.760  0.00  0.00    +0.000 C 
ATOM      9  C   UNL     1       4.371   2.766  18.664  0.00  0.00    +0.000 C 
BRANCH   4  10
ATOM     10  O   UNL     1       3.857   4.272  16.916  0.00  0.00    +0.000 OA
BRANCH  10  15
ATOM     11  C   UNL     1       6.576   4.800  14.602  0.00  0.00    +0.000 A 
ATOM     12  C   UNL     1       7.499   5.527  15.349  0.00  0.00    +0.000 A 
ATOM     13  C   UNL     1       7.198   5.866  16.672  0.00  0.00    +0.000 A 
ATOM     14  C   UNL     1       5.976   5.489  17.250  0.00  0.00    +0.000 A 
ATOM     15  C   UNL     1       5.070   4.740  16.509  0.00  0.00    +0.000 A 
ATOM     16  C   UNL     1       5.386   4.383  15.195  0.00  0.00    +0.000 A 
BRANCH  11  18
ATOM     17  C   UNL     1       5.840   3.461  12.838  0.00  0.00    +0.000 C 
ATOM     18  O   UNL     1       6.838   4.346  13.339  0.00  0.00    +0.000 OA
ENDBRANCH  11  18
ENDBRANCH  10  15
ENDBRANCH   4  10
ENDBRANCH   1   7
BRANCH   1  19
ATOM     19  C   UNL     1       1.885   6.936  19.760  0.00  0.00    +0.000 A 
ATOM     20  C   UNL     1       2.762   6.973  18.663  0.00  0.00    +0.000 A 
ATOM     21  C   UNL     1       2.874   8.109  17.875  0.00  0.00    +0.000 A 
ATOM     22  C   UNL     1       2.055   9.208  18.115  0.00  0.00    +0.000 A 
ATOM     23  C   UNL     1       1.282   9.257  19.286  0.00  0.00    +0.000 A 
ATOM     24  C   UNL     1       1.262   8.134  20.176  0.00  0.00    +0.000 A 
BRANCH  24  25
ATOM     25  C   UNL     1       0.680   8.346  21.552  0.00  0.00    +0.000 C 
ATOM     26  O   UNL     1      -0.425   7.933  21.887  0.00  0.00    +0.000 OA
ATOM     27  N   UNL     1       1.478   9.058  22.435  0.00  0.00    +0.000 N 
ATOM     28  H   UNL     1       2.156   9.723  22.065  0.00  0.00    +0.000 HD
BRANCH  27  29
ATOM     29  O   UNL     1       0.893   9.453  23.665  0.00  0.00    +0.000 OA
ATOM     30  H   UNL     1       1.475  10.194  23.931  0.00  0.00    +0.000 HD
ENDBRANCH  27  29
ENDBRANCH  24  25
BRANCH  22  31
ATOM     31  O   UNL     1       2.072  10.255  17.230  0.00  0.00    +0.000 OA
ATOM     32  C   UNL     1       2.624  11.438  17.814  0.00  0.00    +0.000 C 
ENDBRANCH  22  31
BRANCH  23  33
ATOM     33  O   UNL     1       0.510  10.327  19.677  0.00  0.00    +0.000 OA
ATOM     34  C   UNL     1      -0.789  10.537  19.142  0.00  0.00    +0.000 C 
ENDBRANCH  23  33
ENDBRANCH   1  19
TORSDOF 9
ENDMDL
MODEL 5
REMARK VINA RESULT:      -6.6      6.328     11.215
REMARK  Name = 
REMARK  12 active torsions:
REMARK  status: ('A' for Active; 'I' for Inactive)
REMARK    1  A    between atoms: C_1  and  O_2
REMARK    2  A    between atoms: O_2  and  C_3
REMARK    3  A    between atoms: C_7  and  O_8
REMARK    4  A    between atoms: O_8  and  C_9
REMARK    5  A    between atoms: N_12  and  S_13
REMARK    6  A    between atoms: S_13  and  C_16
REMARK    7  A    between atoms: C_19  and  O_20
REMARK    8  A    between atoms: O_20  and  C_21
REMARK    9  A    between atoms: C_22  and  O_23
REMARK   10  A    between atoms: O_23  and  C_24
REMARK   11  A    between atoms: C_25  and  C_26
REMARK   12  A    between atoms: N_28  and  O_29
REMARK                            x       y       z     vdW  Elec       q    Type
REMARK                         _______ _______ _______ _____ _____    ______ ____
ROOT
ATOM      1  S   UNL     1      -2.975  10.881  17.762  0.00  0.00    +0.000 S 
ATOM      2  O   UNL     1      -2.755   9.460  17.649  0.00  0.00    +0.000 OA
ATOM      3  O   UNL     1      -2.567  11.736  16.660  0.00  0.00    +0.000 OA
ENDROOT
BRANCH   1   7
ATOM      4  C   UNL     1      -7.137  11.976  18.881  0.00  0.00    +0.000 C 
ATOM      5  C   UNL     1      -6.901  10.473  18.785  0.00  0.00    +0.000 C 
ATOM      6  C   UNL     1      -5.454  10.098  18.470  0.00  0.00    +0.000 C 
ATOM      7  N   UNL     1      -4.627  11.243  18.034  0.00  0.00    +0.000 NA
ATOM      8  C   UNL     1      -5.272  12.255  17.155  0.00  0.00    +0.000 C 
ATOM      9  C   UNL     1      -6.733  12.559  17.527  0.00  0.00    +0.000 C 
BRANCH   4  10
ATOM     10  O   UNL     1      -6.313  12.618  19.852  0.00  0.00    +0.000 OA
BRANCH  10  15
ATOM     11  C   UNL     1      -6.164  13.828  23.249  0.00  0.00    +0.000 A 
ATOM     12  C   UNL     1      -7.158  13.099  23.895  0.00  0.00    +0.000 A 
ATOM     13  C   UNL     1      -7.916  12.175  23.168  0.00  0.00    +0.000 A 
ATOM     14  C   UNL     1      -7.692  11.985  21.797  0.00  0.00    +0.000 A 
ATOM     15  C   UNL     1      -6.681  12.696  21.162  0.00  0.00    +0.000 A 
ATOM     16  C   UNL     1      -5.909  13.599  21.898  0.00  0.00    +0.000 A 
BRANCH  11  18
ATOM     17  C   UNL     1      -4.712  15.646  23.062  0.00  0.00    +0.000 C 
ATOM     18  O   UNL     1      -5.317  14.674  23.911  0.00  0.00    +0.000 OA
ENDBRANCH  11  18
ENDBRANCH  10  15
ENDBRANCH   4  10
ENDBRANCH   1   7
BRANCH   1  19
ATOM     19  C   UNL     1      -2.139  11.474  19.229  0.00  0.00    +0.000 A 
ATOM     20  C   UNL     1      -2.927  12.304  20.043  0.00  0.00    +0.000 A 
ATOM     21  C   UNL     1      -2.492  12.692  21.301  0.00  0.00    +0.000 A 
ATOM     22  C   UNL     1      -1.296  12.195  21.810  0.00  0.00    +0.000 A 
ATOM     23  C   UNL     1      -0.422  11.490  20.968  0.00  0.00    +0.000 A 
ATOM     24  C   UNL     1      -0.810  11.196  19.620  0.00  0.00    +0.000 A 
BRANCH  24  25
ATOM     25  C   UNL     1       0.265  10.722  18.673  0.00  0.00    +0.000 C 
ATOM     26  O   UNL     1       0.391   9.552  18.329  0.00  0.00    +0.000 OA
ATOM     27  N   UNL     1       1.127  11.704  18.209  0.00  0.00    +0.000 N 
ATOM     28  H   UNL     1       1.286  12.535  18.779  0.00  0.00    +0.000 HD
BRANCH  27  29
ATOM     29  O   UNL     1       2.268  11.276  17.482  0.00  0.00    +0.000 OA
ATOM     30  H   UNL     1       2.122  11.705  16.615  0.00  0.00    +0.000 HD
ENDBRANCH  27  29
ENDBRANCH  24  25
BRANCH  22  31
ATOM     31  O   UNL     1      -0.965  12.466  23.113  0.00  0.00    +0.000 OA
ATOM     32  C   UNL     1      -1.219  13.831  23.455  0.00  0.00    +0.000 C 
ENDBRANCH  22  31
BRANCH  23  33
ATOM     33  O   UNL     1       0.825  11.034  21.330  0.00  0.00    +0.000 OA
ATOM     34  C   UNL     1       1.000   9.768  21.951  0.00  0.00    +0.000 C 
ENDBRANCH  23  33
ENDBRANCH   1  19
TORSDOF 9
ENDMDL
MODEL 6
REMARK VINA RESULT:      -6.4      3.906      7.151
REMARK  Name = 
REMARK  12 active torsions:
REMARK  status: ('A' for Active; 'I' for Inactive)
REMARK    1  A    between atoms: C_1  and  O_2
REMARK    2  A    between atoms: O_2  and  C_3
REMARK    3  A    between atoms: C_7  and  O_8
REMARK    4  A    between atoms: O_8  and  C_9
REMARK    5  A    between atoms: N_12  and  S_13
REMARK    6  A    between atoms: S_13  and  C_16
REMARK    7  A    between atoms: C_19  and  O_20
REMARK    8  A    between atoms: O_20  and  C_21
REMARK    9  A    between atoms: C_22  and  O_23
REMARK   10  A    between atoms: O_23  and  C_24
REMARK   11  A    between atoms: C_25  and  C_26
REMARK   12  A    between atoms: N_28  and  O_29
REMARK                            x       y       z     vdW  Elec       q    Type
REMARK                         _______ _______ _______ _____ _____    ______ ____
ROOT
ATOM      1  S   UNL     1      -0.368  12.067  19.769  0.00  0.00    +0.000 S 
ATOM      2  O   UNL     1       0.249  13.225  20.369  0.00  0.00    +0.000 OA
ATOM      3  O   UNL     1      -0.163  11.827  18.351  0.00  0.00    +0.000 OA
ENDROOT
BRANCH   1   7
ATOM      4  C   UNL     1       1.048   8.177  21.393  0.00  0.00    +0.000 C 
ATOM      5  C   UNL     1      -0.470   8.304  21.335  0.00  0.00    +0.000 C 
ATOM      6  C   UNL     1      -0.953   9.612  20.711  0.00  0.00    +0.000 C 
ATOM      7  N   UNL     1       0.114  10.622  20.551  0.00  0.00    +0.000 NA
ATOM      8  C   UNL     1       1.128  10.721  21.636  0.00  0.00    +0.000 C 
ATOM      9  C   UNL     1       1.544   9.361  22.222  0.00  0.00    +0.000 C 
BRANCH   4  10
ATOM     10  O   UNL     1       1.676   8.294  20.118  0.00  0.00    +0.000 OA
BRANCH  10  15
ATOM     11  C   UNL     1       2.594   4.826  19.723  0.00  0.00    +0.000 A 
ATOM     12  C   UNL     1       3.274   4.809  18.509  0.00  0.00    +0.000 A 
ATOM     13  C   UNL     1       3.423   5.997  17.787  0.00  0.00    +0.000 A 
ATOM     14  C   UNL     1       2.887   7.201  18.268  0.00  0.00    +0.000 A 
ATOM     15  C   UNL     1       2.232   7.218  19.494  0.00  0.00    +0.000 A 
ATOM     16  C   UNL     1       2.107   6.033  20.223  0.00  0.00    +0.000 A 
BRANCH  11  18
ATOM     17  C   UNL     1       1.238   3.061  20.427  0.00  0.00    +0.000 C 
ATOM     18  O   UNL     1       2.494   3.728  20.533  0.00  0.00    +0.000 OA
ENDBRANCH  11  18
ENDBRANCH  10  15
ENDBRANCH   4  10
ENDBRANCH   1   7
BRANCH   1  19
ATOM     19  C   UNL     1      -2.134  12.157  20.041  0.00  0.00    +0.000 A 
ATOM     20  C   UNL     1      -2.497  12.517  21.349  0.00  0.00    +0.000 A 
ATOM     21  C   UNL     1      -3.814  12.810  21.671  0.00  0.00    +0.000 A 
ATOM     22  C   UNL     1      -4.787  12.829  20.677  0.00  0.00    +0.000 A 
ATOM     23  C   UNL     1      -4.486  12.330  19.400  0.00  0.00    +0.000 A 
ATOM     24  C   UNL     1      -3.154  11.901  19.096  0.00  0.00    +0.000 A 
BRANCH  24  25
ATOM     25  C   UNL     1      -2.951  11.095  17.837  0.00  0.00    +0.000 C 
ATOM     26  O   UNL     1      -2.966   9.869  17.812  0.00  0.00    +0.000 OA
ATOM     27  N   UNL     1      -2.734  11.833  16.683  0.00  0.00    +0.000 N 
ATOM     28  H   UNL     1      -2.323  12.763  16.760  0.00  0.00    +0.000 HD
BRANCH  27  29
ATOM     29  O   UNL     1      -2.340  11.122  15.521  0.00  0.00    +0.000 OA
ATOM     30  H   UNL     1      -2.668  11.709  14.810  0.00  0.00    +0.000 HD
ENDBRANCH  27  29
ENDBRANCH  24  25
BRANCH  22  31
ATOM     31  O   UNL     1      -6.046  13.274  20.989  0.00  0.00    +0.000 OA
ATOM     32  C   UNL     1      -6.014  14.343  21.939  0.00  0.00    +0.000 C 
ENDBRANCH  22  31
BRANCH  23  33
ATOM     33  O   UNL     1      -5.388  12.210  18.368  0.00  0.00    +0.000 OA
ATOM     34  C   UNL     1      -6.396  11.209  18.376  0.00  0.00    +0.000 C 
ENDBRANCH  23  33
ENDBRANCH   1  19
TORSDOF 9
ENDMDL
MODEL 7
REMARK VINA RESULT:      -6.3      7.245      9.927
REMARK  Name = 
REMARK  12 active torsions:
REMARK  status: ('A' for Active; 'I' for Inactive)
REMARK    1  A    between atoms: C_1  and  O_2
REMARK    2  A    between atoms: O_2  and  C_3
REMARK    3  A    between atoms: C_7  and  O_8
REMARK    4  A    between atoms: O_8  and  C_9
REMARK    5  A    between atoms: N_12  and  S_13
REMARK    6  A    between atoms: S_13  and  C_16
REMARK    7  A    between atoms: C_19  and  O_20
REMARK    8  A    between atoms: O_20  and  C_21
REMARK    9  A    between atoms: C_22  and  O_23
REMARK   10  A    between atoms: O_23  and  C_24
REMARK   11  A    between atoms: C_25  and  C_26
REMARK   12  A    between atoms: N_28  and  O_29
REMARK                            x       y       z     vdW  Elec       q    Type
REMARK                         _______ _______ _______ _____ _____    ______ ____
ROOT
ATOM      1  S   UNL     1      -0.994  14.266  22.310  0.00  0.00    +0.000 S 
ATOM      2  O   UNL     1      -0.842  13.993  23.718  0.00  0.00    +0.000 OA
ATOM      3  O   UNL     1      -0.256  15.377  21.734  0.00  0.00    +0.000 OA
ENDROOT
BRANCH   1   7
ATOM      4  C   UNL     1      -0.380  10.701  19.724  0.00  0.00    +0.000 C 
ATOM      5  C   UNL     1      -0.186  10.424  21.211  0.00  0.00    +0.000 C 
ATOM      6  C   UNL     1      -0.467  11.632  22.102  0.00  0.00    +0.000 C 
ATOM      7  N   UNL     1      -0.586  12.903  21.357  0.00  0.00    +0.000 NA
ATOM      8  C   UNL     1       0.334  13.108  20.206  0.00  0.00    +0.000 C 
ATOM      9  C   UNL     1       0.579  11.838  19.374  0.00  0.00    +0.000 C 
BRANCH   4  10
ATOM     10  O   UNL     1      -1.687  11.169  19.400  0.00  0.00    +0.000 OA
BRANCH  10  15
ATOM     11  C   UNL     1      -4.162  11.480  16.792  0.00  0.00    +0.000 A 
ATOM     12  C   UNL     1      -3.725  10.581  15.824  0.00  0.00    +0.000 A 
ATOM     13  C   UNL     1      -2.553   9.850  16.043  0.00  0.00    +0.000 A 
ATOM     14  C   UNL     1      -1.810  10.021  17.221  0.00  0.00    +0.000 A 
ATOM     15  C   UNL     1      -2.265  10.901  18.196  0.00  0.00    +0.000 A 
ATOM     16  C   UNL     1      -3.451  11.610  17.983  0.00  0.00    +0.000 A 
BRANCH  11  18
ATOM     17  C   UNL     1      -5.869  12.565  17.957  0.00  0.00    +0.000 C 
ATOM     18  O   UNL     1      -5.348  12.155  16.695  0.00  0.00    +0.000 OA
ENDBRANCH  11  18
ENDBRANCH  10  15
ENDBRANCH   4  10
ENDBRANCH   1   7
BRANCH   1  19
ATOM     19  C   UNL     1      -2.728  14.550  21.968  0.00  0.00    +0.000 A 
ATOM     20  C   UNL     1      -2.976  15.662  21.146  0.00  0.00    +0.000 A 
ATOM     21  C   UNL     1      -4.243  15.906  20.637  0.00  0.00    +0.000 A 
ATOM     22  C   UNL     1      -5.275  15.002  20.872  0.00  0.00    +0.000 A 
ATOM     23  C   UNL     1      -5.097  13.970  21.806  0.00  0.00    +0.000 A 
ATOM     24  C   UNL     1      -3.823  13.790  22.436  0.00  0.00    +0.000 A 
BRANCH  24  25
ATOM     25  C   UNL     1      -3.764  12.885  23.643  0.00  0.00    +0.000 C 
ATOM     26  O   UNL     1      -3.330  11.739  23.605  0.00  0.00    +0.000 OA
ATOM     27  N   UNL     1      -4.247  13.431  24.823  0.00  0.00    +0.000 N 
ATOM     28  H   UNL     1      -4.951  14.168  24.776  0.00  0.00    +0.000 HD
BRANCH  27  29
ATOM     29  O   UNL     1      -4.398  12.556  25.929  0.00  0.00    +0.000 OA
ATOM     30  H   UNL     1      -5.182  12.034  25.662  0.00  0.00    +0.000 HD
ENDBRANCH  27  29
ENDBRANCH  24  25
BRANCH  22  31
ATOM     31  O   UNL     1      -6.474  15.182  20.231  0.00  0.00    +0.000 OA
ATOM     32  C   UNL     1      -6.744  16.565  19.984  0.00  0.00    +0.000 C 
ENDBRANCH  22  31
BRANCH  23  33
ATOM     33  O   UNL     1      -6.070  13.076  22.190  0.00  0.00    +0.000 OA
ATOM     34  C   UNL     1      -6.513  12.044  21.321  0.00  0.00    +0.000 C 
ENDBRANCH  23  33
ENDBRANCH   1  19
TORSDOF 9
ENDMDL
MODEL 8
REMARK VINA RESULT:      -6.2      3.834      6.845
REMARK  Name = 
REMARK  12 active torsions:
REMARK  status: ('A' for Active; 'I' for Inactive)
REMARK    1  A    between atoms: C_1  and  O_2
REMARK    2  A    between atoms: O_2  and  C_3
REMARK    3  A    between atoms: C_7  and  O_8
REMARK    4  A    between atoms: O_8  and  C_9
REMARK    5  A    between atoms: N_12  and  S_13
REMARK    6  A    between atoms: S_13  and  C_16
REMARK    7  A    between atoms: C_19  and  O_20
REMARK    8  A    between atoms: O_20  and  C_21
REMARK    9  A    between atoms: C_22  and  O_23
REMARK   10  A    between atoms: O_23  and  C_24
REMARK   11  A    between atoms: C_25  and  C_26
REMARK   12  A    between atoms: N_28  and  O_29
REMARK                            x       y       z     vdW  Elec       q    Type
REMARK                         _______ _______ _______ _____ _____    ______ ____
ROOT
ATOM      1  S   UNL     1      -0.278  11.910  19.587  0.00  0.00    +0.000 S 
ATOM      2  O   UNL     1       0.372  13.080  20.125  0.00  0.00    +0.000 OA
ATOM      3  O   UNL     1      -0.086  11.593  18.182  0.00  0.00    +0.000 OA
ENDROOT
BRANCH   1   7
ATOM      4  C   UNL     1       1.082   8.089  21.412  0.00  0.00    +0.000 C 
ATOM      5  C   UNL     1      -0.430   8.186  21.242  0.00  0.00    +0.000 C 
ATOM      6  C   UNL     1      -0.889   9.469  20.550  0.00  0.00    +0.000 C 
ATOM      7  N   UNL     1       0.170  10.494  20.440  0.00  0.00    +0.000 NA
ATOM      8  C   UNL     1       1.102  10.639  21.591  0.00  0.00    +0.000 C 
ATOM      9  C   UNL     1       1.497   9.303  22.242  0.00  0.00    +0.000 C 
BRANCH   4  10
ATOM     10  O   UNL     1       1.797   8.185  20.181  0.00  0.00    +0.000 OA
BRANCH  10  15
ATOM     11  C   UNL     1       3.733   6.394  17.717  0.00  0.00    +0.000 A 
ATOM     12  C   UNL     1       3.564   5.061  18.080  0.00  0.00    +0.000 A 
ATOM     13  C   UNL     1       2.784   4.747  19.198  0.00  0.00    +0.000 A 
ATOM     14  C   UNL     1       2.180   5.758  19.959  0.00  0.00    +0.000 A 
ATOM     15  C   UNL     1       2.330   7.086  19.577  0.00  0.00    +0.000 A 
ATOM     16  C   UNL     1       3.090   7.394  18.445  0.00  0.00    +0.000 A 
BRANCH  11  18
ATOM     17  C   UNL     1       5.312   5.791  16.107  0.00  0.00    +0.000 C 
ATOM     18  O   UNL     1       4.396   6.774  16.583  0.00  0.00    +0.000 OA
ENDBRANCH  11  18
ENDBRANCH  10  15
ENDBRANCH   4  10
ENDBRANCH   1   7
BRANCH   1  19
ATOM     19  C   UNL     1      -2.040  12.059  19.860  0.00  0.00    +0.000 A 
ATOM     20  C   UNL     1      -2.387  12.494  21.150  0.00  0.00    +0.000 A 
ATOM     21  C   UNL     1      -3.694  12.838  21.461  0.00  0.00    +0.000 A 
ATOM     22  C   UNL     1      -4.671  12.831  20.472  0.00  0.00    +0.000 A 
ATOM     23  C   UNL     1      -4.390  12.261  19.220  0.00  0.00    +0.000 A 
ATOM     24  C   UNL     1      -3.070  11.782  18.934  0.00  0.00    +0.000 A 
BRANCH  24  25
ATOM     25  C   UNL     1      -2.895  10.908  17.716  0.00  0.00    +0.000 C 
ATOM     26  O   UNL     1      -2.954   9.684  17.752  0.00  0.00    +0.000 OA
ATOM     27  N   UNL     1      -2.650  11.581  16.528  0.00  0.00    +0.000 N 
ATOM     28  H   UNL     1      -2.207  12.498  16.561  0.00  0.00    +0.000 HD
BRANCH  27  29
ATOM     29  O   UNL     1      -2.281  10.799  15.404  0.00  0.00    +0.000 OA
ATOM     30  H   UNL     1      -2.169   9.914  15.807  0.00  0.00    +0.000 HD
ENDBRANCH  27  29
ENDBRANCH  24  25
BRANCH  22  31
ATOM     31  O   UNL     1      -5.917  13.324  20.765  0.00  0.00    +0.000 OA
ATOM     32  C   UNL     1      -6.512  12.644  21.874  0.00  0.00    +0.000 C 
ENDBRANCH  22  31
BRANCH  23  33
ATOM     33  O   UNL     1      -5.300  12.112  18.199  0.00  0.00    +0.000 OA
ATOM     34  C   UNL     1      -6.367  11.180  18.286  0.00  0.00    +0.000 C 
ENDBRANCH  23  33
ENDBRANCH   1  19
TORSDOF 9
ENDMDL
MODEL 9
REMARK VINA RESULT:      -6.2      6.497     11.896
REMARK  Name = 
REMARK  12 active torsions:
REMARK  status: ('A' for Active; 'I' for Inactive)
REMARK    1  A    between atoms: C_1  and  O_2
REMARK    2  A    between atoms: O_2  and  C_3
REMARK    3  A    between atoms: C_7  and  O_8
REMARK    4  A    between atoms: O_8  and  C_9
REMARK    5  A    between atoms: N_12  and  S_13
REMARK    6  A    between atoms: S_13  and  C_16
REMARK    7  A    between atoms: C_19  and  O_20
REMARK    8  A    between atoms: O_20  and  C_21
REMARK    9  A    between atoms: C_22  and  O_23
REMARK   10  A    between atoms: O_23  and  C_24
REMARK   11  A    between atoms: C_25  and  C_26
REMARK   12  A    between atoms: N_28  and  O_29
REMARK                            x       y       z     vdW  Elec       q    Type
REMARK                         _______ _______ _______ _____ _____    ______ ____
ROOT
ATOM      1  S   UNL     1      -0.409  13.088  20.945  0.00  0.00    +0.000 S 
ATOM      2  O   UNL     1       0.437  13.790  20.010  0.00  0.00    +0.000 OA
ATOM      3  O   UNL     1       0.189  12.076  21.799  0.00  0.00    +0.000 OA
ENDROOT
BRANCH   1   7
ATOM      4  C   UNL     1      -2.857  15.824  23.454  0.00  0.00    +0.000 C 
ATOM      5  C   UNL     1      -1.798  16.536  22.621  0.00  0.00    +0.000 C 
ATOM      6  C   UNL     1      -1.006  15.603  21.707  0.00  0.00    +0.000 C 
ATOM      7  N   UNL     1      -1.206  14.169  22.007  0.00  0.00    +0.000 NA
ATOM      8  C   UNL     1      -1.320  13.782  23.439  0.00  0.00    +0.000 C 
ATOM      9  C   UNL     1      -2.114  14.785  24.292  0.00  0.00    +0.000 C 
BRANCH   4  10
ATOM     10  O   UNL     1      -3.803  15.100  22.669  0.00  0.00    +0.000 OA
BRANCH  10  15
ATOM     11  C   UNL     1      -6.737  13.117  23.364  0.00  0.00    +0.000 A 
ATOM     12  C   UNL     1      -7.630  14.039  23.902  0.00  0.00    +0.000 A 
ATOM     13  C   UNL     1      -7.234  15.373  24.051  0.00  0.00    +0.000 A 
ATOM     14  C   UNL     1      -5.948  15.786  23.673  0.00  0.00    +0.000 A 
ATOM     15  C   UNL     1      -5.070  14.867  23.111  0.00  0.00    +0.000 A 
ATOM     16  C   UNL     1      -5.479  13.541  22.942  0.00  0.00    +0.000 A 
BRANCH  11  18
ATOM     17  C   UNL     1      -7.683  11.651  21.813  0.00  0.00    +0.000 C 
ATOM     18  O   UNL     1      -7.083  11.821  23.095  0.00  0.00    +0.000 OA
ENDBRANCH  11  18
ENDBRANCH  10  15
ENDBRANCH   4  10
ENDBRANCH   1   7
BRANCH   1  19
ATOM     19  C   UNL     1      -1.732  12.297  20.035  0.00  0.00    +0.000 A 
ATOM     20  C   UNL     1      -3.013  12.785  20.343  0.00  0.00    +0.000 A 
ATOM     21  C   UNL     1      -4.119  12.411  19.596  0.00  0.00    +0.000 A 
ATOM     22  C   UNL     1      -3.962  11.604  18.473  0.00  0.00    +0.000 A 
ATOM     23  C   UNL     1      -2.727  10.984  18.230  0.00  0.00    +0.000 A 
ATOM     24  C   UNL     1      -1.607  11.265  19.078  0.00  0.00    +0.000 A 
BRANCH  24  25
ATOM     25  C   UNL     1      -0.407  10.355  18.974  0.00  0.00    +0.000 C 
ATOM     26  O   UNL     1      -0.110   9.533  19.833  0.00  0.00    +0.000 OA
ATOM     27  N   UNL     1       0.361  10.509  17.830  0.00  0.00    +0.000 N 
ATOM     28  H   UNL     1       0.368  11.411  17.355  0.00  0.00    +0.000 HD
BRANCH  27  29
ATOM     29  O   UNL     1       1.601   9.822  17.784  0.00  0.00    +0.000 OA
ATOM     30  H   UNL     1       1.926   9.939  18.700  0.00  0.00    +0.000 HD
ENDBRANCH  27  29
ENDBRANCH  24  25
BRANCH  22  31
ATOM     31  O   UNL     1      -5.044  11.377  17.662  0.00  0.00    +0.000 OA
ATOM     32  C   UNL     1      -6.141  10.808  18.382  0.00  0.00    +0.000 C 
ENDBRANCH  22  31
BRANCH  23  33
ATOM     33  O   UNL     1      -2.478  10.094  17.210  0.00  0.00    +0.000 OA
ATOM     34  C   UNL     1      -2.586  10.480  15.847  0.00  0.00    +0.000 C 
ENDBRANCH  23  33
ENDBRANCH   1  19
TORSDOF 9
ENDMDL
