MODEL 1
REMARK VINA RESULT:      -7.4      0.000      0.000
REMARK  Name = 
REMARK  14 active torsions:
REMARK  status: ('A' for Active; 'I' for Inactive)
REMARK    1  A    between atoms: C_1  and  O_2
REMARK    2  A    between atoms: O_2  and  C_3
REMARK    3  A    between atoms: C_3  and  C_4
REMARK    4  A    between atoms: C_3  and  O_31
REMARK    5  A    between atoms: C_4  and  N_5
REMARK    6  A    between atoms: N_5  and  C_6
REMARK    7  A    between atoms: C_11  and  N_12
REMARK    8  A    between atoms: C_15  and  O_16
REMARK    9  A    between atoms: O_16  and  C_17
REMARK   10  A    between atoms: C_20  and  C_21
REMARK   11  A    between atoms: C_21  and  C_22
REMARK   12  A    between atoms: C_21  and  N_23
REMARK   13  A    between atoms: C_24  and  C_25
REMARK   14  A    between atoms: O_31  and  C_32
REMARK                            x       y       z     vdW  Elec       q    Type
REMARK                         _______ _______ _______ _____ _____    ______ ____
ROOT
ATOM      1  N   UNL     1       1.959   7.991  20.107  0.00  0.00    +0.000 N 
ATOM      2  C   UNL     1       2.388   8.243  18.739  0.00  0.00    +0.000 C 
ATOM      3  C   UNL     1       2.163   6.916  18.027  0.00  0.00    +0.000 C 
ATOM      4  C   UNL     1       2.458   5.868  19.098  0.00  0.00    +0.000 C 
ATOM      5  C   UNL     1       1.909   6.542  20.375  0.00  0.00    +0.000 C 
ENDROOT
BRANCH   1  12
ATOM      6  N   UNL     1      -1.091  11.561  19.814  0.00  0.00    +0.000 N 
ATOM      7  C   UNL     1      -0.397  11.852  18.570  0.00  0.00    +0.000 C 
ATOM      8  C   UNL     1      -0.469  10.588  20.601  0.00  0.00    +0.000 A 
ATOM      9  N   UNL     1      -0.825  10.463  21.890  0.00  0.00    +0.000 NA
ATOM     10  C   UNL     1      -0.237   9.478  22.589  0.00  0.00    +0.000 A 
ATOM     11  C   UNL     1       0.696   8.620  22.062  0.00  0.00    +0.000 A 
ATOM     12  C   UNL     1       1.040   8.810  20.743  0.00  0.00    +0.000 A 
ATOM     13  N   UNL     1       0.445   9.783  20.029  0.00  0.00    +0.000 NA
BRANCH   6  14
ATOM     14  C   UNL     1      -1.807  12.609  20.563  0.00  0.00    +0.000 C 
BRANCH  14  15
ATOM     15  C   UNL     1      -3.316  12.812  20.224  0.00  0.00    +0.000 C 
BRANCH  15  17
ATOM     16  C   UNL     1      -4.122  13.028  22.465  0.00  0.00    +0.000 C 
ATOM     17  O   UNL     1      -4.223  12.348  21.227  0.00  0.00    +0.000 OA
ENDBRANCH  15  17
BRANCH  15  18
ATOM     18  O   UNL     1      -3.586  12.150  18.976  0.00  0.00    +0.000 OA
ATOM     19  C   UNL     1      -4.946  11.762  18.848  0.00  0.00    +0.000 C 
ENDBRANCH  15  18
ENDBRANCH  14  15
ENDBRANCH   6  14
ENDBRANCH   1  12
BRANCH   4  20
ATOM     20  O   UNL     1       3.865   5.629  19.246  0.00  0.00    +0.000 OA
BRANCH  20  21
ATOM     21  C   UNL     1       4.505   5.171  18.123  0.00  0.00    +0.000 A 
ATOM     22  C   UNL     1       4.250   3.940  17.523  0.00  0.00    +0.000 A 
ATOM     23  C   UNL     1       4.855   3.606  16.308  0.00  0.00    +0.000 A 
ATOM     24  C   UNL     1       5.739   4.491  15.679  0.00  0.00    +0.000 A 
ATOM     25  C   UNL     1       6.035   5.706  16.319  0.00  0.00    +0.000 A 
ATOM     26  C   UNL     1       5.404   6.051  17.520  0.00  0.00    +0.000 A 
BRANCH  24  27
ATOM     27  C   UNL     1       6.302   4.129  14.315  0.00  0.00    +0.000 C 
ATOM     28  C   UNL     1       7.325   5.152  13.825  0.00  0.00    +0.000 C 
BRANCH  27  29
ATOM     29  N   UNL     1       5.225   3.967  13.356  0.00  0.00    +0.000 N 
ATOM     30  C   UNL     1       5.372   3.245  12.196  0.00  0.00    +0.000 C 
ATOM     31  C   UNL     1       4.153   3.240  11.312  0.00  0.00    +0.000 C 
ATOM     32  O   UNL     1       6.400   2.653  11.888  0.00  0.00    +0.000 OA
ATOM     33  H   UNL     1       4.341   4.433  13.537  0.00  0.00    +0.000 HD
ENDBRANCH  27  29
ENDBRANCH  24  27
ENDBRANCH  20  21
ENDBRANCH   4  20
TORSDOF 9
ENDMDL
MODEL 2
REMARK VINA RESULT:      -7.2      0.936      1.494
REMARK  Name = 
REMARK  14 active torsions:
REMARK  status: ('A' for Active; 'I' for Inactive)
REMARK    1  A    between atoms: C_1  and  O_2
REMARK    2  A    between atoms: O_2  and  C_3
REMARK    3  A    between atoms: C_3  and  C_4
REMARK    4  A    between atoms: C_3  and  O_31
REMARK    5  A    between atoms: C_4  and  N_5
REMARK    6  A    between atoms: N_5  and  C_6
REMARK    7  A    between atoms: C_11  and  N_12
REMARK    8  A    between atoms: C_15  and  O_16
REMARK    9  A    between atoms: O_16  and  C_17
REMARK   10  A    between atoms: C_20  and  C_21
REMARK   11  A    between atoms: C_21  and  C_22
REMARK   12  A    between atoms: C_21  and  N_23
REMARK   13  A    between atoms: C_24  and  C_25
REMARK   14  A    between atoms: O_31  and  C_32
REMARK                            x       y       z     vdW  Elec       q    Type
REMARK                         _______ _______ _______ _____ _____    ______ ____
ROOT
ATOM      1  N   UNL     1       1.896   8.347  19.542  0.00  0.00    +0.000 N 
ATOM      2  C   UNL     1       2.251   8.226  18.135  0.00  0.00    +0.000 C 
ATOM      3  C   UNL     1       2.082   6.742  17.835  0.00  0.00    +0.000 C 
ATOM      4  C   UNL     1       2.487   6.054  19.135  0.00  0.00    +0.000 C 
ATOM      5  C   UNL     1       1.951   7.031  20.204  0.00  0.00    +0.000 C 
ENDROOT
BRANCH   1  12
ATOM      6  N   UNL     1      -2.006  10.810  18.628  0.00  0.00    +0.000 N 
ATOM      7  C   UNL     1      -1.718  10.465  17.246  0.00  0.00    +0.000 C 
ATOM      8  C   UNL     1      -0.979  10.496  19.522  0.00  0.00    +0.000 A 
ATOM      9  N   UNL     1      -0.987  11.043  20.747  0.00  0.00    +0.000 NA
ATOM     10  C   UNL     1      -0.009  10.667  21.588  0.00  0.00    +0.000 A 
ATOM     11  C   UNL     1       0.982   9.777  21.254  0.00  0.00    +0.000 A 
ATOM     12  C   UNL     1       0.954   9.265  19.976  0.00  0.00    +0.000 A 
ATOM     13  N   UNL     1      -0.031   9.623  19.133  0.00  0.00    +0.000 NA
BRANCH   6  14
ATOM     14  C   UNL     1      -2.796  12.005  18.978  0.00  0.00    +0.000 C 
BRANCH  14  15
ATOM     15  C   UNL     1      -4.320  11.790  19.239  0.00  0.00    +0.000 C 
BRANCH  15  17
ATOM     16  C   UNL     1      -6.554  11.998  18.409  0.00  0.00    +0.000 C 
ATOM     17  O   UNL     1      -5.178  12.254  18.194  0.00  0.00    +0.000 OA
ENDBRANCH  15  17
BRANCH  15  18
ATOM     18  O   UNL     1      -4.657  12.440  20.475  0.00  0.00    +0.000 OA
ATOM     19  C   UNL     1      -3.839  13.571  20.738  0.00  0.00    +0.000 C 
ENDBRANCH  15  18
ENDBRANCH  14  15
ENDBRANCH   6  14
ENDBRANCH   1  12
BRANCH   4  20
ATOM     20  O   UNL     1       3.912   5.936  19.262  0.00  0.00    +0.000 OA
BRANCH  20  21
ATOM     21  C   UNL     1       4.558   5.412  18.172  0.00  0.00    +0.000 A 
ATOM     22  C   UNL     1       4.281   4.161  17.624  0.00  0.00    +0.000 A 
ATOM     23  C   UNL     1       4.897   3.758  16.436  0.00  0.00    +0.000 A 
ATOM     24  C   UNL     1       5.814   4.591  15.783  0.00  0.00    +0.000 A 
ATOM     25  C   UNL     1       6.130   5.826  16.373  0.00  0.00    +0.000 A 
ATOM     26  C   UNL     1       5.489   6.241  17.546  0.00  0.00    +0.000 A 
BRANCH  24  27
ATOM     27  C   UNL     1       6.390   4.154  14.447  0.00  0.00    +0.000 C 
ATOM     28  C   UNL     1       7.453   5.122  13.934  0.00  0.00    +0.000 C 
BRANCH  27  29
ATOM     29  N   UNL     1       5.325   3.985  13.474  0.00  0.00    +0.000 N 
ATOM     30  C   UNL     1       5.499   3.288  12.303  0.00  0.00    +0.000 C 
ATOM     31  C   UNL     1       4.289   3.272  11.407  0.00  0.00    +0.000 C 
ATOM     32  O   UNL     1       6.544   2.726  11.994  0.00  0.00    +0.000 OA
ATOM     33  H   UNL     1       4.429   4.427  13.656  0.00  0.00    +0.000 HD
ENDBRANCH  27  29
ENDBRANCH  24  27
ENDBRANCH  20  21
ENDBRANCH   4  20
TORSDOF 9
ENDMDL
MODEL 3
REMARK VINA RESULT:      -7.2      2.735     10.911
REMARK  Name = 
REMARK  14 active torsions:
REMARK  status: ('A' for Active; 'I' for Inactive)
REMARK    1  A    between atoms: C_1  and  O_2
REMARK    2  A    between atoms: O_2  and  C_3
REMARK    3  A    between atoms: C_3  and  C_4
REMARK    4  A    between atoms: C_3  and  O_31
REMARK    5  A    between atoms: C_4  and  N_5
REMARK    6  A    between atoms: N_5  and  C_6
REMARK    7  A    between atoms: C_11  and  N_12
REMARK    8  A    between atoms: C_15  and  O_16
REMARK    9  A    between atoms: O_16  and  C_17
REMARK   10  A    between atoms: C_20  and  C_21
REMARK   11  A    between atoms: C_21  and  C_22
REMARK   12  A    between atoms: C_21  and  N_23
REMARK   13  A    between atoms: C_24  and  C_25
REMARK   14  A    between atoms: O_31  and  C_32
REMARK                            x       y       z     vdW  Elec       q    Type
REMARK                         _______ _______ _______ _____ _____    ______ ____
ROOT
ATOM      1  N   UNL     1       1.469   9.472  18.310  0.00  0.00    +0.000 N 
ATOM      2  C   UNL     1       2.221  10.692  18.059  0.00  0.00    +0.000 C 
ATOM      3  C   UNL     1       1.603  11.713  19.005  0.00  0.00    +0.000 C 
ATOM      4  C   UNL     1       0.129  11.321  19.058  0.00  0.00    +0.000 C 
ATOM      5  C   UNL     1       0.198   9.780  18.991  0.00  0.00    +0.000 C 
ENDROOT
BRANCH   1  12
ATOM      6  N   UNL     1       4.738   6.288  17.168  0.00  0.00    +0.000 N 
ATOM      7  C   UNL     1       4.708   6.946  15.872  0.00  0.00    +0.000 C 
ATOM      8  C   UNL     1       3.719   6.689  18.036  0.00  0.00    +0.000 A 
ATOM      9  N   UNL     1       3.448   5.942  19.118  0.00  0.00    +0.000 NA
ATOM     10  C   UNL     1       2.498   6.398  19.950  0.00  0.00    +0.000 A 
ATOM     11  C   UNL     1       1.799   7.562  19.744  0.00  0.00    +0.000 A 
ATOM     12  C   UNL     1       2.102   8.276  18.606  0.00  0.00    +0.000 A 
ATOM     13  N   UNL     1       3.064   7.835  17.775  0.00  0.00    +0.000 NA
BRANCH   6  14
ATOM     14  C   UNL     1       5.168   4.885  17.313  0.00  0.00    +0.000 C 
BRANCH  14  15
ATOM     15  C   UNL     1       6.703   4.626  17.421  0.00  0.00    +0.000 C 
BRANCH  15  17
ATOM     16  C   UNL     1       7.771   6.336  18.708  0.00  0.00    +0.000 C 
ATOM     17  O   UNL     1       7.287   5.005  18.670  0.00  0.00    +0.000 OA
ENDBRANCH  15  17
BRANCH  15  18
ATOM     18  O   UNL     1       7.351   5.326  16.345  0.00  0.00    +0.000 OA
ATOM     19  C   UNL     1       7.174   4.682  15.092  0.00  0.00    +0.000 C 
ENDBRANCH  15  18
ENDBRANCH  14  15
ENDBRANCH   6  14
ENDBRANCH   1  12
BRANCH   4  20
ATOM     20  O   UNL     1      -0.604  11.820  17.929  0.00  0.00    +0.000 OA
BRANCH  20  21
ATOM     21  C   UNL     1      -1.966  11.685  18.006  0.00  0.00    +0.000 A 
ATOM     22  C   UNL     1      -2.728  12.048  19.114  0.00  0.00    +0.000 A 
ATOM     23  C   UNL     1      -4.124  11.997  19.061  0.00  0.00    +0.000 A 
ATOM     24  C   UNL     1      -4.783  11.566  17.903  0.00  0.00    +0.000 A 
ATOM     25  C   UNL     1      -4.006  11.148  16.810  0.00  0.00    +0.000 A 
ATOM     26  C   UNL     1      -2.609  11.230  16.855  0.00  0.00    +0.000 A 
BRANCH  24  27
ATOM     27  C   UNL     1      -6.300  11.614  17.853  0.00  0.00    +0.000 C 
ATOM     28  C   UNL     1      -6.813  12.832  17.088  0.00  0.00    +0.000 C 
BRANCH  27  29
ATOM     29  N   UNL     1      -6.847  11.575  19.198  0.00  0.00    +0.000 N 
ATOM     30  C   UNL     1      -7.217  10.402  19.810  0.00  0.00    +0.000 C 
ATOM     31  C   UNL     1      -7.809  10.581  21.183  0.00  0.00    +0.000 C 
ATOM     32  O   UNL     1      -7.090   9.296  19.297  0.00  0.00    +0.000 OA
ATOM     33  H   UNL     1      -6.989  12.453  19.688  0.00  0.00    +0.000 HD
ENDBRANCH  27  29
ENDBRANCH  24  27
ENDBRANCH  20  21
ENDBRANCH   4  20
TORSDOF 9
ENDMDL
MODEL 4
REMARK VINA RESULT:      -7.2      0.909      1.229
REMARK  Name = 
REMARK  14 active torsions:
REMARK  status: ('A' for Active; 'I' for Inactive)
REMARK    1  A    between atoms: C_1  and  O_2
REMARK    2  A    between atoms: O_2  and  C_3
REMARK    3  A    between atoms: C_3  and  C_4
REMARK    4  A    between atoms: C_3  and  O_31
REMARK    5  A    between atoms: C_4  and  N_5
REMARK    6  A    between atoms: N_5  and  C_6
REMARK    7  A    between atoms: C_11  and  N_12
REMARK    8  A    between atoms: C_15  and  O_16
REMARK    9  A    between atoms: O_16  and  C_17
REMARK   10  A    between atoms: C_20  and  C_21
REMARK   11  A    between atoms: C_21  and  C_22
REMARK   12  A    between atoms: C_21  and  N_23
REMARK   13  A    between atoms: C_24  and  C_25
REMARK   14  A    between atoms: O_31  and  C_32
REMARK                            x       y       z     vdW  Elec       q    Type
REMARK                         _______ _______ _______ _____ _____    ______ ____
ROOT
ATOM      1  N   UNL     1       2.045   8.005  20.032  0.00  0.00    +0.000 N 
ATOM      2  C   UNL     1       2.369   8.211  18.628  0.00  0.00    +0.000 C 
ATOM      3  C   UNL     1       2.192   6.835  17.999  0.00  0.00    +0.000 C 
ATOM      4  C   UNL     1       2.625   5.868  19.097  0.00  0.00    +0.000 C 
ATOM      5  C   UNL     1       2.113   6.572  20.373  0.00  0.00    +0.000 C 
ENDROOT
BRANCH   1  12
ATOM      6  N   UNL     1      -0.380  12.033  20.187  0.00  0.00    +0.000 N 
ATOM      7  C   UNL     1       0.617  12.493  19.234  0.00  0.00    +0.000 C 
ATOM      8  C   UNL     1      -0.086  10.797  20.770  0.00  0.00    +0.000 A 
ATOM      9  N   UNL     1      -0.746  10.422  21.877  0.00  0.00    +0.000 NA
ATOM     10  C   UNL     1      -0.467   9.203  22.367  0.00  0.00    +0.000 A 
ATOM     11  C   UNL     1       0.449   8.347  21.807  0.00  0.00    +0.000 A 
ATOM     12  C   UNL     1       1.113   8.794  20.686  0.00  0.00    +0.000 A 
ATOM     13  N   UNL     1       0.829  10.007  20.178  0.00  0.00    +0.000 NA
BRANCH   6  14
ATOM     14  C   UNL     1      -1.114  12.975  21.053  0.00  0.00    +0.000 C 
BRANCH  14  15
ATOM     15  C   UNL     1      -2.443  13.563  20.485  0.00  0.00    +0.000 C 
BRANCH  15  17
ATOM     16  C   UNL     1      -1.800  15.861  20.646  0.00  0.00    +0.000 C 
ATOM     17  O   UNL     1      -2.767  14.873  20.956  0.00  0.00    +0.000 OA
ENDBRANCH  15  17
BRANCH  15  18
ATOM     18  O   UNL     1      -3.507  12.651  20.803  0.00  0.00    +0.000 OA
ATOM     19  C   UNL     1      -3.840  12.663  22.184  0.00  0.00    +0.000 C 
ENDBRANCH  15  18
ENDBRANCH  14  15
ENDBRANCH   6  14
ENDBRANCH   1  12
BRANCH   4  20
ATOM     20  O   UNL     1       4.053   5.731  19.163  0.00  0.00    +0.000 OA
BRANCH  20  21
ATOM     21  C   UNL     1       4.648   5.230  18.035  0.00  0.00    +0.000 A 
ATOM     22  C   UNL     1       4.249   4.059  17.392  0.00  0.00    +0.000 A 
ATOM     23  C   UNL     1       4.827   3.688  16.175  0.00  0.00    +0.000 A 
ATOM     24  C   UNL     1       5.826   4.472  15.586  0.00  0.00    +0.000 A 
ATOM     25  C   UNL     1       6.263   5.620  16.268  0.00  0.00    +0.000 A 
ATOM     26  C   UNL     1       5.660   6.006  17.471  0.00  0.00    +0.000 A 
BRANCH  24  27
ATOM     27  C   UNL     1       6.361   4.083  14.218  0.00  0.00    +0.000 C 
ATOM     28  C   UNL     1       7.408   5.071  13.707  0.00  0.00    +0.000 C 
BRANCH  27  29
ATOM     29  N   UNL     1       5.268   3.945  13.273  0.00  0.00    +0.000 N 
ATOM     30  C   UNL     1       5.373   3.196  12.127  0.00  0.00    +0.000 C 
ATOM     31  C   UNL     1       4.145   3.222  11.255  0.00  0.00    +0.000 C 
ATOM     32  O   UNL     1       6.374   2.557  11.820  0.00  0.00    +0.000 OA
ATOM     33  H   UNL     1       4.405   4.449  13.455  0.00  0.00    +0.000 HD
ENDBRANCH  27  29
ENDBRANCH  24  27
ENDBRANCH  20  21
ENDBRANCH   4  20
TORSDOF 9
ENDMDL
MODEL 5
REMARK VINA RESULT:      -7.1      1.686      2.093
REMARK  Name = 
REMARK  14 active torsions:
REMARK  status: ('A' for Active; 'I' for Inactive)
REMARK    1  A    between atoms: C_1  and  O_2
REMARK    2  A    between atoms: O_2  and  C_3
REMARK    3  A    between atoms: C_3  and  C_4
REMARK    4  A    between atoms: C_3  and  O_31
REMARK    5  A    between atoms: C_4  and  N_5
REMARK    6  A    between atoms: N_5  and  C_6
REMARK    7  A    between atoms: C_11  and  N_12
REMARK    8  A    between atoms: C_15  and  O_16
REMARK    9  A    between atoms: O_16  and  C_17
REMARK   10  A    between atoms: C_20  and  C_21
REMARK   11  A    between atoms: C_21  and  C_22
REMARK   12  A    between atoms: C_21  and  N_23
REMARK   13  A    between atoms: C_24  and  C_25
REMARK   14  A    between atoms: O_31  and  C_32
REMARK                            x       y       z     vdW  Elec       q    Type
REMARK                         _______ _______ _______ _____ _____    ______ ____
ROOT
ATOM      1  N   UNL     1       2.133   7.785  19.933  0.00  0.00    +0.000 N 
ATOM      2  C   UNL     1       2.434   7.796  18.509  0.00  0.00    +0.000 C 
ATOM      3  C   UNL     1       2.248   6.347  18.077  0.00  0.00    +0.000 C 
ATOM      4  C   UNL     1       2.700   5.539  19.291  0.00  0.00    +0.000 C 
ATOM      5  C   UNL     1       2.208   6.412  20.466  0.00  0.00    +0.000 C 
ENDROOT
BRANCH   1  12
ATOM      6  N   UNL     1      -0.080  11.930  19.721  0.00  0.00    +0.000 N 
ATOM      7  C   UNL     1       0.988  12.281  18.799  0.00  0.00    +0.000 C 
ATOM      8  C   UNL     1       0.118  10.719  20.390  0.00  0.00    +0.000 A 
ATOM      9  N   UNL     1      -0.617  10.445  21.479  0.00  0.00    +0.000 NA
ATOM     10  C   UNL     1      -0.428   9.246  22.054  0.00  0.00    +0.000 A 
ATOM     11  C   UNL     1       0.469   8.313  21.595  0.00  0.00    +0.000 A 
ATOM     12  C   UNL     1       1.212   8.657  20.488  0.00  0.00    +0.000 A 
ATOM     13  N   UNL     1       1.019   9.850  19.896  0.00  0.00    +0.000 NA
BRANCH   6  14
ATOM     14  C   UNL     1      -0.807  12.958  20.489  0.00  0.00    +0.000 C 
BRANCH  14  15
ATOM     15  C   UNL     1      -0.002  14.230  20.901  0.00  0.00    +0.000 C 
BRANCH  15  17
ATOM     16  C   UNL     1       2.246  14.627  21.613  0.00  0.00    +0.000 C 
ATOM     17  O   UNL     1       1.004  14.007  21.891  0.00  0.00    +0.000 OA
ENDBRANCH  15  17
BRANCH  15  18
ATOM     18  O   UNL     1      -0.936  15.219  21.366  0.00  0.00    +0.000 OA
ATOM     19  C   UNL     1      -2.287  14.821  21.183  0.00  0.00    +0.000 C 
ENDBRANCH  15  18
ENDBRANCH  14  15
ENDBRANCH   6  14
ENDBRANCH   1  12
BRANCH   4  20
ATOM     20  O   UNL     1       4.128   5.411  19.351  0.00  0.00    +0.000 OA
BRANCH  20  21
ATOM     21  C   UNL     1       4.729   4.986  18.194  0.00  0.00    +0.000 A 
ATOM     22  C   UNL     1       4.296   3.898  17.439  0.00  0.00    +0.000 A 
ATOM     23  C   UNL     1       4.888   3.613  16.206  0.00  0.00    +0.000 A 
ATOM     24  C   UNL     1       5.936   4.400  15.712  0.00  0.00    +0.000 A 
ATOM     25  C   UNL     1       6.404   5.461  16.505  0.00  0.00    +0.000 A 
ATOM     26  C   UNL     1       5.789   5.764  17.725  0.00  0.00    +0.000 A 
BRANCH  24  27
ATOM     27  C   UNL     1       6.488   4.113  14.326  0.00  0.00    +0.000 C 
ATOM     28  C   UNL     1       7.423   5.217  13.839  0.00  0.00    +0.000 C 
BRANCH  27  29
ATOM     29  N   UNL     1       5.401   3.897  13.388  0.00  0.00    +0.000 N 
ATOM     30  C   UNL     1       5.574   3.237  12.196  0.00  0.00    +0.000 C 
ATOM     31  C   UNL     1       4.335   3.163  11.344  0.00  0.00    +0.000 C 
ATOM     32  O   UNL     1       6.639   2.747  11.837  0.00  0.00    +0.000 OA
ATOM     33  H   UNL     1       4.487   4.279  13.612  0.00  0.00    +0.000 HD
ENDBRANCH  27  29
ENDBRANCH  24  27
ENDBRANCH  20  21
ENDBRANCH   4  20
TORSDOF 9
ENDMDL
MODEL 6
REMARK VINA RESULT:      -7.0      1.633      2.379
REMARK  Name = 
REMARK  14 active torsions:
REMARK  status: ('A' for Active; 'I' for Inactive)
REMARK    1  A    between atoms: C_1  and  O_2
REMARK    2  A    between atoms: O_2  and  C_3
REMARK    3  A    between atoms: C_3  and  C_4
REMARK    4  A    between atoms: C_3  and  O_31
REMARK    5  A    between atoms: C_4  and  N_5
REMARK    6  A    between atoms: N_5  and  C_6
REMARK    7  A    between atoms: C_11  and  N_12
REMARK    8  A    between atoms: C_15  and  O_16
REMARK    9  A    between atoms: O_16  and  C_17
REMARK   10  A    between atoms: C_20  and  C_21
REMARK   11  A    between atoms: C_21  and  C_22
REMARK   12  A    between atoms: C_21  and  N_23
REMARK   13  A    between atoms: C_24  and  C_25
REMARK   14  A    between atoms: O_31  and  C_32
REMARK                            x       y       z     vdW  Elec       q    Type
REMARK                         _______ _______ _______ _____ _____    ______ ____
ROOT
ATOM      1  N   UNL     1       1.786   8.912  19.094  0.00  0.00    +0.000 N 
ATOM      2  C   UNL     1       2.139   8.664  17.704  0.00  0.00    +0.000 C 
ATOM      3  C   UNL     1       1.996   7.156  17.546  0.00  0.00    +0.000 C 
ATOM      4  C   UNL     1       2.418   6.601  18.904  0.00  0.00    +0.000 C 
ATOM      5  C   UNL     1       1.867   7.666  19.878  0.00  0.00    +0.000 C 
ENDROOT
BRANCH   1  12
ATOM      6  N   UNL     1      -0.676  11.034  22.495  0.00  0.00    +0.000 N 
ATOM      7  C   UNL     1      -0.242   9.907  23.303  0.00  0.00    +0.000 C 
ATOM      8  C   UNL     1      -0.401  10.900  21.131  0.00  0.00    +0.000 A 
ATOM      9  N   UNL     1      -1.023  11.704  20.255  0.00  0.00    +0.000 NA
ATOM     10  C   UNL     1      -0.684  11.572  18.962  0.00  0.00    +0.000 A 
ATOM     11  C   UNL     1       0.240  10.665  18.505  0.00  0.00    +0.000 A 
ATOM     12  C   UNL     1       0.829   9.850  19.445  0.00  0.00    +0.000 A 
ATOM     13  N   UNL     1       0.508   9.986  20.744  0.00  0.00    +0.000 NA
BRANCH   6  14
ATOM     14  C   UNL     1      -1.902  11.788  22.815  0.00  0.00    +0.000 C 
BRANCH  14  15
ATOM     15  C   UNL     1      -1.714  13.227  23.390  0.00  0.00    +0.000 C 
BRANCH  15  17
ATOM     16  C   UNL     1      -3.717  14.527  23.523  0.00  0.00    +0.000 C 
ATOM     17  O   UNL     1      -2.795  13.693  24.201  0.00  0.00    +0.000 OA
ENDBRANCH  15  17
BRANCH  15  18
ATOM     18  O   UNL     1      -1.507  14.125  22.287  0.00  0.00    +0.000 OA
ATOM     19  C   UNL     1      -0.165  14.583  22.201  0.00  0.00    +0.000 C 
ENDBRANCH  15  18
ENDBRANCH  14  15
ENDBRANCH   6  14
ENDBRANCH   1  12
BRANCH   4  20
ATOM     20  O   UNL     1       3.845   6.522  19.034  0.00  0.00    +0.000 OA
BRANCH  20  21
ATOM     21  C   UNL     1       4.493   5.873  18.015  0.00  0.00    +0.000 A 
ATOM     22  C   UNL     1       4.263   4.546  17.659  0.00  0.00    +0.000 A 
ATOM     23  C   UNL     1       4.874   4.001  16.526  0.00  0.00    +0.000 A 
ATOM     24  C   UNL     1       5.739   4.769  15.737  0.00  0.00    +0.000 A 
ATOM     25  C   UNL     1       6.010   6.089  16.134  0.00  0.00    +0.000 A 
ATOM     26  C   UNL     1       5.373   6.642  17.252  0.00  0.00    +0.000 A 
BRANCH  24  27
ATOM     27  C   UNL     1       6.308   4.168  14.463  0.00  0.00    +0.000 C 
ATOM     28  C   UNL     1       7.428   5.023  13.874  0.00  0.00    +0.000 C 
BRANCH  27  29
ATOM     29  N   UNL     1       5.249   3.954  13.494  0.00  0.00    +0.000 N 
ATOM     30  C   UNL     1       5.465   3.329  12.290  0.00  0.00    +0.000 C 
ATOM     31  C   UNL     1       4.249   3.252  11.405  0.00  0.00    +0.000 C 
ATOM     32  O   UNL     1       6.549   2.872  11.945  0.00  0.00    +0.000 OA
ATOM     33  H   UNL     1       4.321   4.311  13.704  0.00  0.00    +0.000 HD
ENDBRANCH  27  29
ENDBRANCH  24  27
ENDBRANCH  20  21
ENDBRANCH   4  20
TORSDOF 9
ENDMDL
MODEL 7
REMARK VINA RESULT:      -7.0      2.500     11.583
REMARK  Name = 
REMARK  14 active torsions:
REMARK  status: ('A' for Active; 'I' for Inactive)
REMARK    1  A    between atoms: C_1  and  O_2
REMARK    2  A    between atoms: O_2  and  C_3
REMARK    3  A    between atoms: C_3  and  C_4
REMARK    4  A    between atoms: C_3  and  O_31
REMARK    5  A    between atoms: C_4  and  N_5
REMARK    6  A    between atoms: N_5  and  C_6
REMARK    7  A    between atoms: C_11  and  N_12
REMARK    8  A    between atoms: C_15  and  O_16
REMARK    9  A    between atoms: O_16  and  C_17
REMARK   10  A    between atoms: C_20  and  C_21
REMARK   11  A    between atoms: C_21  and  C_22
REMARK   12  A    between atoms: C_21  and  N_23
REMARK   13  A    between atoms: C_24  and  C_25
REMARK   14  A    between atoms: O_31  and  C_32
REMARK                            x       y       z     vdW  Elec       q    Type
REMARK                         _______ _______ _______ _____ _____    ______ ____
ROOT
ATOM      1  N   UNL     1       1.375   8.316  19.203  0.00  0.00    +0.000 N 
ATOM      2  C   UNL     1       1.422   9.318  18.149  0.00  0.00    +0.000 C 
ATOM      3  C   UNL     1       1.564  10.638  18.895  0.00  0.00    +0.000 C 
ATOM      4  C   UNL     1       0.763  10.426  20.177  0.00  0.00    +0.000 C 
ATOM      5  C   UNL     1       1.045   8.942  20.497  0.00  0.00    +0.000 C 
ENDROOT
BRANCH   1  12
ATOM      6  N   UNL     1       4.989   6.057  17.211  0.00  0.00    +0.000 N 
ATOM      7  C   UNL     1       4.727   6.943  16.089  0.00  0.00    +0.000 C 
ATOM      8  C   UNL     1       4.008   6.089  18.206  0.00  0.00    +0.000 A 
ATOM      9  N   UNL     1       3.969   5.107  19.119  0.00  0.00    +0.000 NA
ATOM     10  C   UNL     1       3.042   5.212  20.086  0.00  0.00    +0.000 A 
ATOM     11  C   UNL     1       2.148   6.249  20.175  0.00  0.00    +0.000 A 
ATOM     12  C   UNL     1       2.219   7.217  19.198  0.00  0.00    +0.000 A 
ATOM     13  N   UNL     1       3.154   7.129  18.235  0.00  0.00    +0.000 NA
BRANCH   6  14
ATOM     14  C   UNL     1       5.652   4.753  17.028  0.00  0.00    +0.000 C 
BRANCH  14  15
ATOM     15  C   UNL     1       7.212   4.756  16.983  0.00  0.00    +0.000 C 
BRANCH  15  17
ATOM     16  C   UNL     1       7.846   5.701  19.086  0.00  0.00    +0.000 C 
ATOM     17  O   UNL     1       7.829   5.843  17.677  0.00  0.00    +0.000 OA
ENDBRANCH  15  17
BRANCH  15  18
ATOM     18  O   UNL     1       7.619   4.763  15.604  0.00  0.00    +0.000 OA
ATOM     19  C   UNL     1       6.656   4.164  14.749  0.00  0.00    +0.000 C 
ENDBRANCH  15  18
ENDBRANCH  14  15
ENDBRANCH   6  14
ENDBRANCH   1  12
BRANCH   4  20
ATOM     20  O   UNL     1      -0.645  10.615  19.971  0.00  0.00    +0.000 OA
BRANCH  20  21
ATOM     21  C   UNL     1      -1.217  11.620  20.706  0.00  0.00    +0.000 A 
ATOM     22  C   UNL     1      -2.192  12.489  20.221  0.00  0.00    +0.000 A 
ATOM     23  C   UNL     1      -2.814  13.403  21.076  0.00  0.00    +0.000 A 
ATOM     24  C   UNL     1      -2.460  13.476  22.430  0.00  0.00    +0.000 A 
ATOM     25  C   UNL     1      -1.437  12.636  22.898  0.00  0.00    +0.000 A 
ATOM     26  C   UNL     1      -0.837  11.700  22.047  0.00  0.00    +0.000 A 
BRANCH  24  27
ATOM     27  C   UNL     1      -3.225  14.417  23.344  0.00  0.00    +0.000 C 
ATOM     28  C   UNL     1      -2.647  14.443  24.757  0.00  0.00    +0.000 C 
BRANCH  27  29
ATOM     29  N   UNL     1      -4.633  14.064  23.363  0.00  0.00    +0.000 N 
ATOM     30  C   UNL     1      -5.100  12.925  23.972  0.00  0.00    +0.000 C 
ATOM     31  C   UNL     1      -6.585  12.714  23.835  0.00  0.00    +0.000 C 
ATOM     32  O   UNL     1      -4.385  12.133  24.576  0.00  0.00    +0.000 OA
ATOM     33  H   UNL     1      -5.290  14.668  22.878  0.00  0.00    +0.000 HD
ENDBRANCH  27  29
ENDBRANCH  24  27
ENDBRANCH  20  21
ENDBRANCH   4  20
TORSDOF 9
ENDMDL
MODEL 8
REMARK VINA RESULT:      -6.9      1.307      1.700
REMARK  Name = 
REMARK  14 active torsions:
REMARK  status: ('A' for Active; 'I' for Inactive)
REMARK    1  A    between atoms: C_1  and  O_2
REMARK    2  A    between atoms: O_2  and  C_3
REMARK    3  A    between atoms: C_3  and  C_4
REMARK    4  A    between atoms: C_3  and  O_31
REMARK    5  A    between atoms: C_4  and  N_5
REMARK    6  A    between atoms: N_5  and  C_6
REMARK    7  A    between atoms: C_11  and  N_12
REMARK    8  A    between atoms: C_15  and  O_16
REMARK    9  A    between atoms: O_16  and  C_17
REMARK   10  A    between atoms: C_20  and  C_21
REMARK   11  A    between atoms: C_21  and  C_22
REMARK   12  A    between atoms: C_21  and  N_23
REMARK   13  A    between atoms: C_24  and  C_25
REMARK   14  A    between atoms: O_31  and  C_32
REMARK                            x       y       z     vdW  Elec       q    Type
REMARK                         _______ _______ _______ _____ _____    ______ ____
ROOT
ATOM      1  N   UNL     1       2.088   8.083  19.694  0.00  0.00    +0.000 N 
ATOM      2  C   UNL     1       2.357   8.389  18.296  0.00  0.00    +0.000 C 
ATOM      3  C   UNL     1       2.229   7.046  17.589  0.00  0.00    +0.000 C 
ATOM      4  C   UNL     1       2.743   6.039  18.614  0.00  0.00    +0.000 C 
ATOM      5  C   UNL     1       2.237   6.638  19.945  0.00  0.00    +0.000 C 
ENDROOT
BRANCH   1  12
ATOM      6  N   UNL     1      -1.253  11.394  19.766  0.00  0.00    +0.000 N 
ATOM      7  C   UNL     1      -0.651  11.814  18.511  0.00  0.00    +0.000 C 
ATOM      8  C   UNL     1      -0.514  10.433  20.461  0.00  0.00    +0.000 A 
ATOM      9  N   UNL     1      -0.791  10.204  21.754  0.00  0.00    +0.000 NA
ATOM     10  C   UNL     1      -0.090   9.233  22.364  0.00  0.00    +0.000 A 
ATOM     11  C   UNL     1       0.882   8.490  21.741  0.00  0.00    +0.000 A 
ATOM     12  C   UNL     1       1.140   8.784  20.421  0.00  0.00    +0.000 A 
ATOM     13  N   UNL     1       0.432   9.743  19.798  0.00  0.00    +0.000 NA
BRANCH   6  14
ATOM     14  C   UNL     1      -2.012  12.333  20.611  0.00  0.00    +0.000 C 
BRANCH  14  15
ATOM     15  C   UNL     1      -1.236  13.011  21.783  0.00  0.00    +0.000 C 
BRANCH  15  17
ATOM     16  C   UNL     1      -2.793  12.531  23.534  0.00  0.00    +0.000 C 
ATOM     17  O   UNL     1      -2.062  13.521  22.832  0.00  0.00    +0.000 OA
ENDBRANCH  15  17
BRANCH  15  18
ATOM     18  O   UNL     1      -0.433  14.070  21.233  0.00  0.00    +0.000 OA
ATOM     19  C   UNL     1       0.955  13.774  21.265  0.00  0.00    +0.000 C 
ENDBRANCH  15  18
ENDBRANCH  14  15
ENDBRANCH   6  14
ENDBRANCH   1  12
BRANCH   4  20
ATOM     20  O   UNL     1       4.177   5.971  18.631  0.00  0.00    +0.000 OA
BRANCH  20  21
ATOM     21  C   UNL     1       4.753   5.439  17.507  0.00  0.00    +0.000 A 
ATOM     22  C   UNL     1       4.947   4.075  17.295  0.00  0.00    +0.000 A 
ATOM     23  C   UNL     1       5.424   3.610  16.067  0.00  0.00    +0.000 A 
ATOM     24  C   UNL     1       5.733   4.502  15.032  0.00  0.00    +0.000 A 
ATOM     25  C   UNL     1       5.588   5.878  15.272  0.00  0.00    +0.000 A 
ATOM     26  C   UNL     1       5.081   6.339  16.493  0.00  0.00    +0.000 A 
BRANCH  24  27
ATOM     27  C   UNL     1       6.159   3.950  13.683  0.00  0.00    +0.000 C 
ATOM     28  C   UNL     1       7.344   4.714  13.097  0.00  0.00    +0.000 C 
BRANCH  27  29
ATOM     29  N   UNL     1       5.035   3.946  12.764  0.00  0.00    +0.000 N 
ATOM     30  C   UNL     1       4.900   3.012  11.767  0.00  0.00    +0.000 C 
ATOM     31  C   UNL     1       3.691   3.213  10.891  0.00  0.00    +0.000 C 
ATOM     32  O   UNL     1       5.687   2.090  11.586  0.00  0.00    +0.000 OA
ATOM     33  H   UNL     1       4.341   4.684  12.846  0.00  0.00    +0.000 HD
ENDBRANCH  27  29
ENDBRANCH  24  27
ENDBRANCH  20  21
ENDBRANCH   4  20
TORSDOF 9
ENDMDL
MODEL 9
REMARK VINA RESULT:      -6.9      2.697     11.445
REMARK  Name = 
REMARK  14 active torsions:
REMARK  status: ('A' for Active; 'I' for Inactive)
REMARK    1  A    between atoms: C_1  and  O_2
REMARK    2  A    between atoms: O_2  and  C_3
REMARK    3  A    between atoms: C_3  and  C_4
REMARK    4  A    between atoms: C_3  and  O_31
REMARK    5  A    between atoms: C_4  and  N_5
REMARK    6  A    between atoms: N_5  and  C_6
REMARK    7  A    between atoms: C_11  and  N_12
REMARK    8  A    between atoms: C_15  and  O_16
REMARK    9  A    between atoms: O_16  and  C_17
REMARK   10  A    between atoms: C_20  and  C_21
REMARK   11  A    between atoms: C_21  and  C_22
REMARK   12  A    between atoms: C_21  and  N_23
REMARK   13  A    between atoms: C_24  and  C_25
REMARK   14  A    between atoms: O_31  and  C_32
REMARK                            x       y       z     vdW  Elec       q    Type
REMARK                         _______ _______ _______ _____ _____    ______ ____
ROOT
ATOM      1  N   UNL     1       2.981   6.214  19.487  0.00  0.00    +0.000 N 
ATOM      2  C   UNL     1       2.441   5.752  20.758  0.00  0.00    +0.000 C 
ATOM      3  C   UNL     1       1.046   6.361  20.813  0.00  0.00    +0.000 C 
ATOM      4  C   UNL     1       1.202   7.705  20.107  0.00  0.00    +0.000 C 
ATOM      5  C   UNL     1       2.217   7.373  18.992  0.00  0.00    +0.000 C 
ENDROOT
BRANCH   1  12
ATOM      6  N   UNL     1       6.688   4.866  16.924  0.00  0.00    +0.000 N 
ATOM      7  C   UNL     1       7.196   6.191  17.240  0.00  0.00    +0.000 C 
ATOM      8  C   UNL     1       5.352   4.666  17.281  0.00  0.00    +0.000 A 
ATOM      9  N   UNL     1       4.685   3.622  16.765  0.00  0.00    +0.000 NA
ATOM     10  C   UNL     1       3.421   3.441  17.182  0.00  0.00    +0.000 A 
ATOM     11  C   UNL     1       2.791   4.264  18.083  0.00  0.00    +0.000 A 
ATOM     12  C   UNL     1       3.515   5.332  18.562  0.00  0.00    +0.000 A 
ATOM     13  N   UNL     1       4.787   5.512  18.163  0.00  0.00    +0.000 NA
BRANCH   6  14
ATOM     14  C   UNL     1       7.131   4.135  15.723  0.00  0.00    +0.000 C 
BRANCH  14  15
ATOM     15  C   UNL     1       6.878   4.824  14.345  0.00  0.00    +0.000 C 
BRANCH  15  17
ATOM     16  C   UNL     1       5.244   3.748  12.970  0.00  0.00    +0.000 C 
ATOM     17  O   UNL     1       6.618   3.924  13.265  0.00  0.00    +0.000 OA
ENDBRANCH  15  17
BRANCH  15  18
ATOM     18  O   UNL     1       8.021   5.641  14.038  0.00  0.00    +0.000 OA
ATOM     19  C   UNL     1       8.256   5.745  12.642  0.00  0.00    +0.000 C 
ENDBRANCH  15  18
ENDBRANCH  14  15
ENDBRANCH   6  14
ENDBRANCH   1  12
BRANCH   4  20
ATOM     20  O   UNL     1       1.750   8.710  20.974  0.00  0.00    +0.000 OA
BRANCH  20  21
ATOM     21  C   UNL     1       0.844   9.601  21.487  0.00  0.00    +0.000 A 
ATOM     22  C   UNL     1      -0.004   9.328  22.559  0.00  0.00    +0.000 A 
ATOM     23  C   UNL     1      -0.806  10.335  23.101  0.00  0.00    +0.000 A 
ATOM     24  C   UNL     1      -0.788  11.632  22.571  0.00  0.00    +0.000 A 
ATOM     25  C   UNL     1       0.026  11.884  21.455  0.00  0.00    +0.000 A 
ATOM     26  C   UNL     1       0.852  10.882  20.933  0.00  0.00    +0.000 A 
BRANCH  24  27
ATOM     27  C   UNL     1      -1.604  12.719  23.249  0.00  0.00    +0.000 C 
ATOM     28  C   UNL     1      -3.102  12.425  23.207  0.00  0.00    +0.000 C 
BRANCH  27  29
ATOM     29  N   UNL     1      -1.308  14.010  22.655  0.00  0.00    +0.000 N 
ATOM     30  C   UNL     1      -0.897  15.089  23.401  0.00  0.00    +0.000 C 
ATOM     31  C   UNL     1      -0.692  16.350  22.604  0.00  0.00    +0.000 C 
ATOM     32  O   UNL     1      -0.712  15.049  24.612  0.00  0.00    +0.000 OA
ATOM     33  H   UNL     1      -1.443  14.126  21.655  0.00  0.00    +0.000 HD
ENDBRANCH  27  29
ENDBRANCH  24  27
ENDBRANCH  20  21
ENDBRANCH   4  20
TORSDOF 9
ENDMDL
