MODEL 1
REMARK VINA RESULT:      -7.5      0.000      0.000
REMARK  Name = 
REMARK  6 active torsions:
REMARK  status: ('A' for Active; 'I' for Inactive)
REMARK    1  A    between atoms: C_1  and  C_2
REMARK    2  A    between atoms: C_5  and  O_6
REMARK    3  A    between atoms: O_6  and  C_7
REMARK    4  A    between atoms: C_7  and  C_8
REMARK    5  A    between atoms: C_8  and  O_10
REMARK    6  A    between atoms: C_14  and  C_16
REMARK                            x       y       z     vdW  Elec       q    Type
REMARK                         _______ _______ _______ _____ _____    ______ ____
ROOT
ATOM      1  C   UNL     1       3.894   3.926  18.742  0.00  0.00    +0.000 C 
ATOM      2  C   UNL     1       5.115   4.821  19.081  0.00  0.00    +0.000 C 
ATOM      3  C   UNL     1       5.483   5.845  18.005  0.00  0.00    +0.000 C 
ATOM      4  N   UNL     1       5.493   5.260  16.668  0.00  0.00    +0.000 N 
ATOM      5  C   UNL     1       6.708   5.172  15.966  0.00  0.00    +0.000 C 
ATOM      6  O   UNL     1       7.779   5.484  16.484  0.00  0.00    +0.000 OA
ATOM      7  C   UNL     1       4.274   4.533  16.331  0.00  0.00    +0.000 C 
ATOM      8  C   UNL     1       4.083   3.376  17.312  0.00  0.00    +0.000 C 
ENDROOT
BRANCH   5   9
ATOM      9  C   UNL     1       6.670   4.677  14.581  0.00  0.00    +0.000 A 
ATOM     10  C   UNL     1       5.764   3.717  14.004  0.00  0.00    +0.000 A 
ATOM     11  C   UNL     1       6.070   3.407  12.697  0.00  0.00    +0.000 A 
ATOM     12  S   UNL     1       7.339   4.378  12.097  0.00  0.00    +0.000 S 
ATOM     13  C   UNL     1       7.511   5.175  13.601  0.00  0.00    +0.000 A 
ENDBRANCH   5   9
BRANCH   1  14
ATOM     14  C   UNL     1       3.837   2.705  19.686  0.00  0.00    +0.000 C 
ATOM     15  O   UNL     1       2.820   2.276  20.207  0.00  0.00    +0.000 OA
BRANCH  14  16
ATOM     16  O   UNL     1       5.044   2.118  19.875  0.00  0.00    +0.000 OA
ATOM     17  H   UNL     1       5.040   1.486  20.622  0.00  0.00    +0.000 HD
ENDBRANCH  14  16
ENDBRANCH   1  14
BRANCH   1  18
ATOM     18  O   UNL     1       2.630   4.594  18.628  0.00  0.00    +0.000 OA
BRANCH  18  23
ATOM     19  C   UNL     1       0.919   9.271  21.143  0.00  0.00    +0.000 C 
ATOM     20  C   UNL     1       1.508   8.086  20.445  0.00  0.00    +0.000 A 
ATOM     21  C   UNL     1       2.014   8.189  19.152  0.00  0.00    +0.000 A 
ATOM     22  C   UNL     1       2.449   7.038  18.491  0.00  0.00    +0.000 A 
ATOM     23  C   UNL     1       2.347   5.816  19.131  0.00  0.00    +0.000 A 
ATOM     24  C   UNL     1       1.899   5.819  20.450  0.00  0.00    +0.000 A 
ATOM     25  N   UNL     1       1.481   6.915  21.118  0.00  0.00    +0.000 NA
ENDBRANCH  18  23
ENDBRANCH   1  18
TORSDOF 5
ENDMDL
MODEL 2
REMARK VINA RESULT:      -7.3      0.596      1.001
REMARK  Name = 
REMARK  6 active torsions:
REMARK  status: ('A' for Active; 'I' for Inactive)
REMARK    1  A    between atoms: C_1  and  C_2
REMARK    2  A    between atoms: C_5  and  O_6
REMARK    3  A    between atoms: O_6  and  C_7
REMARK    4  A    between atoms: C_7  and  C_8
REMARK    5  A    between atoms: C_8  and  O_10
REMARK    6  A    between atoms: C_14  and  C_16
REMARK                            x       y       z     vdW  Elec       q    Type
REMARK                         _______ _______ _______ _____ _____    ______ ____
ROOT
ATOM      1  C   UNL     1       4.003   3.960  18.810  0.00  0.00    +0.000 C 
ATOM      2  C   UNL     1       5.149   4.965  19.096  0.00  0.00    +0.000 C 
ATOM      3  C   UNL     1       5.423   5.970  17.975  0.00  0.00    +0.000 C 
ATOM      4  N   UNL     1       5.468   5.332  16.663  0.00  0.00    +0.000 N 
ATOM      5  C   UNL     1       6.680   5.314  15.950  0.00  0.00    +0.000 C 
ATOM      6  O   UNL     1       7.726   5.734  16.441  0.00  0.00    +0.000 OA
ATOM      7  C   UNL     1       4.310   4.495  16.371  0.00  0.00    +0.000 C 
ATOM      8  C   UNL     1       4.223   3.369  17.401  0.00  0.00    +0.000 C 
ENDROOT
BRANCH   5   9
ATOM      9  C   UNL     1       6.669   4.761  14.587  0.00  0.00    +0.000 A 
ATOM     10  C   UNL     1       5.773   3.779  14.032  0.00  0.00    +0.000 A 
ATOM     11  C   UNL     1       6.105   3.413  12.746  0.00  0.00    +0.000 A 
ATOM     12  S   UNL     1       7.389   4.355  12.132  0.00  0.00    +0.000 S 
ATOM     13  C   UNL     1       7.532   5.215  13.605  0.00  0.00    +0.000 A 
ENDBRANCH   5   9
BRANCH   1  14
ATOM     14  C   UNL     1       4.055   2.779  19.803  0.00  0.00    +0.000 C 
ATOM     15  O   UNL     1       3.189   2.523  20.625  0.00  0.00    +0.000 OA
BRANCH  14  16
ATOM     16  O   UNL     1       5.165   2.013  19.667  0.00  0.00    +0.000 OA
ATOM     17  H   UNL     1       5.612   1.846  20.521  0.00  0.00    +0.000 HD
ENDBRANCH  14  16
ENDBRANCH   1  14
BRANCH   1  18
ATOM     18  O   UNL     1       2.687   4.517  18.684  0.00  0.00    +0.000 OA
BRANCH  18  23
ATOM     19  C   UNL     1       1.344   9.399  21.029  0.00  0.00    +0.000 C 
ATOM     20  C   UNL     1       1.567   8.043  20.435  0.00  0.00    +0.000 A 
ATOM     21  C   UNL     1       1.394   6.887  21.191  0.00  0.00    +0.000 A 
ATOM     22  C   UNL     1       1.723   5.648  20.637  0.00  0.00    +0.000 A 
ATOM     23  C   UNL     1       2.234   5.601  19.353  0.00  0.00    +0.000 A 
ATOM     24  C   UNL     1       2.302   6.798  18.645  0.00  0.00    +0.000 A 
ATOM     25  N   UNL     1       1.982   8.009  19.150  0.00  0.00    +0.000 NA
ENDBRANCH  18  23
ENDBRANCH   1  18
TORSDOF 5
ENDMDL
MODEL 3
REMARK VINA RESULT:      -6.9      4.309      6.912
REMARK  Name = 
REMARK  6 active torsions:
REMARK  status: ('A' for Active; 'I' for Inactive)
REMARK    1  A    between atoms: C_1  and  C_2
REMARK    2  A    between atoms: C_5  and  O_6
REMARK    3  A    between atoms: O_6  and  C_7
REMARK    4  A    between atoms: C_7  and  C_8
REMARK    5  A    between atoms: C_8  and  O_10
REMARK    6  A    between atoms: C_14  and  C_16
REMARK                            x       y       z     vdW  Elec       q    Type
REMARK                         _______ _______ _______ _____ _____    ______ ____
ROOT
ATOM      1  C   UNL     1       0.566   9.962  18.918  0.00  0.00    +0.000 C 
ATOM      2  C   UNL     1       0.444   9.322  20.325  0.00  0.00    +0.000 C 
ATOM      3  C   UNL     1       1.656   8.498  20.768  0.00  0.00    +0.000 C 
ATOM      4  N   UNL     1       2.127   7.603  19.716  0.00  0.00    +0.000 N 
ATOM      5  C   UNL     1       2.032   6.213  19.904  0.00  0.00    +0.000 C 
ATOM      6  O   UNL     1       1.474   5.729  20.888  0.00  0.00    +0.000 OA
ATOM      7  C   UNL     1       2.357   8.263  18.435  0.00  0.00    +0.000 C 
ATOM      8  C   UNL     1       1.048   8.874  17.935  0.00  0.00    +0.000 C 
ENDROOT
BRANCH   5   9
ATOM      9  C   UNL     1       2.613   5.336  18.876  0.00  0.00    +0.000 A 
ATOM     10  C   UNL     1       1.926   4.591  17.850  0.00  0.00    +0.000 A 
ATOM     11  C   UNL     1       2.769   3.792  17.110  0.00  0.00    +0.000 A 
ATOM     12  S   UNL     1       4.406   4.045  17.524  0.00  0.00    +0.000 S 
ATOM     13  C   UNL     1       3.980   5.185  18.727  0.00  0.00    +0.000 A 
ENDBRANCH   5   9
BRANCH   1  14
ATOM     14  C   UNL     1      -0.815  10.437  18.416  0.00  0.00    +0.000 C 
ATOM     15  O   UNL     1      -1.636  11.028  19.098  0.00  0.00    +0.000 OA
BRANCH  14  16
ATOM     16  O   UNL     1      -1.036  10.154  17.108  0.00  0.00    +0.000 OA
ATOM     17  H   UNL     1      -1.801   9.558  16.979  0.00  0.00    +0.000 HD
ENDBRANCH  14  16
ENDBRANCH   1  14
BRANCH   1  18
ATOM     18  O   UNL     1       1.584  10.960  18.761  0.00  0.00    +0.000 OA
BRANCH  18  23
ATOM     19  C   UNL     1       1.852  16.322  20.280  0.00  0.00    +0.000 C 
ATOM     20  C   UNL     1       1.650  14.878  19.945  0.00  0.00    +0.000 A 
ATOM     21  C   UNL     1       1.455  13.927  20.943  0.00  0.00    +0.000 A 
ATOM     22  C   UNL     1       1.386  12.575  20.599  0.00  0.00    +0.000 A 
ATOM     23  C   UNL     1       1.534  12.210  19.273  0.00  0.00    +0.000 A 
ATOM     24  C   UNL     1       1.650  13.234  18.336  0.00  0.00    +0.000 A 
ATOM     25  N   UNL     1       1.710  14.548  18.636  0.00  0.00    +0.000 NA
ENDBRANCH  18  23
ENDBRANCH   1  18
TORSDOF 5
ENDMDL
MODEL 4
REMARK VINA RESULT:      -6.9      4.197      6.814
REMARK  Name = 
REMARK  6 active torsions:
REMARK  status: ('A' for Active; 'I' for Inactive)
REMARK    1  A    between atoms: C_1  and  C_2
REMARK    2  A    between atoms: C_5  and  O_6
REMARK    3  A    between atoms: O_6  and  C_7
REMARK    4  A    between atoms: C_7  and  C_8
REMARK    5  A    between atoms: C_8  and  O_10
REMARK    6  A    between atoms: C_14  and  C_16
REMARK                            x       y       z     vdW  Elec       q    Type
REMARK                         _______ _______ _______ _____ _____    ______ ____
ROOT
ATOM      1  C   UNL     1       0.524   9.962  18.941  0.00  0.00    +0.000 C 
ATOM      2  C   UNL     1       0.390   9.313  20.343  0.00  0.00    +0.000 C 
ATOM      3  C   UNL     1       1.608   8.509  20.803  0.00  0.00    +0.000 C 
ATOM      4  N   UNL     1       2.113   7.627  19.756  0.00  0.00    +0.000 N 
ATOM      5  C   UNL     1       2.041   6.235  19.936  0.00  0.00    +0.000 C 
ATOM      6  O   UNL     1       1.475   5.737  20.907  0.00  0.00    +0.000 OA
ATOM      7  C   UNL     1       2.353   8.298  18.482  0.00  0.00    +0.000 C 
ATOM      8  C   UNL     1       1.043   8.887  17.962  0.00  0.00    +0.000 C 
ENDROOT
BRANCH   5   9
ATOM      9  C   UNL     1       2.655   5.374  18.913  0.00  0.00    +0.000 A 
ATOM     10  C   UNL     1       1.999   4.614  17.879  0.00  0.00    +0.000 A 
ATOM     11  C   UNL     1       2.870   3.837  17.148  0.00  0.00    +0.000 A 
ATOM     12  S   UNL     1       4.495   4.129  17.581  0.00  0.00    +0.000 S 
ATOM     13  C   UNL     1       4.027   5.257  18.781  0.00  0.00    +0.000 A 
ENDBRANCH   5   9
BRANCH   1  14
ATOM     14  C   UNL     1      -0.856  10.414  18.417  0.00  0.00    +0.000 C 
ATOM     15  O   UNL     1      -1.693  11.003  19.083  0.00  0.00    +0.000 OA
BRANCH  14  16
ATOM     16  O   UNL     1      -1.058  10.115  17.111  0.00  0.00    +0.000 OA
ATOM     17  H   UNL     1      -0.955  10.894  16.528  0.00  0.00    +0.000 HD
ENDBRANCH  14  16
ENDBRANCH   1  14
BRANCH   1  18
ATOM     18  O   UNL     1       1.526  10.979  18.807  0.00  0.00    +0.000 OA
BRANCH  18  23
ATOM     19  C   UNL     1       0.772  15.893  21.340  0.00  0.00    +0.000 C 
ATOM     20  C   UNL     1       1.080  14.642  20.578  0.00  0.00    +0.000 A 
ATOM     21  C   UNL     1       0.999  14.606  19.189  0.00  0.00    +0.000 A 
ATOM     22  C   UNL     1       1.180  13.392  18.522  0.00  0.00    +0.000 A 
ATOM     23  C   UNL     1       1.414  12.247  19.262  0.00  0.00    +0.000 A 
ATOM     24  C   UNL     1       1.553  12.391  20.640  0.00  0.00    +0.000 A 
ATOM     25  N   UNL     1       1.393  13.552  21.311  0.00  0.00    +0.000 NA
ENDBRANCH  18  23
ENDBRANCH   1  18
TORSDOF 5
ENDMDL
MODEL 5
REMARK VINA RESULT:      -6.8      1.483      1.956
REMARK  Name = 
REMARK  6 active torsions:
REMARK  status: ('A' for Active; 'I' for Inactive)
REMARK    1  A    between atoms: C_1  and  C_2
REMARK    2  A    between atoms: C_5  and  O_6
REMARK    3  A    between atoms: O_6  and  C_7
REMARK    4  A    between atoms: C_7  and  C_8
REMARK    5  A    between atoms: C_8  and  O_10
REMARK    6  A    between atoms: C_14  and  C_16
REMARK                            x       y       z     vdW  Elec       q    Type
REMARK                         _______ _______ _______ _____ _____    ______ ____
ROOT
ATOM      1  C   UNL     1       5.009   4.770  17.567  0.00  0.00    +0.000 C 
ATOM      2  C   UNL     1       5.935   5.903  17.054  0.00  0.00    +0.000 C 
ATOM      3  C   UNL     1       5.714   6.307  15.594  0.00  0.00    +0.000 C 
ATOM      4  N   UNL     1       5.600   5.149  14.714  0.00  0.00    +0.000 N 
ATOM      5  C   UNL     1       6.589   4.927  13.739  0.00  0.00    +0.000 C 
ATOM      6  O   UNL     1       7.599   5.626  13.672  0.00  0.00    +0.000 OA
ATOM      7  C   UNL     1       4.623   4.161  15.158  0.00  0.00    +0.000 C 
ATOM      8  C   UNL     1       5.028   3.626  16.531  0.00  0.00    +0.000 C 
ENDROOT
BRANCH   5   9
ATOM      9  C   UNL     1       6.392   3.816  12.797  0.00  0.00    +0.000 A 
ATOM     10  C   UNL     1       5.149   3.268  12.314  0.00  0.00    +0.000 A 
ATOM     11  C   UNL     1       5.325   2.162  11.511  0.00  0.00    +0.000 A 
ATOM     12  S   UNL     1       6.976   1.866  11.195  0.00  0.00    +0.000 S 
ATOM     13  C   UNL     1       7.455   3.185  12.173  0.00  0.00    +0.000 A 
ENDBRANCH   5   9
BRANCH   1  14
ATOM     14  C   UNL     1       5.549   4.184  18.890  0.00  0.00    +0.000 C 
ATOM     15  O   UNL     1       6.257   4.789  19.680  0.00  0.00    +0.000 OA
BRANCH  14  16
ATOM     16  O   UNL     1       5.141   2.912  19.118  0.00  0.00    +0.000 OA
ATOM     17  H   UNL     1       4.327   2.871  19.659  0.00  0.00    +0.000 HD
ENDBRANCH  14  16
ENDBRANCH   1  14
BRANCH   1  18
ATOM     18  O   UNL     1       3.609   5.076  17.631  0.00  0.00    +0.000 OA
BRANCH  18  23
ATOM     19  C   UNL     1       0.926   8.619  21.003  0.00  0.00    +0.000 C 
ATOM     20  C   UNL     1       1.755   7.771  20.091  0.00  0.00    +0.000 A 
ATOM     21  C   UNL     1       2.175   8.243  18.851  0.00  0.00    +0.000 A 
ATOM     22  C   UNL     1       2.847   7.382  17.980  0.00  0.00    +0.000 A 
ATOM     23  C   UNL     1       3.061   6.071  18.363  0.00  0.00    +0.000 A 
ATOM     24  C   UNL     1       2.673   5.708  19.650  0.00  0.00    +0.000 A 
ATOM     25  N   UNL     1       2.031   6.519  20.517  0.00  0.00    +0.000 NA
ENDBRANCH  18  23
ENDBRANCH   1  18
TORSDOF 5
ENDMDL
MODEL 6
REMARK VINA RESULT:      -6.8      1.416      1.968
REMARK  Name = 
REMARK  6 active torsions:
REMARK  status: ('A' for Active; 'I' for Inactive)
REMARK    1  A    between atoms: C_1  and  C_2
REMARK    2  A    between atoms: C_5  and  O_6
REMARK    3  A    between atoms: O_6  and  C_7
REMARK    4  A    between atoms: C_7  and  C_8
REMARK    5  A    between atoms: C_8  and  O_10
REMARK    6  A    between atoms: C_14  and  C_16
REMARK                            x       y       z     vdW  Elec       q    Type
REMARK                         _______ _______ _______ _____ _____    ______ ____
ROOT
ATOM      1  C   UNL     1       3.606   5.575  18.354  0.00  0.00    +0.000 C 
ATOM      2  C   UNL     1       5.019   5.469  18.985  0.00  0.00    +0.000 C 
ATOM      3  C   UNL     1       6.147   6.080  18.150  0.00  0.00    +0.000 C 
ATOM      4  N   UNL     1       6.063   5.695  16.745  0.00  0.00    +0.000 N 
ATOM      5  C   UNL     1       7.075   4.891  16.191  0.00  0.00    +0.000 C 
ATOM      6  O   UNL     1       7.979   4.422  16.881  0.00  0.00    +0.000 OA
ATOM      7  C   UNL     1       4.754   5.929  16.144  0.00  0.00    +0.000 C 
ATOM      8  C   UNL     1       3.699   5.108  16.885  0.00  0.00    +0.000 C 
ENDROOT
BRANCH   5   9
ATOM      9  C   UNL     1       7.020   4.609  14.749  0.00  0.00    +0.000 A 
ATOM     10  C   UNL     1       7.794   5.213  13.693  0.00  0.00    +0.000 A 
ATOM     11  C   UNL     1       7.421   4.783  12.439  0.00  0.00    +0.000 A 
ATOM     12  S   UNL     1       6.258   3.536  12.517  0.00  0.00    +0.000 S 
ATOM     13  C   UNL     1       6.217   3.610  14.227  0.00  0.00    +0.000 A 
ENDBRANCH   5   9
BRANCH   1  14
ATOM     14  C   UNL     1       2.621   4.621  19.064  0.00  0.00    +0.000 C 
ATOM     15  O   UNL     1       1.512   4.330  18.646  0.00  0.00    +0.000 OA
BRANCH  14  16
ATOM     16  O   UNL     1       3.115   4.101  20.214  0.00  0.00    +0.000 OA
ATOM     17  H   UNL     1       2.658   4.447  21.008  0.00  0.00    +0.000 HD
ENDBRANCH  14  16
ENDBRANCH   1  14
BRANCH   1  18
ATOM     18  O   UNL     1       3.078   6.900  18.200  0.00  0.00    +0.000 OA
BRANCH  18  23
ATOM     19  C   UNL     1       0.156  10.228  21.593  0.00  0.00    +0.000 C 
ATOM     20  C   UNL     1       0.845   9.226  20.722  0.00  0.00    +0.000 A 
ATOM     21  C   UNL     1       1.342   8.035  21.245  0.00  0.00    +0.000 A 
ATOM     22  C   UNL     1       2.080   7.180  20.425  0.00  0.00    +0.000 A 
ATOM     23  C   UNL     1       2.319   7.546  19.113  0.00  0.00    +0.000 A 
ATOM     24  C   UNL     1       1.721   8.718  18.656  0.00  0.00    +0.000 A 
ATOM     25  N   UNL     1       0.995   9.560  19.421  0.00  0.00    +0.000 NA
ENDBRANCH  18  23
ENDBRANCH   1  18
TORSDOF 5
ENDMDL
MODEL 7
REMARK VINA RESULT:      -6.8      1.529      2.133
REMARK  Name = 
REMARK  6 active torsions:
REMARK  status: ('A' for Active; 'I' for Inactive)
REMARK    1  A    between atoms: C_1  and  C_2
REMARK    2  A    between atoms: C_5  and  O_6
REMARK    3  A    between atoms: O_6  and  C_7
REMARK    4  A    between atoms: C_7  and  C_8
REMARK    5  A    between atoms: C_8  and  O_10
REMARK    6  A    between atoms: C_14  and  C_16
REMARK                            x       y       z     vdW  Elec       q    Type
REMARK                         _______ _______ _______ _____ _____    ______ ____
ROOT
ATOM      1  C   UNL     1       4.902   4.704  17.549  0.00  0.00    +0.000 C 
ATOM      2  C   UNL     1       5.826   5.853  17.067  0.00  0.00    +0.000 C 
ATOM      3  C   UNL     1       5.637   6.263  15.604  0.00  0.00    +0.000 C 
ATOM      4  N   UNL     1       5.562   5.109  14.714  0.00  0.00    +0.000 N 
ATOM      5  C   UNL     1       6.580   4.907  13.764  0.00  0.00    +0.000 C 
ATOM      6  O   UNL     1       7.581   5.620  13.727  0.00  0.00    +0.000 OA
ATOM      7  C   UNL     1       4.588   4.105  15.127  0.00  0.00    +0.000 C 
ATOM      8  C   UNL     1       4.964   3.567  16.507  0.00  0.00    +0.000 C 
ENDROOT
BRANCH   5   9
ATOM      9  C   UNL     1       6.422   3.799  12.811  0.00  0.00    +0.000 A 
ATOM     10  C   UNL     1       5.200   3.213  12.320  0.00  0.00    +0.000 A 
ATOM     11  C   UNL     1       5.415   2.123  11.506  0.00  0.00    +0.000 A 
ATOM     12  S   UNL     1       7.076   1.886  11.190  0.00  0.00    +0.000 S 
ATOM     13  C   UNL     1       7.507   3.212  12.183  0.00  0.00    +0.000 A 
ENDBRANCH   5   9
BRANCH   1  14
ATOM     14  C   UNL     1       5.416   4.117  18.882  0.00  0.00    +0.000 C 
ATOM     15  O   UNL     1       6.094   4.727  19.694  0.00  0.00    +0.000 OA
BRANCH  14  16
ATOM     16  O   UNL     1       5.021   2.837  19.091  0.00  0.00    +0.000 OA
ATOM     17  H   UNL     1       4.967   2.322  18.261  0.00  0.00    +0.000 HD
ENDBRANCH  14  16
ENDBRANCH   1  14
BRANCH   1  18
ATOM     18  O   UNL     1       3.497   4.990  17.578  0.00  0.00    +0.000 OA
BRANCH  18  23
ATOM     19  C   UNL     1       1.325   8.467  21.362  0.00  0.00    +0.000 C 
ATOM     20  C   UNL     1       1.781   7.456  20.357  0.00  0.00    +0.000 A 
ATOM     21  C   UNL     1       1.822   6.100  20.666  0.00  0.00    +0.000 A 
ATOM     22  C   UNL     1       2.362   5.201  19.743  0.00  0.00    +0.000 A 
ATOM     23  C   UNL     1       2.863   5.685  18.548  0.00  0.00    +0.000 A 
ATOM     24  C   UNL     1       2.711   7.045  18.293  0.00  0.00    +0.000 A 
ATOM     25  N   UNL     1       2.185   7.936  19.160  0.00  0.00    +0.000 NA
ENDBRANCH  18  23
ENDBRANCH   1  18
TORSDOF 5
ENDMDL
MODEL 8
REMARK VINA RESULT:      -6.7      3.706      7.771
REMARK  Name = 
REMARK  6 active torsions:
REMARK  status: ('A' for Active; 'I' for Inactive)
REMARK    1  A    between atoms: C_1  and  C_2
REMARK    2  A    between atoms: C_5  and  O_6
REMARK    3  A    between atoms: O_6  and  C_7
REMARK    4  A    between atoms: C_7  and  C_8
REMARK    5  A    between atoms: C_8  and  O_10
REMARK    6  A    between atoms: C_14  and  C_16
REMARK                            x       y       z     vdW  Elec       q    Type
REMARK                         _______ _______ _______ _____ _____    ______ ____
ROOT
ATOM      1  C   UNL     1       2.353   6.140  18.696  0.00  0.00    +0.000 C 
ATOM      2  C   UNL     1       1.802   7.083  17.595  0.00  0.00    +0.000 C 
ATOM      3  C   UNL     1       1.879   8.576  17.926  0.00  0.00    +0.000 C 
ATOM      4  N   UNL     1       1.418   8.864  19.280  0.00  0.00    +0.000 N 
ATOM      5  C   UNL     1       0.253   9.630  19.460  0.00  0.00    +0.000 C 
ATOM      6  O   UNL     1      -0.444   9.981  18.509  0.00  0.00    +0.000 OA
ATOM      7  C   UNL     1       2.052   8.047  20.308  0.00  0.00    +0.000 C 
ATOM      8  C   UNL     1       1.746   6.572  20.048  0.00  0.00    +0.000 C 
ENDROOT
BRANCH   5   9
ATOM      9  C   UNL     1      -0.127   9.995  20.833  0.00  0.00    +0.000 A 
ATOM     10  C   UNL     1      -0.162   9.151  22.001  0.00  0.00    +0.000 A 
ATOM     11  C   UNL     1      -0.659   9.794  23.114  0.00  0.00    +0.000 A 
ATOM     12  S   UNL     1      -0.936  11.452  22.817  0.00  0.00    +0.000 S 
ATOM     13  C   UNL     1      -0.440  11.296  21.187  0.00  0.00    +0.000 A 
ENDBRANCH   5   9
BRANCH   1  14
ATOM     14  C   UNL     1       1.895   4.686  18.445  0.00  0.00    +0.000 C 
ATOM     15  O   UNL     1       1.486   4.261  17.376  0.00  0.00    +0.000 OA
BRANCH  14  16
ATOM     16  O   UNL     1       2.010   3.892  19.538  0.00  0.00    +0.000 OA
ATOM     17  H   UNL     1       1.932   2.942  19.320  0.00  0.00    +0.000 HD
ENDBRANCH  14  16
ENDBRANCH   1  14
BRANCH   1  18
ATOM     18  O   UNL     1       3.758   6.236  18.969  0.00  0.00    +0.000 OA
BRANCH  18  23
ATOM     19  C   UNL     1       7.364   4.886  14.932  0.00  0.00    +0.000 C 
ATOM     20  C   UNL     1       6.514   5.252  16.107  0.00  0.00    +0.000 A 
ATOM     21  C   UNL     1       6.511   4.478  17.264  0.00  0.00    +0.000 A 
ATOM     22  C   UNL     1       5.619   4.786  18.294  0.00  0.00    +0.000 A 
ATOM     23  C   UNL     1       4.743   5.843  18.131  0.00  0.00    +0.000 A 
ATOM     24  C   UNL     1       4.869   6.607  16.974  0.00  0.00    +0.000 A 
ATOM     25  N   UNL     1       5.727   6.341  15.966  0.00  0.00    +0.000 NA
ENDBRANCH  18  23
ENDBRANCH   1  18
TORSDOF 5
ENDMDL
MODEL 9
REMARK VINA RESULT:      -6.7      3.172      7.089
REMARK  Name = 
REMARK  6 active torsions:
REMARK  status: ('A' for Active; 'I' for Inactive)
REMARK    1  A    between atoms: C_1  and  C_2
REMARK    2  A    between atoms: C_5  and  O_6
REMARK    3  A    between atoms: O_6  and  C_7
REMARK    4  A    between atoms: C_7  and  C_8
REMARK    5  A    between atoms: C_8  and  O_10
REMARK    6  A    between atoms: C_14  and  C_16
REMARK                            x       y       z     vdW  Elec       q    Type
REMARK                         _______ _______ _______ _____ _____    ______ ____
ROOT
ATOM      1  C   UNL     1       6.647   6.254  17.163  0.00  0.00    +0.000 C 
ATOM      2  C   UNL     1       7.209   4.860  17.546  0.00  0.00    +0.000 C 
ATOM      3  C   UNL     1       6.204   3.710  17.451  0.00  0.00    +0.000 C 
ATOM      4  N   UNL     1       4.919   4.050  18.054  0.00  0.00    +0.000 N 
ATOM      5  C   UNL     1       4.495   3.358  19.202  0.00  0.00    +0.000 C 
ATOM      6  O   UNL     1       5.218   2.542  19.770  0.00  0.00    +0.000 OA
ATOM      7  C   UNL     1       4.354   5.307  17.575  0.00  0.00    +0.000 C 
ATOM      8  C   UNL     1       5.309   6.454  17.905  0.00  0.00    +0.000 C 
ENDROOT
BRANCH   5   9
ATOM      9  C   UNL     1       3.150   3.647  19.724  0.00  0.00    +0.000 A 
ATOM     10  C   UNL     1       2.733   4.757  20.544  0.00  0.00    +0.000 A 
ATOM     11  C   UNL     1       1.415   4.670  20.936  0.00  0.00    +0.000 A 
ATOM     12  S   UNL     1       0.620   3.353  20.197  0.00  0.00    +0.000 S 
ATOM     13  C   UNL     1       2.053   2.870  19.396  0.00  0.00    +0.000 A 
ENDBRANCH   5   9
BRANCH   1  14
ATOM     14  C   UNL     1       7.596   7.373  17.645  0.00  0.00    +0.000 C 
ATOM     15  O   UNL     1       7.723   8.459  17.101  0.00  0.00    +0.000 OA
BRANCH  14  16
ATOM     16  O   UNL     1       8.281   7.048  18.769  0.00  0.00    +0.000 OA
ATOM     17  H   UNL     1       7.714   6.618  19.441  0.00  0.00    +0.000 HD
ENDBRANCH  14  16
ENDBRANCH   1  14
BRANCH   1  18
ATOM     18  O   UNL     1       6.245   6.422  15.797  0.00  0.00    +0.000 OA
BRANCH  18  23
ATOM     19  C   UNL     1       6.787   2.906  11.498  0.00  0.00    +0.000 C 
ATOM     20  C   UNL     1       6.612   3.729  12.736  0.00  0.00    +0.000 A 
ATOM     21  C   UNL     1       5.435   3.676  13.477  0.00  0.00    +0.000 A 
ATOM     22  C   UNL     1       5.265   4.544  14.558  0.00  0.00    +0.000 A 
ATOM     23  C   UNL     1       6.264   5.453  14.855  0.00  0.00    +0.000 A 
ATOM     24  C   UNL     1       7.436   5.383  14.107  0.00  0.00    +0.000 A 
ATOM     25  N   UNL     1       7.634   4.550  13.063  0.00  0.00    +0.000 NA
ENDBRANCH  18  23
ENDBRANCH   1  18
TORSDOF 5
ENDMDL
