MODEL 1
REMARK VINA RESULT:      -8.6      0.000      0.000
REMARK  Name = 
REMARK  6 active torsions:
REMARK  status: ('A' for Active; 'I' for Inactive)
REMARK    1  A    between atoms: C_2  and  C_4
REMARK    2  A    between atoms: C_7  and  N_8
REMARK    3  A    between atoms: C_9  and  C_11
REMARK    4  A    between atoms: C_11  and  C_12
REMARK    5  A    between atoms: C_14  and  C_15
REMARK    6  A    between atoms: C_19  and  C_20
REMARK                            x       y       z     vdW  Elec       q    Type
REMARK                         _______ _______ _______ _____ _____    ______ ____
ROOT
ATOM      1  C   UNL     1       1.642  11.077  18.757  0.00  0.00    +0.000 C 
ENDROOT
BRANCH   1   2
ATOM      2  C   UNL     1       1.262   9.600  18.645  0.00  0.00    +0.000 C 
ATOM      3  C   UNL     1       2.196   8.837  17.734  0.00  0.00    +0.000 C 
ATOM      4  C   UNL     1       2.428   7.631  18.567  0.00  0.00    +0.000 C 
ATOM      5  N   UNL     1       1.962   7.704  19.773  0.00  0.00    +0.000 NA
ATOM      6  O   UNL     1       1.380   8.982  19.933  0.00  0.00    +0.000 OA
BRANCH   4   7
ATOM      7  C   UNL     1       3.177   6.466  18.048  0.00  0.00    +0.000 A 
ATOM      8  C   UNL     1       2.566   5.213  17.916  0.00  0.00    +0.000 A 
ATOM      9  C   UNL     1       3.288   4.131  17.408  0.00  0.00    +0.000 A 
ATOM     10  C   UNL     1       4.623   4.292  17.037  0.00  0.00    +0.000 A 
ATOM     11  C   UNL     1       5.238   5.544  17.161  0.00  0.00    +0.000 A 
ATOM     12  C   UNL     1       4.512   6.632  17.661  0.00  0.00    +0.000 A 
BRANCH  11  13
ATOM     13  C   UNL     1       6.670   5.727  16.794  0.00  0.00    +0.000 C 
ATOM     14  N   UNL     1       7.479   4.737  16.585  0.00  0.00    +0.000 NA
ATOM     15  N   UNL     1       7.193   6.978  16.673  0.00  0.00    +0.000 N 
ATOM     16  H   UNL     1       7.002   3.837  16.649  0.00  0.00    +0.000 HD
ATOM     17  H   UNL     1       6.834   7.688  17.300  0.00  0.00    +0.000 HD
ATOM     18  H   UNL     1       8.207   6.954  16.639  0.00  0.00    +0.000 HD
ENDBRANCH  11  13
ENDBRANCH   4   7
ENDBRANCH   1   2
BRANCH   1  20
ATOM     19  N   UNL     1      -0.428  11.405  19.991  0.00  0.00    +0.000 N 
ATOM     20  C   UNL     1       0.930  11.673  19.949  0.00  0.00    +0.000 C 
ATOM     21  O   UNL     1       1.566  12.317  20.778  0.00  0.00    +0.000 OA
ATOM     22  H   UNL     1      -0.838  10.914  19.205  0.00  0.00    +0.000 HD
BRANCH  19  26
ATOM     23  C   UNL     1      -2.985  12.359  23.232  0.00  0.00    +0.000 A 
ATOM     24  C   UNL     1      -3.217  12.927  21.982  0.00  0.00    +0.000 A 
ATOM     25  C   UNL     1      -2.378  12.627  20.908  0.00  0.00    +0.000 A 
ATOM     26  C   UNL     1      -1.307  11.741  21.055  0.00  0.00    +0.000 A 
ATOM     27  C   UNL     1      -1.084  11.165  22.313  0.00  0.00    +0.000 A 
ATOM     28  C   UNL     1      -1.916  11.474  23.401  0.00  0.00    +0.000 A 
BRANCH  23  30
ATOM     29  N   UNL     1      -4.749  11.843  24.776  0.00  0.00    +0.000 NA
ATOM     30  C   UNL     1      -3.890  12.713  24.359  0.00  0.00    +0.000 C 
ATOM     31  N   UNL     1      -3.831  13.953  24.926  0.00  0.00    +0.000 N 
ATOM     32  H   UNL     1      -5.274  12.220  25.566  0.00  0.00    +0.000 HD
ATOM     33  H   UNL     1      -4.668  14.235  25.422  0.00  0.00    +0.000 HD
ATOM     34  H   UNL     1      -3.501  14.691  24.313  0.00  0.00    +0.000 HD
ENDBRANCH  23  30
ENDBRANCH  19  26
ENDBRANCH   1  20
TORSDOF 6
ENDMDL
MODEL 2
REMARK VINA RESULT:      -8.5      3.629      6.213
REMARK  Name = 
REMARK  6 active torsions:
REMARK  status: ('A' for Active; 'I' for Inactive)
REMARK    1  A    between atoms: C_2  and  C_4
REMARK    2  A    between atoms: C_7  and  N_8
REMARK    3  A    between atoms: C_9  and  C_11
REMARK    4  A    between atoms: C_11  and  C_12
REMARK    5  A    between atoms: C_14  and  C_15
REMARK    6  A    between atoms: C_19  and  C_20
REMARK                            x       y       z     vdW  Elec       q    Type
REMARK                         _______ _______ _______ _____ _____    ______ ____
ROOT
ATOM      1  C   UNL     1       3.977   4.267  18.929  0.00  0.00    +0.000 C 
ENDROOT
BRANCH   1   2
ATOM      2  C   UNL     1       5.269   4.666  18.213  0.00  0.00    +0.000 C 
ATOM      3  C   UNL     1       5.468   3.899  16.926  0.00  0.00    +0.000 C 
ATOM      4  C   UNL     1       5.866   5.015  16.031  0.00  0.00    +0.000 C 
ATOM      5  N   UNL     1       5.733   6.197  16.541  0.00  0.00    +0.000 NA
ATOM      6  O   UNL     1       5.194   6.047  17.840  0.00  0.00    +0.000 OA
BRANCH   4   7
ATOM      7  C   UNL     1       6.334   4.767  14.649  0.00  0.00    +0.000 A 
ATOM      8  C   UNL     1       7.445   5.443  14.130  0.00  0.00    +0.000 A 
ATOM      9  C   UNL     1       7.879   5.181  12.828  0.00  0.00    +0.000 A 
ATOM     10  C   UNL     1       7.204   4.251  12.039  0.00  0.00    +0.000 A 
ATOM     11  C   UNL     1       6.096   3.567  12.556  0.00  0.00    +0.000 A 
ATOM     12  C   UNL     1       5.666   3.822  13.863  0.00  0.00    +0.000 A 
BRANCH  11  13
ATOM     13  C   UNL     1       5.348   2.589  11.717  0.00  0.00    +0.000 C 
ATOM     14  N   UNL     1       5.798   1.408  11.436  0.00  0.00    +0.000 NA
ATOM     15  N   UNL     1       4.135   2.919  11.195  0.00  0.00    +0.000 N 
ATOM     16  H   UNL     1       6.688   1.220  11.900  0.00  0.00    +0.000 HD
ATOM     17  H   UNL     1       4.000   3.885  10.921  0.00  0.00    +0.000 HD
ATOM     18  H   UNL     1       3.847   2.259  10.480  0.00  0.00    +0.000 HD
ENDBRANCH  11  13
ENDBRANCH   4   7
ENDBRANCH   1   2
BRANCH   1  20
ATOM     19  N   UNL     1       3.006   6.417  19.524  0.00  0.00    +0.000 N 
ATOM     20  C   UNL     1       2.932   5.328  18.672  0.00  0.00    +0.000 C 
ATOM     21  O   UNL     1       2.124   5.178  17.760  0.00  0.00    +0.000 OA
ATOM     22  H   UNL     1       3.683   6.382  20.278  0.00  0.00    +0.000 HD
BRANCH  19  26
ATOM     23  C   UNL     1       0.697   9.947  19.131  0.00  0.00    +0.000 A 
ATOM     24  C   UNL     1       0.738   9.284  20.355  0.00  0.00    +0.000 A 
ATOM     25  C   UNL     1       1.489   8.116  20.496  0.00  0.00    +0.000 A 
ATOM     26  C   UNL     1       2.228   7.599  19.427  0.00  0.00    +0.000 A 
ATOM     27  C   UNL     1       2.190   8.277  18.201  0.00  0.00    +0.000 A 
ATOM     28  C   UNL     1       1.425   9.444  18.049  0.00  0.00    +0.000 A 
BRANCH  23  30
ATOM     29  N   UNL     1       0.269  12.263  19.596  0.00  0.00    +0.000 NA
ATOM     30  C   UNL     1      -0.126  11.180  19.011  0.00  0.00    +0.000 C 
ATOM     31  N   UNL     1      -1.301  11.160  18.316  0.00  0.00    +0.000 N 
ATOM     32  H   UNL     1      -0.381  13.024  19.400  0.00  0.00    +0.000 HD
ATOM     33  H   UNL     1      -1.952  11.896  18.558  0.00  0.00    +0.000 HD
ATOM     34  H   UNL     1      -1.762  10.258  18.278  0.00  0.00    +0.000 HD
ENDBRANCH  23  30
ENDBRANCH  19  26
ENDBRANCH   1  20
TORSDOF 6
ENDMDL
MODEL 3
REMARK VINA RESULT:      -8.5      1.568      2.430
REMARK  Name = 
REMARK  6 active torsions:
REMARK  status: ('A' for Active; 'I' for Inactive)
REMARK    1  A    between atoms: C_2  and  C_4
REMARK    2  A    between atoms: C_7  and  N_8
REMARK    3  A    between atoms: C_9  and  C_11
REMARK    4  A    between atoms: C_11  and  C_12
REMARK    5  A    between atoms: C_14  and  C_15
REMARK    6  A    between atoms: C_19  and  C_20
REMARK                            x       y       z     vdW  Elec       q    Type
REMARK                         _______ _______ _______ _____ _____    ______ ____
ROOT
ATOM      1  C   UNL     1       1.593  10.918  18.800  0.00  0.00    +0.000 C 
ENDROOT
BRANCH   1   2
ATOM      2  C   UNL     1       1.257   9.428  18.715  0.00  0.00    +0.000 C 
ATOM      3  C   UNL     1       2.147   8.696  17.737  0.00  0.00    +0.000 C 
ATOM      4  C   UNL     1       2.483   7.502  18.551  0.00  0.00    +0.000 C 
ATOM      5  N   UNL     1       2.106   7.561  19.787  0.00  0.00    +0.000 NA
ATOM      6  O   UNL     1       1.493   8.818  19.991  0.00  0.00    +0.000 OA
BRANCH   4   7
ATOM      7  C   UNL     1       3.232   6.362  17.976  0.00  0.00    +0.000 A 
ATOM      8  C   UNL     1       4.295   6.568  17.088  0.00  0.00    +0.000 A 
ATOM      9  C   UNL     1       4.997   5.477  16.571  0.00  0.00    +0.000 A 
ATOM     10  C   UNL     1       4.638   4.179  16.932  0.00  0.00    +0.000 A 
ATOM     11  C   UNL     1       3.581   3.967  17.825  0.00  0.00    +0.000 A 
ATOM     12  C   UNL     1       2.882   5.060  18.351  0.00  0.00    +0.000 A 
BRANCH  11  13
ATOM     13  C   UNL     1       3.168   2.586  18.201  0.00  0.00    +0.000 C 
ATOM     14  N   UNL     1       3.999   1.692  18.636  0.00  0.00    +0.000 NA
ATOM     15  N   UNL     1       1.867   2.203  18.087  0.00  0.00    +0.000 N 
ATOM     16  H   UNL     1       4.943   2.069  18.737  0.00  0.00    +0.000 HD
ATOM     17  H   UNL     1       1.339   2.595  17.317  0.00  0.00    +0.000 HD
ATOM     18  H   UNL     1       1.769   1.196  18.163  0.00  0.00    +0.000 HD
ENDBRANCH  11  13
ENDBRANCH   4   7
ENDBRANCH   1   2
BRANCH   1  20
ATOM     19  N   UNL     1      -0.466  11.336  20.027  0.00  0.00    +0.000 N 
ATOM     20  C   UNL     1       0.909  11.502  20.014  0.00  0.00    +0.000 C 
ATOM     21  O   UNL     1       1.579  12.052  20.883  0.00  0.00    +0.000 OA
ATOM     22  H   UNL     1      -0.900  10.919  19.211  0.00  0.00    +0.000 HD
BRANCH  19  26
ATOM     23  C   UNL     1      -3.118  12.410  23.151  0.00  0.00    +0.000 A 
ATOM     24  C   UNL     1      -2.048  11.560  23.418  0.00  0.00    +0.000 A 
ATOM     25  C   UNL     1      -1.171  11.193  22.397  0.00  0.00    +0.000 A 
ATOM     26  C   UNL     1      -1.332  11.681  21.097  0.00  0.00    +0.000 A 
ATOM     27  C   UNL     1      -2.405  12.544  20.836  0.00  0.00    +0.000 A 
ATOM     28  C   UNL     1      -3.299  12.906  21.856  0.00  0.00    +0.000 A 
BRANCH  23  30
ATOM     29  N   UNL     1      -3.955  13.939  24.802  0.00  0.00    +0.000 NA
ATOM     30  C   UNL     1      -4.043  12.769  24.260  0.00  0.00    +0.000 C 
ATOM     31  N   UNL     1      -4.954  11.862  24.718  0.00  0.00    +0.000 N 
ATOM     32  H   UNL     1      -4.668  14.045  25.524  0.00  0.00    +0.000 HD
ATOM     33  H   UNL     1      -5.291  12.035  25.657  0.00  0.00    +0.000 HD
ATOM     34  H   UNL     1      -4.692  10.890  24.594  0.00  0.00    +0.000 HD
ENDBRANCH  23  30
ENDBRANCH  19  26
ENDBRANCH   1  20
TORSDOF 6
ENDMDL
MODEL 4
REMARK VINA RESULT:      -8.4      4.506      6.635
REMARK  Name = 
REMARK  6 active torsions:
REMARK  status: ('A' for Active; 'I' for Inactive)
REMARK    1  A    between atoms: C_2  and  C_4
REMARK    2  A    between atoms: C_7  and  N_8
REMARK    3  A    between atoms: C_9  and  C_11
REMARK    4  A    between atoms: C_11  and  C_12
REMARK    5  A    between atoms: C_14  and  C_15
REMARK    6  A    between atoms: C_19  and  C_20
REMARK                            x       y       z     vdW  Elec       q    Type
REMARK                         _______ _______ _______ _____ _____    ______ ____
ROOT
ATOM      1  C   UNL     1       2.598   2.529  19.801  0.00  0.00    +0.000 C 
ENDROOT
BRANCH   1   2
ATOM      2  C   UNL     1       3.992   2.414  19.182  0.00  0.00    +0.000 C 
ATOM      3  C   UNL     1       4.008   2.830  17.729  0.00  0.00    +0.000 C 
ATOM      4  C   UNL     1       5.223   3.682  17.727  0.00  0.00    +0.000 C 
ATOM      5  N   UNL     1       5.716   3.932  18.897  0.00  0.00    +0.000 NA
ATOM      6  O   UNL     1       4.883   3.313  19.857  0.00  0.00    +0.000 OA
BRANCH   4   7
ATOM      7  C   UNL     1       5.783   4.227  16.470  0.00  0.00    +0.000 A 
ATOM      8  C   UNL     1       6.562   5.390  16.468  0.00  0.00    +0.000 A 
ATOM      9  C   UNL     1       7.093   5.877  15.272  0.00  0.00    +0.000 A 
ATOM     10  C   UNL     1       6.843   5.209  14.073  0.00  0.00    +0.000 A 
ATOM     11  C   UNL     1       6.069   4.042  14.069  0.00  0.00    +0.000 A 
ATOM     12  C   UNL     1       5.545   3.548  15.269  0.00  0.00    +0.000 A 
BRANCH  11  13
ATOM     13  C   UNL     1       5.772   3.331  12.794  0.00  0.00    +0.000 C 
ATOM     14  N   UNL     1       6.631   2.577  12.186  0.00  0.00    +0.000 NA
ATOM     15  N   UNL     1       4.553   3.464  12.203  0.00  0.00    +0.000 N 
ATOM     16  H   UNL     1       7.501   2.491  12.714  0.00  0.00    +0.000 HD
ATOM     17  H   UNL     1       4.096   4.364  12.289  0.00  0.00    +0.000 HD
ATOM     18  H   UNL     1       4.562   3.114  11.250  0.00  0.00    +0.000 HD
ENDBRANCH  11  13
ENDBRANCH   4   7
ENDBRANCH   1   2
BRANCH   1  20
ATOM     19  N   UNL     1       2.647   4.961  19.828  0.00  0.00    +0.000 N 
ATOM     20  C   UNL     1       1.980   3.838  19.368  0.00  0.00    +0.000 C 
ATOM     21  O   UNL     1       0.979   3.833  18.658  0.00  0.00    +0.000 OA
ATOM     22  H   UNL     1       3.426   4.822  20.462  0.00  0.00    +0.000 HD
BRANCH  19  26
ATOM     23  C   UNL     1       1.791   8.946  18.673  0.00  0.00    +0.000 A 
ATOM     24  C   UNL     1       1.469   8.517  19.958  0.00  0.00    +0.000 A 
ATOM     25  C   UNL     1       1.739   7.205  20.349  0.00  0.00    +0.000 A 
ATOM     26  C   UNL     1       2.352   6.303  19.474  0.00  0.00    +0.000 A 
ATOM     27  C   UNL     1       2.684   6.743  18.186  0.00  0.00    +0.000 A 
ATOM     28  C   UNL     1       2.402   8.058  17.782  0.00  0.00    +0.000 A 
BRANCH  23  30
ATOM     29  N   UNL     1       0.256  10.766  18.369  0.00  0.00    +0.000 NA
ATOM     30  C   UNL     1       1.475  10.347  18.283  0.00  0.00    +0.000 C 
ATOM     31  N   UNL     1       2.458  11.169  17.813  0.00  0.00    +0.000 N 
ATOM     32  H   UNL     1       0.204  11.748  18.095  0.00  0.00    +0.000 HD
ATOM     33  H   UNL     1       2.129  11.952  17.260  0.00  0.00    +0.000 HD
ATOM     34  H   UNL     1       3.232  10.697  17.358  0.00  0.00    +0.000 HD
ENDBRANCH  23  30
ENDBRANCH  19  26
ENDBRANCH   1  20
TORSDOF 6
ENDMDL
MODEL 5
REMARK VINA RESULT:      -8.3      3.288      5.909
REMARK  Name = 
REMARK  6 active torsions:
REMARK  status: ('A' for Active; 'I' for Inactive)
REMARK    1  A    between atoms: C_2  and  C_4
REMARK    2  A    between atoms: C_7  and  N_8
REMARK    3  A    between atoms: C_9  and  C_11
REMARK    4  A    between atoms: C_11  and  C_12
REMARK    5  A    between atoms: C_14  and  C_15
REMARK    6  A    between atoms: C_19  and  C_20
REMARK                            x       y       z     vdW  Elec       q    Type
REMARK                         _______ _______ _______ _____ _____    ______ ____
ROOT
ATOM      1  C   UNL     1       4.084   4.534  18.967  0.00  0.00    +0.000 C 
ENDROOT
BRANCH   1   2
ATOM      2  C   UNL     1       5.150   5.210  18.103  0.00  0.00    +0.000 C 
ATOM      3  C   UNL     1       5.659   4.300  17.008  0.00  0.00    +0.000 C 
ATOM      4  C   UNL     1       5.632   5.247  15.865  0.00  0.00    +0.000 C 
ATOM      5  N   UNL     1       5.050   6.377  16.107  0.00  0.00    +0.000 NA
ATOM      6  O   UNL     1       4.571   6.339  17.437  0.00  0.00    +0.000 OA
BRANCH   4   7
ATOM      7  C   UNL     1       6.198   4.883  14.547  0.00  0.00    +0.000 A 
ATOM      8  C   UNL     1       7.384   5.465  14.082  0.00  0.00    +0.000 A 
ATOM      9  C   UNL     1       7.907   5.094  12.842  0.00  0.00    +0.000 A 
ATOM     10  C   UNL     1       7.247   4.147  12.059  0.00  0.00    +0.000 A 
ATOM     11  C   UNL     1       6.065   3.557  12.521  0.00  0.00    +0.000 A 
ATOM     12  C   UNL     1       5.544   3.921  13.768  0.00  0.00    +0.000 A 
BRANCH  11  13
ATOM     13  C   UNL     1       5.334   2.563  11.685  0.00  0.00    +0.000 C 
ATOM     14  N   UNL     1       4.157   2.783  11.191  0.00  0.00    +0.000 NA
ATOM     15  N   UNL     1       5.892   1.352  11.415  0.00  0.00    +0.000 N 
ATOM     16  H   UNL     1       3.828   3.727  11.399  0.00  0.00    +0.000 HD
ATOM     17  H   UNL     1       6.465   0.938  12.139  0.00  0.00    +0.000 HD
ATOM     18  H   UNL     1       5.209   0.706  11.031  0.00  0.00    +0.000 HD
ENDBRANCH  11  13
ENDBRANCH   4   7
ENDBRANCH   1   2
BRANCH   1  20
ATOM     19  N   UNL     1       3.022   6.572  19.764  0.00  0.00    +0.000 N 
ATOM     20  C   UNL     1       2.861   5.421  19.012  0.00  0.00    +0.000 C 
ATOM     21  O   UNL     1       1.849   5.093  18.400  0.00  0.00    +0.000 OA
ATOM     22  H   UNL     1       3.892   6.688  20.272  0.00  0.00    +0.000 HD
BRANCH  19  26
ATOM     23  C   UNL     1       0.225   9.746  19.995  0.00  0.00    +0.000 A 
ATOM     24  C   UNL     1       0.362   8.869  21.068  0.00  0.00    +0.000 A 
ATOM     25  C   UNL     1       1.274   7.816  21.002  0.00  0.00    +0.000 A 
ATOM     26  C   UNL     1       2.080   7.628  19.875  0.00  0.00    +0.000 A 
ATOM     27  C   UNL     1       1.945   8.520  18.802  0.00  0.00    +0.000 A 
ATOM     28  C   UNL     1       1.019   9.573  18.857  0.00  0.00    +0.000 A 
BRANCH  23  30
ATOM     29  N   UNL     1      -1.502  11.130  19.065  0.00  0.00    +0.000 NA
ATOM     30  C   UNL     1      -0.769  10.849  20.091  0.00  0.00    +0.000 C 
ATOM     31  N   UNL     1      -0.882  11.575  21.242  0.00  0.00    +0.000 N 
ATOM     32  H   UNL     1      -2.148  11.886  19.293  0.00  0.00    +0.000 HD
ATOM     33  H   UNL     1      -1.302  12.489  21.128  0.00  0.00    +0.000 HD
ATOM     34  H   UNL     1      -0.039  11.624  21.803  0.00  0.00    +0.000 HD
ENDBRANCH  23  30
ENDBRANCH  19  26
ENDBRANCH   1  20
TORSDOF 6
ENDMDL
MODEL 6
REMARK VINA RESULT:      -8.3      3.285      5.883
REMARK  Name = 
REMARK  6 active torsions:
REMARK  status: ('A' for Active; 'I' for Inactive)
REMARK    1  A    between atoms: C_2  and  C_4
REMARK    2  A    between atoms: C_7  and  N_8
REMARK    3  A    between atoms: C_9  and  C_11
REMARK    4  A    between atoms: C_11  and  C_12
REMARK    5  A    between atoms: C_14  and  C_15
REMARK    6  A    between atoms: C_19  and  C_20
REMARK                            x       y       z     vdW  Elec       q    Type
REMARK                         _______ _______ _______ _____ _____    ______ ____
ROOT
ATOM      1  C   UNL     1       4.175   4.612  18.987  0.00  0.00    +0.000 C 
ENDROOT
BRANCH   1   2
ATOM      2  C   UNL     1       5.256   5.251  18.114  0.00  0.00    +0.000 C 
ATOM      3  C   UNL     1       5.721   4.327  17.012  0.00  0.00    +0.000 C 
ATOM      4  C   UNL     1       5.717   5.276  15.871  0.00  0.00    +0.000 C 
ATOM      5  N   UNL     1       5.178   6.426  16.121  0.00  0.00    +0.000 NA
ATOM      6  O   UNL     1       4.711   6.402  17.456  0.00  0.00    +0.000 OA
BRANCH   4   7
ATOM      7  C   UNL     1       6.256   4.894  14.547  0.00  0.00    +0.000 A 
ATOM      8  C   UNL     1       7.448   5.449  14.064  0.00  0.00    +0.000 A 
ATOM      9  C   UNL     1       7.946   5.062  12.818  0.00  0.00    +0.000 A 
ATOM     10  C   UNL     1       7.254   4.127  12.047  0.00  0.00    +0.000 A 
ATOM     11  C   UNL     1       6.065   3.565  12.528  0.00  0.00    +0.000 A 
ATOM     12  C   UNL     1       5.570   3.945  13.781  0.00  0.00    +0.000 A 
BRANCH  11  13
ATOM     13  C   UNL     1       5.301   2.585  11.706  0.00  0.00    +0.000 C 
ATOM     14  N   UNL     1       4.126   2.833  11.220  0.00  0.00    +0.000 NA
ATOM     15  N   UNL     1       5.823   1.357  11.441  0.00  0.00    +0.000 N 
ATOM     16  H   UNL     1       3.825   3.787  11.423  0.00  0.00    +0.000 HD
ATOM     17  H   UNL     1       6.391   0.933  12.165  0.00  0.00    +0.000 HD
ATOM     18  H   UNL     1       5.120   0.727  11.068  0.00  0.00    +0.000 HD
ENDBRANCH  11  13
ENDBRANCH   4   7
ENDBRANCH   1   2
BRANCH   1  20
ATOM     19  N   UNL     1       3.052   6.643  19.713  0.00  0.00    +0.000 N 
ATOM     20  C   UNL     1       2.945   5.488  18.957  0.00  0.00    +0.000 C 
ATOM     21  O   UNL     1       1.973   5.150  18.287  0.00  0.00    +0.000 OA
ATOM     22  H   UNL     1       3.888   6.768  20.271  0.00  0.00    +0.000 HD
BRANCH  19  26
ATOM     23  C   UNL     1       0.185   9.752  19.969  0.00  0.00    +0.000 A 
ATOM     24  C   UNL     1       0.938   9.605  18.808  0.00  0.00    +0.000 A 
ATOM     25  C   UNL     1       1.891   8.589  18.713  0.00  0.00    +0.000 A 
ATOM     26  C   UNL     1       2.096   7.692  19.765  0.00  0.00    +0.000 A 
ATOM     27  C   UNL     1       1.328   7.839  20.928  0.00  0.00    +0.000 A 
ATOM     28  C   UNL     1       0.378   8.868  21.035  0.00  0.00    +0.000 A 
BRANCH  23  30
ATOM     29  N   UNL     1      -0.925  11.531  21.139  0.00  0.00    +0.000 NA
ATOM     30  C   UNL     1      -0.811  10.855  20.043  0.00  0.00    +0.000 C 
ATOM     31  N   UNL     1      -1.615  11.130  18.975  0.00  0.00    +0.000 N 
ATOM     32  H   UNL     1      -1.624  12.265  21.027  0.00  0.00    +0.000 HD
ATOM     33  H   UNL     1      -2.467  11.629  19.201  0.00  0.00    +0.000 HD
ATOM     34  H   UNL     1      -1.801  10.343  18.364  0.00  0.00    +0.000 HD
ENDBRANCH  23  30
ENDBRANCH  19  26
ENDBRANCH   1  20
TORSDOF 6
ENDMDL
MODEL 7
REMARK VINA RESULT:      -8.3      4.057      6.367
REMARK  Name = 
REMARK  6 active torsions:
REMARK  status: ('A' for Active; 'I' for Inactive)
REMARK    1  A    between atoms: C_2  and  C_4
REMARK    2  A    between atoms: C_7  and  N_8
REMARK    3  A    between atoms: C_9  and  C_11
REMARK    4  A    between atoms: C_11  and  C_12
REMARK    5  A    between atoms: C_14  and  C_15
REMARK    6  A    between atoms: C_19  and  C_20
REMARK                            x       y       z     vdW  Elec       q    Type
REMARK                         _______ _______ _______ _____ _____    ______ ____
ROOT
ATOM      1  C   UNL     1       3.062   3.499  19.116  0.00  0.00    +0.000 C 
ENDROOT
BRANCH   1   2
ATOM      2  C   UNL     1       4.495   3.489  18.583  0.00  0.00    +0.000 C 
ATOM      3  C   UNL     1       4.550   3.239  17.093  0.00  0.00    +0.000 C 
ATOM      4  C   UNL     1       5.525   4.285  16.700  0.00  0.00    +0.000 C 
ATOM      5  N   UNL     1       5.833   5.123  17.637  0.00  0.00    +0.000 NA
ATOM      6  O   UNL     1       5.083   4.781  18.785  0.00  0.00    +0.000 OA
BRANCH   4   7
ATOM      7  C   UNL     1       6.056   4.367  15.321  0.00  0.00    +0.000 A 
ATOM      8  C   UNL     1       7.155   5.179  15.015  0.00  0.00    +0.000 A 
ATOM      9  C   UNL     1       7.649   5.228  13.710  0.00  0.00    +0.000 A 
ATOM     10  C   UNL     1       7.046   4.473  12.705  0.00  0.00    +0.000 A 
ATOM     11  C   UNL     1       5.951   3.653  13.006  0.00  0.00    +0.000 A 
ATOM     12  C   UNL     1       5.460   3.597  14.316  0.00  0.00    +0.000 A 
BRANCH  11  13
ATOM     13  C   UNL     1       5.279   2.860  11.939  0.00  0.00    +0.000 C 
ATOM     14  N   UNL     1       4.172   3.227  11.375  0.00  0.00    +0.000 NA
ATOM     15  N   UNL     1       5.817   1.684  11.516  0.00  0.00    +0.000 N 
ATOM     16  H   UNL     1       3.858   4.138  11.712  0.00  0.00    +0.000 HD
ATOM     17  H   UNL     1       6.292   1.121  12.210  0.00  0.00    +0.000 HD
ATOM     18  H   UNL     1       5.156   1.153  10.958  0.00  0.00    +0.000 HD
ENDBRANCH  11  13
ENDBRANCH   4   7
ENDBRANCH   1   2
BRANCH   1  20
ATOM     19  N   UNL     1       2.616   5.853  19.534  0.00  0.00    +0.000 N 
ATOM     20  C   UNL     1       2.392   4.783  18.685  0.00  0.00    +0.000 C 
ATOM     21  O   UNL     1       1.730   4.807  17.651  0.00  0.00    +0.000 OA
ATOM     22  H   UNL     1       3.130   5.679  20.390  0.00  0.00    +0.000 HD
BRANCH  19  26
ATOM     23  C   UNL     1       1.370   9.860  18.952  0.00  0.00    +0.000 A 
ATOM     24  C   UNL     1       2.021   9.186  17.923  0.00  0.00    +0.000 A 
ATOM     25  C   UNL     1       2.443   7.868  18.104  0.00  0.00    +0.000 A 
ATOM     26  C   UNL     1       2.207   7.193  19.305  0.00  0.00    +0.000 A 
ATOM     27  C   UNL     1       1.542   7.874  20.334  0.00  0.00    +0.000 A 
ATOM     28  C   UNL     1       1.127   9.204  20.163  0.00  0.00    +0.000 A 
BRANCH  23  30
ATOM     29  N   UNL     1      -0.204  11.507  18.194  0.00  0.00    +0.000 NA
ATOM     30  C   UNL     1       0.947  11.270  18.732  0.00  0.00    +0.000 C 
ATOM     31  N   UNL     1       1.779  12.299  19.066  0.00  0.00    +0.000 N 
ATOM     32  H   UNL     1      -0.362  12.513  18.134  0.00  0.00    +0.000 HD
ATOM     33  H   UNL     1       1.590  13.172  18.588  0.00  0.00    +0.000 HD
ATOM     34  H   UNL     1       2.768  12.076  19.047  0.00  0.00    +0.000 HD
ENDBRANCH  23  30
ENDBRANCH  19  26
ENDBRANCH   1  20
TORSDOF 6
ENDMDL
MODEL 8
REMARK VINA RESULT:      -8.2      1.708      2.223
REMARK  Name = 
REMARK  6 active torsions:
REMARK  status: ('A' for Active; 'I' for Inactive)
REMARK    1  A    between atoms: C_2  and  C_4
REMARK    2  A    between atoms: C_7  and  N_8
REMARK    3  A    between atoms: C_9  and  C_11
REMARK    4  A    between atoms: C_11  and  C_12
REMARK    5  A    between atoms: C_14  and  C_15
REMARK    6  A    between atoms: C_19  and  C_20
REMARK                            x       y       z     vdW  Elec       q    Type
REMARK                         _______ _______ _______ _____ _____    ______ ____
ROOT
ATOM      1  C   UNL     1       1.445  11.276  18.783  0.00  0.00    +0.000 C 
ENDROOT
BRANCH   1   2
ATOM      2  C   UNL     1       1.085   9.790  18.745  0.00  0.00    +0.000 C 
ATOM      3  C   UNL     1       1.964   9.013  17.791  0.00  0.00    +0.000 C 
ATOM      4  C   UNL     1       2.280   7.840  18.642  0.00  0.00    +0.000 C 
ATOM      5  N   UNL     1       1.902   7.944  19.876  0.00  0.00    +0.000 NA
ATOM      6  O   UNL     1       1.309   9.216  20.039  0.00  0.00    +0.000 OA
BRANCH   4   7
ATOM      7  C   UNL     1       3.011   6.670  18.105  0.00  0.00    +0.000 A 
ATOM      8  C   UNL     1       4.108   6.832  17.251  0.00  0.00    +0.000 A 
ATOM      9  C   UNL     1       4.792   5.715  16.769  0.00  0.00    +0.000 A 
ATOM     10  C   UNL     1       4.381   4.432  17.131  0.00  0.00    +0.000 A 
ATOM     11  C   UNL     1       3.288   4.264  17.990  0.00  0.00    +0.000 A 
ATOM     12  C   UNL     1       2.607   5.384  18.481  0.00  0.00    +0.000 A 
BRANCH  11  13
ATOM     13  C   UNL     1       2.819   2.901  18.366  0.00  0.00    +0.000 C 
ATOM     14  N   UNL     1       1.970   2.224  17.660  0.00  0.00    +0.000 NA
ATOM     15  N   UNL     1       3.274   2.308  19.504  0.00  0.00    +0.000 N 
ATOM     16  H   UNL     1       1.713   2.715  16.802  0.00  0.00    +0.000 HD
ATOM     17  H   UNL     1       3.458   2.913  20.295  0.00  0.00    +0.000 HD
ATOM     18  H   UNL     1       2.718   1.495  19.746  0.00  0.00    +0.000 HD
ENDBRANCH  11  13
ENDBRANCH   4   7
ENDBRANCH   1   2
BRANCH   1  20
ATOM     19  N   UNL     1      -0.632  11.498  20.030  0.00  0.00    +0.000 N 
ATOM     20  C   UNL     1       0.677  11.933  19.907  0.00  0.00    +0.000 C 
ATOM     21  O   UNL     1       1.233  12.764  20.619  0.00  0.00    +0.000 OA
ATOM     22  H   UNL     1      -0.984  10.853  19.332  0.00  0.00    +0.000 HD
BRANCH  19  26
ATOM     23  C   UNL     1      -3.252  12.534  23.194  0.00  0.00    +0.000 A 
ATOM     24  C   UNL     1      -3.477  13.046  21.919  0.00  0.00    +0.000 A 
ATOM     25  C   UNL     1      -2.617  12.718  20.869  0.00  0.00    +0.000 A 
ATOM     26  C   UNL     1      -1.531  11.860  21.067  0.00  0.00    +0.000 A 
ATOM     27  C   UNL     1      -1.316  11.340  22.350  0.00  0.00    +0.000 A 
ATOM     28  C   UNL     1      -2.169  11.678  23.413  0.00  0.00    +0.000 A 
BRANCH  23  30
ATOM     29  N   UNL     1      -4.739  11.989  24.998  0.00  0.00    +0.000 NA
ATOM     30  C   UNL     1      -4.178  12.916  24.294  0.00  0.00    +0.000 C 
ATOM     31  N   UNL     1      -4.456  14.231  24.536  0.00  0.00    +0.000 N 
ATOM     32  H   UNL     1      -5.320  12.405  25.726  0.00  0.00    +0.000 HD
ATOM     33  H   UNL     1      -5.320  14.398  25.036  0.00  0.00    +0.000 HD
ATOM     34  H   UNL     1      -4.372  14.842  23.731  0.00  0.00    +0.000 HD
ENDBRANCH  23  30
ENDBRANCH  19  26
ENDBRANCH   1  20
TORSDOF 6
ENDMDL
MODEL 9
REMARK VINA RESULT:      -8.2      1.642      2.428
REMARK  Name = 
REMARK  6 active torsions:
REMARK  status: ('A' for Active; 'I' for Inactive)
REMARK    1  A    between atoms: C_2  and  C_4
REMARK    2  A    between atoms: C_7  and  N_8
REMARK    3  A    between atoms: C_9  and  C_11
REMARK    4  A    between atoms: C_11  and  C_12
REMARK    5  A    between atoms: C_14  and  C_15
REMARK    6  A    between atoms: C_19  and  C_20
REMARK                            x       y       z     vdW  Elec       q    Type
REMARK                         _______ _______ _______ _____ _____    ______ ____
ROOT
ATOM      1  C   UNL     1       1.401  11.146  18.761  0.00  0.00    +0.000 C 
ENDROOT
BRANCH   1   2
ATOM      2  C   UNL     1       1.076   9.653  18.695  0.00  0.00    +0.000 C 
ATOM      3  C   UNL     1       2.118   8.875  17.924  0.00  0.00    +0.000 C 
ATOM      4  C   UNL     1       2.300   7.724  18.843  0.00  0.00    +0.000 C 
ATOM      5  N   UNL     1       1.715   7.845  19.991  0.00  0.00    +0.000 NA
ATOM      6  O   UNL     1       1.083   9.109  20.021  0.00  0.00    +0.000 OA
BRANCH   4   7
ATOM      7  C   UNL     1       3.130   6.558  18.466  0.00  0.00    +0.000 A 
ATOM      8  C   UNL     1       3.928   6.579  17.315  0.00  0.00    +0.000 A 
ATOM      9  C   UNL     1       4.715   5.474  16.987  0.00  0.00    +0.000 A 
ATOM     10  C   UNL     1       4.705   4.341  17.802  0.00  0.00    +0.000 A 
ATOM     11  C   UNL     1       3.914   4.317  18.958  0.00  0.00    +0.000 A 
ATOM     12  C   UNL     1       3.132   5.428  19.292  0.00  0.00    +0.000 A 
BRANCH  11  13
ATOM     13  C   UNL     1       3.872   3.106  19.824  0.00  0.00    +0.000 C 
ATOM     14  N   UNL     1       2.843   2.784  20.542  0.00  0.00    +0.000 NA
ATOM     15  N   UNL     1       4.950   2.278  19.899  0.00  0.00    +0.000 N 
ATOM     16  H   UNL     1       2.063   3.427  20.396  0.00  0.00    +0.000 HD
ATOM     17  H   UNL     1       5.865   2.708  19.837  0.00  0.00    +0.000 HD
ATOM     18  H   UNL     1       4.867   1.631  20.677  0.00  0.00    +0.000 HD
ENDBRANCH  11  13
ENDBRANCH   4   7
ENDBRANCH   1   2
BRANCH   1  20
ATOM     19  N   UNL     1      -0.646  11.548  20.011  0.00  0.00    +0.000 N 
ATOM     20  C   UNL     1       0.725  11.737  19.976  0.00  0.00    +0.000 C 
ATOM     21  O   UNL     1       1.398  12.312  20.827  0.00  0.00    +0.000 OA
ATOM     22  H   UNL     1      -1.084  11.112  19.208  0.00  0.00    +0.000 HD
BRANCH  19  26
ATOM     23  C   UNL     1      -3.273  12.623  23.156  0.00  0.00    +0.000 A 
ATOM     24  C   UNL     1      -2.160  11.833  23.429  0.00  0.00    +0.000 A 
ATOM     25  C   UNL     1      -1.290  11.467  22.401  0.00  0.00    +0.000 A 
ATOM     26  C   UNL     1      -1.503  11.895  21.088  0.00  0.00    +0.000 A 
ATOM     27  C   UNL     1      -2.621  12.698  20.821  0.00  0.00    +0.000 A 
ATOM     28  C   UNL     1      -3.508  13.058  21.848  0.00  0.00    +0.000 A 
BRANCH  23  30
ATOM     29  N   UNL     1      -4.199  14.197  24.714  0.00  0.00    +0.000 NA
ATOM     30  C   UNL     1      -4.189  12.982  24.273  0.00  0.00    +0.000 C 
ATOM     31  N   UNL     1      -4.986  12.033  24.843  0.00  0.00    +0.000 N 
ATOM     32  H   UNL     1      -4.893  14.294  25.456  0.00  0.00    +0.000 HD
ATOM     33  H   UNL     1      -5.305  12.251  25.779  0.00  0.00    +0.000 HD
ATOM     34  H   UNL     1      -4.632  11.084  24.786  0.00  0.00    +0.000 HD
ENDBRANCH  23  30
ENDBRANCH  19  26
ENDBRANCH   1  20
TORSDOF 6
ENDMDL
