MODEL 1
REMARK VINA RESULT:      -7.8      0.000      0.000
REMARK  Name = 
REMARK  4 active torsions:
REMARK  status: ('A' for Active; 'I' for Inactive)
REMARK    1  A    between atoms: C_2  and  C_3
REMARK    2  A    between atoms: C_3  and  C_4
REMARK    3  A    between atoms: C_7  and  C_8
REMARK    4  A    between atoms: C_11  and  C_12
REMARK                            x       y       z     vdW  Elec       q    Type
REMARK                         _______ _______ _______ _____ _____    ______ ____
ROOT
ATOM      1  C   UNL     1       2.371   7.068  18.739  0.00  0.00    +0.000 A 
ATOM      2  C   UNL     1       2.146   6.580  20.033  0.00  0.00    +0.000 A 
ATOM      3  C   UNL     1       1.540   7.388  21.000  0.00  0.00    +0.000 A 
ATOM      4  C   UNL     1       1.138   8.694  20.692  0.00  0.00    +0.000 A 
ATOM      5  C   UNL     1       1.361   9.177  19.394  0.00  0.00    +0.000 A 
ATOM      6  C   UNL     1       1.971   8.371  18.426  0.00  0.00    +0.000 A 
ENDROOT
BRANCH   4   7
ATOM      7  C   UNL     1       0.483   9.536  21.686  0.00  0.00    +0.000 A 
ATOM      8  N   UNL     1       0.731   9.481  23.005  0.00  0.00    +0.000 NA
ATOM      9  O   UNL     1      -0.128  10.428  23.551  0.00  0.00    +0.000 OA
ATOM     10  C   UNL     1      -0.822  10.975  22.512  0.00  0.00    +0.000 A 
ATOM     11  N   UNL     1      -0.476  10.468  21.343  0.00  0.00    +0.000 NA
BRANCH  10  12
ATOM     12  C   UNL     1      -1.824  12.014  22.864  0.00  0.00    +0.000 C 
ATOM     13  F   UNL     1      -1.277  13.081  23.507  0.00  0.00    +0.000 F 
ATOM     14  F   UNL     1      -2.457  12.511  21.767  0.00  0.00    +0.000 F 
ATOM     15  F   UNL     1      -2.794  11.531  23.687  0.00  0.00    +0.000 F 
ENDBRANCH  10  12
ENDBRANCH   4   7
BRANCH   1  16
ATOM     16  C   UNL     1       3.012   6.184  17.693  0.00  0.00    +0.000 C 
BRANCH  16  18
ATOM     17  O   UNL     1       1.262   4.544  17.374  0.00  0.00    +0.000 OA
ATOM     18  C   UNL     1       2.447   4.768  17.626  0.00  0.00    +0.000 C 
ATOM     19  N   UNL     1       3.352   3.732  17.824  0.00  0.00    +0.000 N 
ATOM     20  C   UNL     1       2.920   2.346  17.635  0.00  0.00    +0.000 C 
ATOM     21  C   UNL     1       2.979   1.578  18.959  0.00  0.00    +0.000 C 
ATOM     22  O   UNL     1       4.287   1.673  19.552  0.00  0.00    +0.000 OA
ATOM     23  C   UNL     1       4.641   3.044  19.795  0.00  0.00    +0.000 C 
ATOM     24  C   UNL     1       4.654   3.849  18.487  0.00  0.00    +0.000 C 
ENDBRANCH  16  18
ENDBRANCH   1  16
TORSDOF 4
ENDMDL
MODEL 2
REMARK VINA RESULT:      -7.7      2.053      2.808
REMARK  Name = 
REMARK  4 active torsions:
REMARK  status: ('A' for Active; 'I' for Inactive)
REMARK    1  A    between atoms: C_2  and  C_3
REMARK    2  A    between atoms: C_3  and  C_4
REMARK    3  A    between atoms: C_7  and  C_8
REMARK    4  A    between atoms: C_11  and  C_12
REMARK                            x       y       z     vdW  Elec       q    Type
REMARK                         _______ _______ _______ _____ _____    ______ ____
ROOT
ATOM      1  C   UNL     1       2.443   5.947  18.713  0.00  0.00    +0.000 A 
ATOM      2  C   UNL     1       2.016   5.580  19.996  0.00  0.00    +0.000 A 
ATOM      3  C   UNL     1       1.538   6.544  20.888  0.00  0.00    +0.000 A 
ATOM      4  C   UNL     1       1.466   7.892  20.513  0.00  0.00    +0.000 A 
ATOM      5  C   UNL     1       1.889   8.255  19.226  0.00  0.00    +0.000 A 
ATOM      6  C   UNL     1       2.372   7.292  18.334  0.00  0.00    +0.000 A 
ENDROOT
BRANCH   4   7
ATOM      7  C   UNL     1       0.945   8.902  21.427  0.00  0.00    +0.000 A 
ATOM      8  N   UNL     1       1.412   9.110  22.670  0.00  0.00    +0.000 NA
ATOM      9  O   UNL     1       0.610  10.132  23.166  0.00  0.00    +0.000 OA
ATOM     10  C   UNL     1      -0.272  10.455  22.176  0.00  0.00    +0.000 A 
ATOM     11  N   UNL     1      -0.100   9.734  21.083  0.00  0.00    +0.000 NA
BRANCH  10  12
ATOM     12  C   UNL     1      -1.250  11.528  22.492  0.00  0.00    +0.000 C 
ATOM     13  F   UNL     1      -2.123  11.177  23.475  0.00  0.00    +0.000 F 
ATOM     14  F   UNL     1      -0.642  12.671  22.909  0.00  0.00    +0.000 F 
ATOM     15  F   UNL     1      -2.008  11.864  21.413  0.00  0.00    +0.000 F 
ENDBRANCH  10  12
ENDBRANCH   4   7
BRANCH   1  16
ATOM     16  C   UNL     1       2.944   4.897  17.747  0.00  0.00    +0.000 C 
BRANCH  16  18
ATOM     17  O   UNL     1       4.612   3.558  18.877  0.00  0.00    +0.000 OA
ATOM     18  C   UNL     1       4.363   4.408  18.021  0.00  0.00    +0.000 C 
ATOM     19  N   UNL     1       5.366   4.943  17.221  0.00  0.00    +0.000 N 
ATOM     20  C   UNL     1       6.730   4.422  17.324  0.00  0.00    +0.000 C 
ATOM     21  C   UNL     1       7.681   5.502  17.850  0.00  0.00    +0.000 C 
ATOM     22  O   UNL     1       7.604   6.692  17.045  0.00  0.00    +0.000 OA
ATOM     23  C   UNL     1       6.267   7.217  17.034  0.00  0.00    +0.000 C 
ATOM     24  C   UNL     1       5.277   6.193  16.459  0.00  0.00    +0.000 C 
ENDBRANCH  16  18
ENDBRANCH   1  16
TORSDOF 4
ENDMDL
MODEL 3
REMARK VINA RESULT:      -7.7      0.283      1.024
REMARK  Name = 
REMARK  4 active torsions:
REMARK  status: ('A' for Active; 'I' for Inactive)
REMARK    1  A    between atoms: C_2  and  C_3
REMARK    2  A    between atoms: C_3  and  C_4
REMARK    3  A    between atoms: C_7  and  C_8
REMARK    4  A    between atoms: C_11  and  C_12
REMARK                            x       y       z     vdW  Elec       q    Type
REMARK                         _______ _______ _______ _____ _____    ______ ____
ROOT
ATOM      1  C   UNL     1       2.344   7.249  18.934  0.00  0.00    +0.000 A 
ATOM      2  C   UNL     1       1.910   8.526  18.558  0.00  0.00    +0.000 A 
ATOM      3  C   UNL     1       1.229   9.341  19.468  0.00  0.00    +0.000 A 
ATOM      4  C   UNL     1       0.978   8.900  20.774  0.00  0.00    +0.000 A 
ATOM      5  C   UNL     1       1.419   7.623  21.149  0.00  0.00    +0.000 A 
ATOM      6  C   UNL     1       2.097   6.804  20.238  0.00  0.00    +0.000 A 
ENDROOT
BRANCH   4   7
ATOM      7  C   UNL     1       0.292   9.752  21.738  0.00  0.00    +0.000 A 
ATOM      8  N   UNL     1       0.538   9.750  23.059  0.00  0.00    +0.000 NA
ATOM      9  O   UNL     1      -0.355  10.686  23.571  0.00  0.00    +0.000 OA
ATOM     10  C   UNL     1      -1.064  11.173  22.513  0.00  0.00    +0.000 A 
ATOM     11  N   UNL     1      -0.697  10.639  21.362  0.00  0.00    +0.000 NA
BRANCH  10  12
ATOM     12  C   UNL     1      -2.101  12.189  22.828  0.00  0.00    +0.000 C 
ATOM     13  F   UNL     1      -1.577  13.358  23.284  0.00  0.00    +0.000 F 
ATOM     14  F   UNL     1      -2.858  12.505  21.743  0.00  0.00    +0.000 F 
ATOM     15  F   UNL     1      -2.963  11.758  23.789  0.00  0.00    +0.000 F 
ENDBRANCH  10  12
ENDBRANCH   4   7
BRANCH   1  16
ATOM     16  C   UNL     1       3.095   6.379  17.951  0.00  0.00    +0.000 C 
BRANCH  16  18
ATOM     17  O   UNL     1       1.316   4.813  17.465  0.00  0.00    +0.000 OA
ATOM     18  C   UNL     1       2.500   4.987  17.754  0.00  0.00    +0.000 C 
ATOM     19  N   UNL     1       3.379   3.918  17.876  0.00  0.00    +0.000 N 
ATOM     20  C   UNL     1       2.921   2.563  17.560  0.00  0.00    +0.000 C 
ATOM     21  C   UNL     1       2.940   1.683  18.814  0.00  0.00    +0.000 C 
ATOM     22  O   UNL     1       4.239   1.696  19.433  0.00  0.00    +0.000 OA
ATOM     23  C   UNL     1       4.619   3.032  19.799  0.00  0.00    +0.000 C 
ATOM     24  C   UNL     1       4.673   3.947  18.566  0.00  0.00    +0.000 C 
ENDBRANCH  16  18
ENDBRANCH   1  16
TORSDOF 4
ENDMDL
MODEL 4
REMARK VINA RESULT:      -7.7      2.098      2.898
REMARK  Name = 
REMARK  4 active torsions:
REMARK  status: ('A' for Active; 'I' for Inactive)
REMARK    1  A    between atoms: C_2  and  C_3
REMARK    2  A    between atoms: C_3  and  C_4
REMARK    3  A    between atoms: C_7  and  C_8
REMARK    4  A    between atoms: C_11  and  C_12
REMARK                            x       y       z     vdW  Elec       q    Type
REMARK                         _______ _______ _______ _____ _____    ______ ____
ROOT
ATOM      1  C   UNL     1       2.512   6.084  18.635  0.00  0.00    +0.000 A 
ATOM      2  C   UNL     1       2.435   7.434  18.271  0.00  0.00    +0.000 A 
ATOM      3  C   UNL     1       1.914   8.381  19.159  0.00  0.00    +0.000 A 
ATOM      4  C   UNL     1       1.471   7.998  20.432  0.00  0.00    +0.000 A 
ATOM      5  C   UNL     1       1.553   6.646  20.795  0.00  0.00    +0.000 A 
ATOM      6  C   UNL     1       2.070   5.698  19.906  0.00  0.00    +0.000 A 
ENDROOT
BRANCH   4   7
ATOM      7  C   UNL     1       0.949   8.981  21.374  0.00  0.00    +0.000 A 
ATOM      8  N   UNL     1       1.422   9.159  22.619  0.00  0.00    +0.000 NA
ATOM      9  O   UNL     1       0.618  10.165  23.146  0.00  0.00    +0.000 OA
ATOM     10  C   UNL     1      -0.272  10.509  22.170  0.00  0.00    +0.000 A 
ATOM     11  N   UNL     1      -0.102   9.817  21.058  0.00  0.00    +0.000 NA
BRANCH  10  12
ATOM     12  C   UNL     1      -1.253  11.568  22.519  0.00  0.00    +0.000 C 
ATOM     13  F   UNL     1      -0.664  12.718  22.943  0.00  0.00    +0.000 F 
ATOM     14  F   UNL     1      -2.041  11.907  21.463  0.00  0.00    +0.000 F 
ATOM     15  F   UNL     1      -2.091  11.179  23.518  0.00  0.00    +0.000 F 
ENDBRANCH  10  12
ENDBRANCH   4   7
BRANCH   1  16
ATOM     16  C   UNL     1       3.092   5.067  17.677  0.00  0.00    +0.000 C 
BRANCH  16  18
ATOM     17  O   UNL     1       4.608   3.665  18.936  0.00  0.00    +0.000 OA
ATOM     18  C   UNL     1       4.465   4.532  18.074  0.00  0.00    +0.000 C 
ATOM     19  N   UNL     1       5.552   5.047  17.379  0.00  0.00    +0.000 N 
ATOM     20  C   UNL     1       6.886   4.484  17.599  0.00  0.00    +0.000 C 
ATOM     21  C   UNL     1       7.815   5.528  18.226  0.00  0.00    +0.000 C 
ATOM     22  O   UNL     1       7.846   6.730  17.436  0.00  0.00    +0.000 OA
ATOM     23  C   UNL     1       6.532   7.295  17.310  0.00  0.00    +0.000 C 
ATOM     24  C   UNL     1       5.571   6.308  16.631  0.00  0.00    +0.000 C 
ENDBRANCH  16  18
ENDBRANCH   1  16
TORSDOF 4
ENDMDL
MODEL 5
REMARK VINA RESULT:      -7.5      1.415      2.175
REMARK  Name = 
REMARK  4 active torsions:
REMARK  status: ('A' for Active; 'I' for Inactive)
REMARK    1  A    between atoms: C_2  and  C_3
REMARK    2  A    between atoms: C_3  and  C_4
REMARK    3  A    between atoms: C_7  and  C_8
REMARK    4  A    between atoms: C_11  and  C_12
REMARK                            x       y       z     vdW  Elec       q    Type
REMARK                         _______ _______ _______ _____ _____    ______ ____
ROOT
ATOM      1  C   UNL     1       2.282   7.531  18.777  0.00  0.00    +0.000 A 
ATOM      2  C   UNL     1       1.994   8.743  18.136  0.00  0.00    +0.000 A 
ATOM      3  C   UNL     1       1.400   9.794  18.841  0.00  0.00    +0.000 A 
ATOM      4  C   UNL     1       1.092   9.660  20.201  0.00  0.00    +0.000 A 
ATOM      5  C   UNL     1       1.387   8.446  20.840  0.00  0.00    +0.000 A 
ATOM      6  C   UNL     1       1.977   7.392  20.135  0.00  0.00    +0.000 A 
ENDROOT
BRANCH   4   7
ATOM      7  C   UNL     1       0.496  10.759  20.951  0.00  0.00    +0.000 A 
ATOM      8  N   UNL     1       1.101  11.937  21.176  0.00  0.00    +0.000 NA
ATOM      9  O   UNL     1       0.183  12.649  21.940  0.00  0.00    +0.000 OA
ATOM     10  C   UNL     1      -0.901  11.838  22.110  0.00  0.00    +0.000 A 
ATOM     11  N   UNL     1      -0.761  10.668  21.513  0.00  0.00    +0.000 NA
BRANCH  10  12
ATOM     12  C   UNL     1      -2.016  12.392  22.921  0.00  0.00    +0.000 C 
ATOM     13  F   UNL     1      -2.988  12.965  22.162  0.00  0.00    +0.000 F 
ATOM     14  F   UNL     1      -2.628  11.437  23.672  0.00  0.00    +0.000 F 
ATOM     15  F   UNL     1      -1.591  13.352  23.786  0.00  0.00    +0.000 F 
ENDBRANCH  10  12
ENDBRANCH   4   7
BRANCH   1  16
ATOM     16  C   UNL     1       2.940   6.403  18.014  0.00  0.00    +0.000 C 
BRANCH  16  18
ATOM     17  O   UNL     1       4.780   5.647  19.391  0.00  0.00    +0.000 OA
ATOM     18  C   UNL     1       3.685   5.397  18.886  0.00  0.00    +0.000 C 
ATOM     19  N   UNL     1       3.041   4.188  19.121  0.00  0.00    +0.000 N 
ATOM     20  C   UNL     1       3.622   3.227  20.062  0.00  0.00    +0.000 C 
ATOM     21  C   UNL     1       4.038   1.945  19.334  0.00  0.00    +0.000 C 
ATOM     22  O   UNL     1       2.936   1.393  18.592  0.00  0.00    +0.000 OA
ATOM     23  C   UNL     1       2.446   2.336  17.625  0.00  0.00    +0.000 C 
ATOM     24  C   UNL     1       1.959   3.622  18.309  0.00  0.00    +0.000 C 
ENDBRANCH  16  18
ENDBRANCH   1  16
TORSDOF 4
ENDMDL
MODEL 6
REMARK VINA RESULT:      -7.5      1.502      2.130
REMARK  Name = 
REMARK  4 active torsions:
REMARK  status: ('A' for Active; 'I' for Inactive)
REMARK    1  A    between atoms: C_2  and  C_3
REMARK    2  A    between atoms: C_3  and  C_4
REMARK    3  A    between atoms: C_7  and  C_8
REMARK    4  A    between atoms: C_11  and  C_12
REMARK                            x       y       z     vdW  Elec       q    Type
REMARK                         _______ _______ _______ _____ _____    ______ ____
ROOT
ATOM      1  C   UNL     1       2.681   7.472  18.425  0.00  0.00    +0.000 A 
ATOM      2  C   UNL     1       2.230   7.337  19.745  0.00  0.00    +0.000 A 
ATOM      3  C   UNL     1       1.443   8.333  20.332  0.00  0.00    +0.000 A 
ATOM      4  C   UNL     1       1.081   9.477  19.609  0.00  0.00    +0.000 A 
ATOM      5  C   UNL     1       1.531   9.607  18.287  0.00  0.00    +0.000 A 
ATOM      6  C   UNL     1       2.322   8.614  17.700  0.00  0.00    +0.000 A 
ENDROOT
BRANCH   4   7
ATOM      7  C   UNL     1       0.240  10.509  20.204  0.00  0.00    +0.000 A 
ATOM      8  N   UNL     1      -0.035  11.689  19.622  0.00  0.00    +0.000 NA
ATOM      9  O   UNL     1      -0.836  12.345  20.550  0.00  0.00    +0.000 OA
ATOM     10  C   UNL     1      -0.978  11.502  21.613  0.00  0.00    +0.000 A 
ATOM     11  N   UNL     1      -0.344  10.356  21.445  0.00  0.00    +0.000 NA
BRANCH  10  12
ATOM     12  C   UNL     1      -1.794  12.007  22.748  0.00  0.00    +0.000 C 
ATOM     13  F   UNL     1      -2.956  12.588  22.348  0.00  0.00    +0.000 F 
ATOM     14  F   UNL     1      -2.139  11.016  23.613  0.00  0.00    +0.000 F 
ATOM     15  F   UNL     1      -1.131  12.945  23.477  0.00  0.00    +0.000 F 
ENDBRANCH  10  12
ENDBRANCH   4   7
BRANCH   1  16
ATOM     16  C   UNL     1       3.517   6.385  17.790  0.00  0.00    +0.000 C 
BRANCH  16  18
ATOM     17  O   UNL     1       5.141   5.525  19.365  0.00  0.00    +0.000 OA
ATOM     18  C   UNL     1       4.074   5.358  18.772  0.00  0.00    +0.000 C 
ATOM     19  N   UNL     1       3.290   4.233  18.999  0.00  0.00    +0.000 N 
ATOM     20  C   UNL     1       3.682   3.271  20.031  0.00  0.00    +0.000 C 
ATOM     21  C   UNL     1       4.027   1.917  19.403  0.00  0.00    +0.000 C 
ATOM     22  O   UNL     1       2.943   1.439  18.586  0.00  0.00    +0.000 OA
ATOM     23  C   UNL     1       2.640   2.372  17.537  0.00  0.00    +0.000 C 
ATOM     24  C   UNL     1       2.231   3.735  18.115  0.00  0.00    +0.000 C 
ENDBRANCH  16  18
ENDBRANCH   1  16
TORSDOF 4
ENDMDL
MODEL 7
REMARK VINA RESULT:      -7.4      1.539      2.250
REMARK  Name = 
REMARK  4 active torsions:
REMARK  status: ('A' for Active; 'I' for Inactive)
REMARK    1  A    between atoms: C_2  and  C_3
REMARK    2  A    between atoms: C_3  and  C_4
REMARK    3  A    between atoms: C_7  and  C_8
REMARK    4  A    between atoms: C_11  and  C_12
REMARK                            x       y       z     vdW  Elec       q    Type
REMARK                         _______ _______ _______ _____ _____    ______ ____
ROOT
ATOM      1  C   UNL     1       2.598   7.523  18.451  0.00  0.00    +0.000 A 
ATOM      2  C   UNL     1       2.125   8.580  17.665  0.00  0.00    +0.000 A 
ATOM      3  C   UNL     1       1.270   9.544  18.210  0.00  0.00    +0.000 A 
ATOM      4  C   UNL     1       0.881   9.475  19.554  0.00  0.00    +0.000 A 
ATOM      5  C   UNL     1       1.361   8.417  20.340  0.00  0.00    +0.000 A 
ATOM      6  C   UNL     1       2.212   7.450  19.794  0.00  0.00    +0.000 A 
ENDROOT
BRANCH   4   7
ATOM      7  C   UNL     1       0.011  10.488  20.139  0.00  0.00    +0.000 A 
ATOM      8  N   UNL     1      -0.481  11.543  19.466  0.00  0.00    +0.000 NA
ATOM      9  O   UNL     1      -1.221  12.236  20.418  0.00  0.00    +0.000 OA
ATOM     10  C   UNL     1      -1.114  11.537  21.585  0.00  0.00    +0.000 A 
ATOM     11  N   UNL     1      -0.376  10.449  21.463  0.00  0.00    +0.000 NA
BRANCH  10  12
ATOM     12  C   UNL     1      -1.822  12.108  22.760  0.00  0.00    +0.000 C 
ATOM     13  F   UNL     1      -1.039  12.938  23.499  0.00  0.00    +0.000 F 
ATOM     14  F   UNL     1      -2.915  12.833  22.399  0.00  0.00    +0.000 F 
ATOM     15  F   UNL     1      -2.262  11.141  23.611  0.00  0.00    +0.000 F 
ENDBRANCH  10  12
ENDBRANCH   4   7
BRANCH   1  16
ATOM     16  C   UNL     1       3.536   6.493  17.861  0.00  0.00    +0.000 C 
BRANCH  16  18
ATOM     17  O   UNL     1       5.060   5.573  19.499  0.00  0.00    +0.000 OA
ATOM     18  C   UNL     1       4.022   5.437  18.849  0.00  0.00    +0.000 C 
ATOM     19  N   UNL     1       3.207   4.323  19.013  0.00  0.00    +0.000 N 
ATOM     20  C   UNL     1       3.529   3.335  20.045  0.00  0.00    +0.000 C 
ATOM     21  C   UNL     1       3.880   1.987  19.408  0.00  0.00    +0.000 C 
ATOM     22  O   UNL     1       2.832   1.544  18.528  0.00  0.00    +0.000 OA
ATOM     23  C   UNL     1       2.601   2.503  17.483  0.00  0.00    +0.000 C 
ATOM     24  C   UNL     1       2.186   3.863  18.066  0.00  0.00    +0.000 C 
ENDBRANCH  16  18
ENDBRANCH   1  16
TORSDOF 4
ENDMDL
MODEL 8
REMARK VINA RESULT:      -7.4      1.406      1.935
REMARK  Name = 
REMARK  4 active torsions:
REMARK  status: ('A' for Active; 'I' for Inactive)
REMARK    1  A    between atoms: C_2  and  C_3
REMARK    2  A    between atoms: C_3  and  C_4
REMARK    3  A    between atoms: C_7  and  C_8
REMARK    4  A    between atoms: C_11  and  C_12
REMARK                            x       y       z     vdW  Elec       q    Type
REMARK                         _______ _______ _______ _____ _____    ______ ____
ROOT
ATOM      1  C   UNL     1       2.300   7.541  18.740  0.00  0.00    +0.000 A 
ATOM      2  C   UNL     1       2.012   7.386  20.102  0.00  0.00    +0.000 A 
ATOM      3  C   UNL     1       1.436   8.432  20.829  0.00  0.00    +0.000 A 
ATOM      4  C   UNL     1       1.126   9.649  20.209  0.00  0.00    +0.000 A 
ATOM      5  C   UNL     1       1.412   9.800  18.844  0.00  0.00    +0.000 A 
ATOM      6  C   UNL     1       1.992   8.755  18.115  0.00  0.00    +0.000 A 
ENDROOT
BRANCH   4   7
ATOM      7  C   UNL     1       0.501  10.737  20.952  0.00  0.00    +0.000 A 
ATOM      8  N   UNL     1       1.083  11.926  21.184  0.00  0.00    +0.000 NA
ATOM      9  O   UNL     1       0.143  12.620  21.939  0.00  0.00    +0.000 OA
ATOM     10  C   UNL     1      -0.927  11.789  22.096  0.00  0.00    +0.000 A 
ATOM     11  N   UNL     1      -0.761  10.623  21.499  0.00  0.00    +0.000 NA
BRANCH  10  12
ATOM     12  C   UNL     1      -2.062  12.323  22.894  0.00  0.00    +0.000 C 
ATOM     13  F   UNL     1      -2.639  11.382  23.688  0.00  0.00    +0.000 F 
ATOM     14  F   UNL     1      -1.680  13.337  23.715  0.00  0.00    +0.000 F 
ATOM     15  F   UNL     1      -3.055  12.815  22.104  0.00  0.00    +0.000 F 
ENDBRANCH  10  12
ENDBRANCH   4   7
BRANCH   1  16
ATOM     16  C   UNL     1       2.908   6.402  17.954  0.00  0.00    +0.000 C 
BRANCH  16  18
ATOM     17  O   UNL     1       4.821   5.657  19.236  0.00  0.00    +0.000 OA
ATOM     18  C   UNL     1       3.699   5.403  18.795  0.00  0.00    +0.000 C 
ATOM     19  N   UNL     1       3.068   4.197  19.076  0.00  0.00    +0.000 N 
ATOM     20  C   UNL     1       3.699   3.245  19.993  0.00  0.00    +0.000 C 
ATOM     21  C   UNL     1       4.075   1.956  19.256  0.00  0.00    +0.000 C 
ATOM     22  O   UNL     1       2.933   1.398  18.580  0.00  0.00    +0.000 OA
ATOM     23  C   UNL     1       2.392   2.331  17.633  0.00  0.00    +0.000 C 
ATOM     24  C   UNL     1       1.943   3.625  18.329  0.00  0.00    +0.000 C 
ENDBRANCH  16  18
ENDBRANCH   1  16
TORSDOF 4
ENDMDL
MODEL 9
REMARK VINA RESULT:      -7.3      1.320      1.953
REMARK  Name = 
REMARK  4 active torsions:
REMARK  status: ('A' for Active; 'I' for Inactive)
REMARK    1  A    between atoms: C_2  and  C_3
REMARK    2  A    between atoms: C_3  and  C_4
REMARK    3  A    between atoms: C_7  and  C_8
REMARK    4  A    between atoms: C_11  and  C_12
REMARK                            x       y       z     vdW  Elec       q    Type
REMARK                         _______ _______ _______ _____ _____    ______ ____
ROOT
ATOM      1  C   UNL     1       2.287   7.592  18.974  0.00  0.00    +0.000 A 
ATOM      2  C   UNL     1       1.809   8.811  18.475  0.00  0.00    +0.000 A 
ATOM      3  C   UNL     1       1.082   9.678  19.296  0.00  0.00    +0.000 A 
ATOM      4  C   UNL     1       0.826   9.350  20.634  0.00  0.00    +0.000 A 
ATOM      5  C   UNL     1       1.309   8.131  21.131  0.00  0.00    +0.000 A 
ATOM      6  C   UNL     1       2.034   7.261  20.310  0.00  0.00    +0.000 A 
ENDROOT
BRANCH   4   7
ATOM      7  C   UNL     1       0.089  10.258  21.505  0.00  0.00    +0.000 A 
ATOM      8  N   UNL     1       0.278  10.352  22.832  0.00  0.00    +0.000 NA
ATOM      9  O   UNL     1      -0.646  11.310  23.238  0.00  0.00    +0.000 OA
ATOM     10  C   UNL     1      -1.312  11.714  22.118  0.00  0.00    +0.000 A 
ATOM     11  N   UNL     1      -0.890  11.104  21.025  0.00  0.00    +0.000 NA
BRANCH  10  12
ATOM     12  C   UNL     1      -2.372  12.736  22.316  0.00  0.00    +0.000 C 
ATOM     13  F   UNL     1      -2.196  13.469  23.449  0.00  0.00    +0.000 F 
ATOM     14  F   UNL     1      -2.427  13.625  21.288  0.00  0.00    +0.000 F 
ATOM     15  F   UNL     1      -3.609  12.178  22.413  0.00  0.00    +0.000 F 
ENDBRANCH  10  12
ENDBRANCH   4   7
BRANCH   1  16
ATOM     16  C   UNL     1       3.088   6.666  18.087  0.00  0.00    +0.000 C 
BRANCH  16  18
ATOM     17  O   UNL     1       4.978   5.692  19.240  0.00  0.00    +0.000 OA
ATOM     18  C   UNL     1       3.825   5.556  18.830  0.00  0.00    +0.000 C 
ATOM     19  N   UNL     1       3.109   4.387  19.061  0.00  0.00    +0.000 N 
ATOM     20  C   UNL     1       3.692   3.330  19.890  0.00  0.00    +0.000 C 
ATOM     21  C   UNL     1       3.936   2.067  19.059  0.00  0.00    +0.000 C 
ATOM     22  O   UNL     1       2.730   1.646  18.397  0.00  0.00    +0.000 OA
ATOM     23  C   UNL     1       2.232   2.679  17.532  0.00  0.00    +0.000 C 
ATOM     24  C   UNL     1       1.915   3.955  18.326  0.00  0.00    +0.000 C 
ENDBRANCH  16  18
ENDBRANCH   1  16
TORSDOF 4
ENDMDL
