MODEL 1
REMARK VINA RESULT:      -7.0      0.000      0.000
REMARK  Name = 
REMARK  14 active torsions:
REMARK  status: ('A' for Active; 'I' for Inactive)
REMARK    1  A    between atoms: C_1  and  O_2
REMARK    2  A    between atoms: O_2  and  C_3
REMARK    3  A    between atoms: C_6  and  C_7
REMARK    4  A    between atoms: N_10  and  C_11
REMARK    5  A    between atoms: C_11  and  C_12
REMARK    6  A    between atoms: C_12  and  O_13
REMARK    7  A    between atoms: O_13  and  C_14
REMARK    8  A    between atoms: C_14  and  C_15
REMARK    9  A    between atoms: C_15  and  O_16
REMARK   10  A    between atoms: O_16  and  C_17
REMARK   11  A    between atoms: C_17  and  C_18
REMARK   12  A    between atoms: C_18  and  N_19
REMARK   13  A    between atoms: N_22  and  C_23
REMARK   14  A    between atoms: C_23  and  C_24
REMARK                            x       y       z     vdW  Elec       q    Type
REMARK                         _______ _______ _______ _____ _____    ______ ____
ROOT
ATOM      1  C   UNL     1       1.211   8.113  20.484  0.00  0.00    +0.000 A 
ATOM      2  N   UNL     1       2.001   8.312  19.397  0.00  0.00    +0.000 NA
ATOM      3  C   UNL     1       2.522   7.252  18.729  0.00  0.00    +0.000 A 
ATOM      4  N   UNL     1       3.353   7.469  17.604  0.00  0.00    +0.000 N 
ATOM      5  N   UNL     1       2.230   5.987  19.138  0.00  0.00    +0.000 NA
ATOM      6  C   UNL     1       1.445   5.785  20.226  0.00  0.00    +0.000 A 
ATOM      7  N   UNL     1       1.083   4.485  20.646  0.00  0.00    +0.000 N 
ATOM      8  N   UNL     1       0.944   6.849  20.892  0.00  0.00    +0.000 NA
ATOM      9  H   UNL     1       3.344   8.396  17.150  0.00  0.00    +0.000 HD
ATOM     10  H   UNL     1       0.736   4.357  21.609  0.00  0.00    +0.000 HD
ENDROOT
BRANCH   1  14
ATOM     11  C   UNL     1      -0.542  11.471  22.495  0.00  0.00    +0.000 A 
ATOM     12  C   UNL     1       0.154  11.636  21.285  0.00  0.00    +0.000 A 
ATOM     13  C   UNL     1       0.690  10.535  20.627  0.00  0.00    +0.000 A 
ATOM     14  C   UNL     1       0.565   9.245  21.171  0.00  0.00    +0.000 A 
ATOM     15  C   UNL     1      -0.141   9.073  22.370  0.00  0.00    +0.000 A 
ATOM     16  C   UNL     1      -0.702  10.178  23.019  0.00  0.00    +0.000 A 
BRANCH  11  18
ATOM     17  C   UNL     1      -2.383  12.846  23.293  0.00  0.00    +0.000 C 
ATOM     18  O   UNL     1      -1.044  12.525  23.186  0.00  0.00    +0.000 OA
ENDBRANCH  11  18
ENDBRANCH   1  14
BRANCH   4  19
ATOM     19  C   UNL     1       4.321   6.485  17.156  0.00  0.00    +0.000 C 
BRANCH  19  20
ATOM     20  C   UNL     1       5.493   7.219  16.502  0.00  0.00    +0.000 C 
BRANCH  20  21
ATOM     21  O   UNL     1       6.125   6.360  15.574  0.00  0.00    +0.000 OA
BRANCH  21  22
ATOM     22  C   UNL     1       5.691   5.034  15.789  0.00  0.00    +0.000 C 
BRANCH  22  23
ATOM     23  C   UNL     1       6.905   4.114  15.877  0.00  0.00    +0.000 C 
BRANCH  23  24
ATOM     24  O   UNL     1       7.876   4.712  16.708  0.00  0.00    +0.000 OA
BRANCH  24  25
ATOM     25  C   UNL     1       7.521   4.521  18.060  0.00  0.00    +0.000 C 
BRANCH  25  26
ATOM     26  C   UNL     1       7.914   5.768  18.849  0.00  0.00    +0.000 C 
BRANCH  26  27
ATOM     27  N   UNL     1       7.841   5.509  20.284  0.00  0.00    +0.000 NA
ATOM     28  H   UNL     1       7.669   6.411  20.786  0.00  0.00    +0.000 HD
ATOM     29  H   UNL     1       8.769   5.144  20.599  0.00  0.00    +0.000 HD
ENDBRANCH  26  27
ENDBRANCH  25  26
ENDBRANCH  24  25
ENDBRANCH  23  24
ENDBRANCH  22  23
ENDBRANCH  21  22
ENDBRANCH  20  21
ENDBRANCH  19  20
ENDBRANCH   4  19
BRANCH   7  30
ATOM     30  C   UNL     1       0.943   3.386  19.714  0.00  0.00    +0.000 C 
BRANCH  30  31
ATOM     31  C   UNL     1       2.227   2.535  19.737  0.00  0.00    +0.000 C 
ATOM     32  C   UNL     1       3.030   2.691  21.035  0.00  0.00    +0.000 C 
ATOM     33  C   UNL     1       4.366   2.241  20.543  0.00  0.00    +0.000 C 
ATOM     34  C   UNL     1       4.391   2.976  19.216  0.00  0.00    +0.000 C 
ATOM     35  O   UNL     1       3.090   2.894  18.668  0.00  0.00    +0.000 OA
ENDBRANCH  30  31
ENDBRANCH   7  30
TORSDOF 13
ENDMDL
MODEL 2
REMARK VINA RESULT:      -6.8      1.866      5.121
REMARK  Name = 
REMARK  14 active torsions:
REMARK  status: ('A' for Active; 'I' for Inactive)
REMARK    1  A    between atoms: C_1  and  O_2
REMARK    2  A    between atoms: O_2  and  C_3
REMARK    3  A    between atoms: C_6  and  C_7
REMARK    4  A    between atoms: N_10  and  C_11
REMARK    5  A    between atoms: C_11  and  C_12
REMARK    6  A    between atoms: C_12  and  O_13
REMARK    7  A    between atoms: O_13  and  C_14
REMARK    8  A    between atoms: C_14  and  C_15
REMARK    9  A    between atoms: C_15  and  O_16
REMARK   10  A    between atoms: O_16  and  C_17
REMARK   11  A    between atoms: C_17  and  C_18
REMARK   12  A    between atoms: C_18  and  N_19
REMARK   13  A    between atoms: N_22  and  C_23
REMARK   14  A    between atoms: C_23  and  C_24
REMARK                            x       y       z     vdW  Elec       q    Type
REMARK                         _______ _______ _______ _____ _____    ______ ____
ROOT
ATOM      1  C   UNL     1       2.809   7.297  18.729  0.00  0.00    +0.000 A 
ATOM      2  N   UNL     1       3.007   6.211  19.519  0.00  0.00    +0.000 NA
ATOM      3  C   UNL     1       4.010   5.339  19.240  0.00  0.00    +0.000 A 
ATOM      4  N   UNL     1       4.202   4.203  20.063  0.00  0.00    +0.000 N 
ATOM      5  N   UNL     1       4.830   5.571  18.180  0.00  0.00    +0.000 NA
ATOM      6  C   UNL     1       4.631   6.653  17.386  0.00  0.00    +0.000 A 
ATOM      7  N   UNL     1       5.495   6.948  16.308  0.00  0.00    +0.000 N 
ATOM      8  N   UNL     1       3.620   7.506  17.665  0.00  0.00    +0.000 NA
ATOM      9  H   UNL     1       3.763   4.184  20.997  0.00  0.00    +0.000 HD
ATOM     10  H   UNL     1       5.165   7.593  15.574  0.00  0.00    +0.000 HD
ENDROOT
BRANCH   1  14
ATOM     11  C   UNL     1      -0.087  10.321  19.659  0.00  0.00    +0.000 A 
ATOM     12  C   UNL     1       0.409  10.173  18.352  0.00  0.00    +0.000 A 
ATOM     13  C   UNL     1       1.324   9.168  18.058  0.00  0.00    +0.000 A 
ATOM     14  C   UNL     1       1.783   8.301  19.063  0.00  0.00    +0.000 A 
ATOM     15  C   UNL     1       1.280   8.436  20.366  0.00  0.00    +0.000 A 
ATOM     16  C   UNL     1       0.341   9.431  20.656  0.00  0.00    +0.000 A 
BRANCH  11  18
ATOM     17  C   UNL     1      -1.225  11.733  21.279  0.00  0.00    +0.000 C 
ATOM     18  O   UNL     1      -0.949  11.315  19.993  0.00  0.00    +0.000 OA
ENDBRANCH  11  18
ENDBRANCH   1  14
BRANCH   4  19
ATOM     19  C   UNL     1       4.873   3.008  19.587  0.00  0.00    +0.000 C 
BRANCH  19  20
ATOM     20  C   UNL     1       3.819   2.041  19.045  0.00  0.00    +0.000 C 
BRANCH  20  21
ATOM     21  O   UNL     1       3.477   2.412  17.724  0.00  0.00    +0.000 OA
BRANCH  21  22
ATOM     22  C   UNL     1       2.077   2.568  17.626  0.00  0.00    +0.000 C 
BRANCH  22  23
ATOM     23  C   UNL     1       1.418   2.004  18.880  0.00  0.00    +0.000 C 
BRANCH  23  24
ATOM     24  O   UNL     1       0.371   2.863  19.276  0.00  0.00    +0.000 OA
BRANCH  24  25
ATOM     25  C   UNL     1       0.792   3.642  20.375  0.00  0.00    +0.000 C 
BRANCH  25  26
ATOM     26  C   UNL     1       1.211   2.706  21.506  0.00  0.00    +0.000 C 
BRANCH  26  27
ATOM     27  N   UNL     1       2.373   3.241  22.208  0.00  0.00    +0.000 NA
ATOM     28  H   UNL     1       2.207   4.252  22.424  0.00  0.00    +0.000 HD
ATOM     29  H   UNL     1       3.198   3.185  21.569  0.00  0.00    +0.000 HD
ENDBRANCH  26  27
ENDBRANCH  25  26
ENDBRANCH  24  25
ENDBRANCH  23  24
ENDBRANCH  22  23
ENDBRANCH  21  22
ENDBRANCH  20  21
ENDBRANCH  19  20
ENDBRANCH   4  19
BRANCH   7  30
ATOM     30  C   UNL     1       6.898   6.588  16.325  0.00  0.00    +0.000 C 
BRANCH  30  31
ATOM     31  C   UNL     1       7.098   5.294  15.512  0.00  0.00    +0.000 C 
ATOM     32  C   UNL     1       6.228   5.234  14.250  0.00  0.00    +0.000 C 
ATOM     33  C   UNL     1       6.225   3.757  14.034  0.00  0.00    +0.000 C 
ATOM     34  C   UNL     1       6.004   3.306  15.466  0.00  0.00    +0.000 C 
ATOM     35  O   UNL     1       6.777   4.153  16.294  0.00  0.00    +0.000 OA
ENDBRANCH  30  31
ENDBRANCH   7  30
TORSDOF 13
ENDMDL
MODEL 3
REMARK VINA RESULT:      -6.8      2.979      3.756
REMARK  Name = 
REMARK  14 active torsions:
REMARK  status: ('A' for Active; 'I' for Inactive)
REMARK    1  A    between atoms: C_1  and  O_2
REMARK    2  A    between atoms: O_2  and  C_3
REMARK    3  A    between atoms: C_6  and  C_7
REMARK    4  A    between atoms: N_10  and  C_11
REMARK    5  A    between atoms: C_11  and  C_12
REMARK    6  A    between atoms: C_12  and  O_13
REMARK    7  A    between atoms: O_13  and  C_14
REMARK    8  A    between atoms: C_14  and  C_15
REMARK    9  A    between atoms: C_15  and  O_16
REMARK   10  A    between atoms: O_16  and  C_17
REMARK   11  A    between atoms: C_17  and  C_18
REMARK   12  A    between atoms: C_18  and  N_19
REMARK   13  A    between atoms: N_22  and  C_23
REMARK   14  A    between atoms: C_23  and  C_24
REMARK                            x       y       z     vdW  Elec       q    Type
REMARK                         _______ _______ _______ _____ _____    ______ ____
ROOT
ATOM      1  C   UNL     1       2.646   7.537  18.890  0.00  0.00    +0.000 A 
ATOM      2  N   UNL     1       3.353   7.602  17.733  0.00  0.00    +0.000 NA
ATOM      3  C   UNL     1       4.242   6.626  17.420  0.00  0.00    +0.000 A 
ATOM      4  N   UNL     1       4.982   6.709  16.216  0.00  0.00    +0.000 N 
ATOM      5  N   UNL     1       4.404   5.567  18.259  0.00  0.00    +0.000 NA
ATOM      6  C   UNL     1       3.703   5.501  19.419  0.00  0.00    +0.000 A 
ATOM      7  N   UNL     1       3.813   4.391  20.287  0.00  0.00    +0.000 N 
ATOM      8  N   UNL     1       2.831   6.487  19.727  0.00  0.00    +0.000 NA
ATOM      9  H   UNL     1       4.661   7.353  15.476  0.00  0.00    +0.000 HD
ATOM     10  H   UNL     1       3.498   4.497  21.264  0.00  0.00    +0.000 HD
ENDROOT
BRANCH   1  14
ATOM     11  C   UNL     1      -0.268  10.557  19.773  0.00  0.00    +0.000 A 
ATOM     12  C   UNL     1       0.240  10.402  18.472  0.00  0.00    +0.000 A 
ATOM     13  C   UNL     1       1.161   9.398  18.192  0.00  0.00    +0.000 A 
ATOM     14  C   UNL     1       1.614   8.539  19.208  0.00  0.00    +0.000 A 
ATOM     15  C   UNL     1       1.099   8.681  20.505  0.00  0.00    +0.000 A 
ATOM     16  C   UNL     1       0.154   9.675  20.780  0.00  0.00    +0.000 A 
BRANCH  11  18
ATOM     17  C   UNL     1      -1.142  12.815  19.539  0.00  0.00    +0.000 C 
ATOM     18  O   UNL     1      -1.137  11.549  20.093  0.00  0.00    +0.000 OA
ENDBRANCH  11  18
ENDBRANCH   1  14
BRANCH   4  19
ATOM     19  C   UNL     1       6.253   6.030  16.041  0.00  0.00    +0.000 C 
BRANCH  19  20
ATOM     20  C   UNL     1       7.181   6.433  17.188  0.00  0.00    +0.000 C 
BRANCH  20  21
ATOM     21  O   UNL     1       7.510   7.802  17.066  0.00  0.00    +0.000 OA
BRANCH  21  22
ATOM     22  C   UNL     1       8.238   8.215  18.203  0.00  0.00    +0.000 C 
BRANCH  22  23
ATOM     23  C   UNL     1       8.529   9.709  18.101  0.00  0.00    +0.000 C 
BRANCH  23  24
ATOM     24  O   UNL     1       9.314  10.102  19.205  0.00  0.00    +0.000 OA
BRANCH  24  25
ATOM     25  C   UNL     1       9.713  11.446  19.045  0.00  0.00    +0.000 C 
BRANCH  25  26
ATOM     26  C   UNL     1      10.359  11.603  17.671  0.00  0.00    +0.000 C 
BRANCH  26  27
ATOM     27  N   UNL     1      11.813  11.618  17.788  0.00  0.00    +0.000 NA
ATOM     28  H   UNL     1      12.195  12.407  17.215  0.00  0.00    +0.000 HD
ATOM     29  H   UNL     1      12.185  10.727  17.387  0.00  0.00    +0.000 HD
ENDBRANCH  26  27
ENDBRANCH  25  26
ENDBRANCH  24  25
ENDBRANCH  23  24
ENDBRANCH  22  23
ENDBRANCH  21  22
ENDBRANCH  20  21
ENDBRANCH  19  20
ENDBRANCH   4  19
BRANCH   7  30
ATOM     30  C   UNL     1       4.107   3.060  19.801  0.00  0.00    +0.000 C 
BRANCH  30  31
ATOM     31  C   UNL     1       2.786   2.294  19.594  0.00  0.00    +0.000 C 
ATOM     32  C   UNL     1       2.134   2.574  18.234  0.00  0.00    +0.000 C 
ATOM     33  C   UNL     1       0.730   2.181  18.559  0.00  0.00    +0.000 C 
ATOM     34  C   UNL     1       0.608   2.838  19.921  0.00  0.00    +0.000 C 
ATOM     35  O   UNL     1       1.839   2.643  20.591  0.00  0.00    +0.000 OA
ENDBRANCH  30  31
ENDBRANCH   7  30
TORSDOF 13
ENDMDL
MODEL 4
REMARK VINA RESULT:      -6.7      2.935      3.819
REMARK  Name = 
REMARK  14 active torsions:
REMARK  status: ('A' for Active; 'I' for Inactive)
REMARK    1  A    between atoms: C_1  and  O_2
REMARK    2  A    between atoms: O_2  and  C_3
REMARK    3  A    between atoms: C_6  and  C_7
REMARK    4  A    between atoms: N_10  and  C_11
REMARK    5  A    between atoms: C_11  and  C_12
REMARK    6  A    between atoms: C_12  and  O_13
REMARK    7  A    between atoms: O_13  and  C_14
REMARK    8  A    between atoms: C_14  and  C_15
REMARK    9  A    between atoms: C_15  and  O_16
REMARK   10  A    between atoms: O_16  and  C_17
REMARK   11  A    between atoms: C_17  and  C_18
REMARK   12  A    between atoms: C_18  and  N_19
REMARK   13  A    between atoms: N_22  and  C_23
REMARK   14  A    between atoms: C_23  and  C_24
REMARK                            x       y       z     vdW  Elec       q    Type
REMARK                         _______ _______ _______ _____ _____    ______ ____
ROOT
ATOM      1  C   UNL     1       2.676   7.561  18.756  0.00  0.00    +0.000 A 
ATOM      2  N   UNL     1       3.378   7.541  17.593  0.00  0.00    +0.000 NA
ATOM      3  C   UNL     1       4.240   6.526  17.334  0.00  0.00    +0.000 A 
ATOM      4  N   UNL     1       4.975   6.519  16.124  0.00  0.00    +0.000 N 
ATOM      5  N   UNL     1       4.381   5.514  18.233  0.00  0.00    +0.000 NA
ATOM      6  C   UNL     1       3.686   5.534  19.398  0.00  0.00    +0.000 A 
ATOM      7  N   UNL     1       3.773   4.474  20.329  0.00  0.00    +0.000 N 
ATOM      8  N   UNL     1       2.841   6.558  19.652  0.00  0.00    +0.000 NA
ATOM      9  H   UNL     1       4.665   7.128  15.349  0.00  0.00    +0.000 HD
ATOM     10  H   UNL     1       3.467   4.645  21.299  0.00  0.00    +0.000 HD
ENDROOT
BRANCH   1  14
ATOM     11  C   UNL     1      -0.337  10.504  19.562  0.00  0.00    +0.000 A 
ATOM     12  C   UNL     1       0.124   9.646  20.575  0.00  0.00    +0.000 A 
ATOM     13  C   UNL     1       1.124   8.718  20.308  0.00  0.00    +0.000 A 
ATOM     14  C   UNL     1       1.672   8.607  19.019  0.00  0.00    +0.000 A 
ATOM     15  C   UNL     1       1.225   9.470  18.008  0.00  0.00    +0.000 A 
ATOM     16  C   UNL     1       0.237  10.421  18.284  0.00  0.00    +0.000 A 
BRANCH  11  18
ATOM     17  C   UNL     1      -2.381  11.647  18.903  0.00  0.00    +0.000 C 
ATOM     18  O   UNL     1      -1.339  11.394  19.774  0.00  0.00    +0.000 OA
ENDBRANCH  11  18
ENDBRANCH   1  14
BRANCH   4  19
ATOM     19  C   UNL     1       6.227   5.799  15.983  0.00  0.00    +0.000 C 
BRANCH  19  20
ATOM     20  C   UNL     1       7.154   6.208  17.129  0.00  0.00    +0.000 C 
BRANCH  20  21
ATOM     21  O   UNL     1       7.525   7.563  16.971  0.00  0.00    +0.000 OA
BRANCH  21  22
ATOM     22  C   UNL     1       8.145   8.022  18.153  0.00  0.00    +0.000 C 
BRANCH  22  23
ATOM     23  C   UNL     1       8.380   9.525  18.049  0.00  0.00    +0.000 C 
BRANCH  23  24
ATOM     24  O   UNL     1       9.148   9.950  19.153  0.00  0.00    +0.000 OA
BRANCH  24  25
ATOM     25  C   UNL     1       9.650  11.245  18.908  0.00  0.00    +0.000 C 
BRANCH  25  26
ATOM     26  C   UNL     1       9.366  12.118  20.128  0.00  0.00    +0.000 C 
BRANCH  26  27
ATOM     27  N   UNL     1      10.270  11.777  21.222  0.00  0.00    +0.000 NA
ATOM     28  H   UNL     1       9.749  11.837  22.128  0.00  0.00    +0.000 HD
ATOM     29  H   UNL     1      11.036  12.488  21.250  0.00  0.00    +0.000 HD
ENDBRANCH  26  27
ENDBRANCH  25  26
ENDBRANCH  24  25
ENDBRANCH  23  24
ENDBRANCH  22  23
ENDBRANCH  21  22
ENDBRANCH  20  21
ENDBRANCH  19  20
ENDBRANCH   4  19
BRANCH   7  30
ATOM     30  C   UNL     1       4.031   3.110  19.920  0.00  0.00    +0.000 C 
BRANCH  30  31
ATOM     31  C   UNL     1       2.690   2.363  19.775  0.00  0.00    +0.000 C 
ATOM     32  C   UNL     1       2.087   2.476  18.369  0.00  0.00    +0.000 C 
ATOM     33  C   UNL     1       0.662   2.175  18.697  0.00  0.00    +0.000 C 
ATOM     34  C   UNL     1       0.524   3.015  19.953  0.00  0.00    +0.000 C 
ATOM     35  O   UNL     1       1.727   2.874  20.684  0.00  0.00    +0.000 OA
ENDBRANCH  30  31
ENDBRANCH   7  30
TORSDOF 13
ENDMDL
MODEL 5
REMARK VINA RESULT:      -6.6      2.605      4.833
REMARK  Name = 
REMARK  14 active torsions:
REMARK  status: ('A' for Active; 'I' for Inactive)
REMARK    1  A    between atoms: C_1  and  O_2
REMARK    2  A    between atoms: O_2  and  C_3
REMARK    3  A    between atoms: C_6  and  C_7
REMARK    4  A    between atoms: N_10  and  C_11
REMARK    5  A    between atoms: C_11  and  C_12
REMARK    6  A    between atoms: C_12  and  O_13
REMARK    7  A    between atoms: O_13  and  C_14
REMARK    8  A    between atoms: C_14  and  C_15
REMARK    9  A    between atoms: C_15  and  O_16
REMARK   10  A    between atoms: O_16  and  C_17
REMARK   11  A    between atoms: C_17  and  C_18
REMARK   12  A    between atoms: C_18  and  N_19
REMARK   13  A    between atoms: N_22  and  C_23
REMARK   14  A    between atoms: C_23  and  C_24
REMARK                            x       y       z     vdW  Elec       q    Type
REMARK                         _______ _______ _______ _____ _____    ______ ____
ROOT
ATOM      1  C   UNL     1       1.901   8.647  18.718  0.00  0.00    +0.000 A 
ATOM      2  N   UNL     1       1.660   7.859  19.797  0.00  0.00    +0.000 NA
ATOM      3  C   UNL     1       2.341   6.696  19.959  0.00  0.00    +0.000 A 
ATOM      4  N   UNL     1       2.074   5.876  21.081  0.00  0.00    +0.000 N 
ATOM      5  N   UNL     1       3.283   6.334  19.047  0.00  0.00    +0.000 NA
ATOM      6  C   UNL     1       3.523   7.117  17.964  0.00  0.00    +0.000 A 
ATOM      7  N   UNL     1       4.529   6.793  17.026  0.00  0.00    +0.000 N 
ATOM      8  N   UNL     1       2.828   8.265  17.807  0.00  0.00    +0.000 NA
ATOM      9  H   UNL     1       1.571   6.281  21.886  0.00  0.00    +0.000 HD
ATOM     10  H   UNL     1       4.496   7.237  16.096  0.00  0.00    +0.000 HD
ENDROOT
BRANCH   1  14
ATOM     11  C   UNL     1       0.028  12.492  18.404  0.00  0.00    +0.000 A 
ATOM     12  C   UNL     1       1.427  12.373  18.459  0.00  0.00    +0.000 A 
ATOM     13  C   UNL     1       2.023  11.118  18.529  0.00  0.00    +0.000 A 
ATOM     14  C   UNL     1       1.237   9.954  18.568  0.00  0.00    +0.000 A 
ATOM     15  C   UNL     1      -0.159  10.067  18.499  0.00  0.00    +0.000 A 
ATOM     16  C   UNL     1      -0.757  11.328  18.403  0.00  0.00    +0.000 A 
BRANCH  11  18
ATOM     17  C   UNL     1      -0.028  14.894  18.781  0.00  0.00    +0.000 C 
ATOM     18  O   UNL     1      -0.590  13.700  18.376  0.00  0.00    +0.000 OA
ENDBRANCH  11  18
ENDBRANCH   1  14
BRANCH   4  19
ATOM     19  C   UNL     1       2.355   4.452  21.083  0.00  0.00    +0.000 C 
BRANCH  19  20
ATOM     20  C   UNL     1       1.038   3.696  20.895  0.00  0.00    +0.000 C 
BRANCH  20  21
ATOM     21  O   UNL     1       1.280   2.506  20.170  0.00  0.00    +0.000 OA
BRANCH  21  22
ATOM     22  C   UNL     1       0.795   2.651  18.852  0.00  0.00    +0.000 C 
BRANCH  22  23
ATOM     23  C   UNL     1       1.974   2.774  17.893  0.00  0.00    +0.000 C 
BRANCH  23  24
ATOM     24  O   UNL     1       2.788   1.628  18.013  0.00  0.00    +0.000 OA
BRANCH  24  25
ATOM     25  C   UNL     1       4.144   1.998  17.891  0.00  0.00    +0.000 C 
BRANCH  25  26
ATOM     26  C   UNL     1       4.552   2.780  19.138  0.00  0.00    +0.000 C 
BRANCH  26  27
ATOM     27  N   UNL     1       5.045   1.873  20.170  0.00  0.00    +0.000 NA
ATOM     28  H   UNL     1       5.209   2.414  21.051  0.00  0.00    +0.000 HD
ATOM     29  H   UNL     1       5.966   1.489  19.858  0.00  0.00    +0.000 HD
ENDBRANCH  26  27
ENDBRANCH  25  26
ENDBRANCH  24  25
ENDBRANCH  23  24
ENDBRANCH  22  23
ENDBRANCH  21  22
ENDBRANCH  20  21
ENDBRANCH  19  20
ENDBRANCH   4  19
BRANCH   7  30
ATOM     30  C   UNL     1       5.728   6.073  17.401  0.00  0.00    +0.000 C 
BRANCH  30  31
ATOM     31  C   UNL     1       5.934   4.894  16.429  0.00  0.00    +0.000 C 
ATOM     32  C   UNL     1       7.081   5.125  15.437  0.00  0.00    +0.000 C 
ATOM     33  C   UNL     1       6.673   4.158  14.375  0.00  0.00    +0.000 C 
ATOM     34  C   UNL     1       5.188   4.464  14.330  0.00  0.00    +0.000 C 
ATOM     35  O   UNL     1       4.761   4.660  15.665  0.00  0.00    +0.000 OA
ENDBRANCH  30  31
ENDBRANCH   7  30
TORSDOF 13
ENDMDL
MODEL 6
REMARK VINA RESULT:      -6.5      0.872      1.398
REMARK  Name = 
REMARK  14 active torsions:
REMARK  status: ('A' for Active; 'I' for Inactive)
REMARK    1  A    between atoms: C_1  and  O_2
REMARK    2  A    between atoms: O_2  and  C_3
REMARK    3  A    between atoms: C_6  and  C_7
REMARK    4  A    between atoms: N_10  and  C_11
REMARK    5  A    between atoms: C_11  and  C_12
REMARK    6  A    between atoms: C_12  and  O_13
REMARK    7  A    between atoms: O_13  and  C_14
REMARK    8  A    between atoms: C_14  and  C_15
REMARK    9  A    between atoms: C_15  and  O_16
REMARK   10  A    between atoms: O_16  and  C_17
REMARK   11  A    between atoms: C_17  and  C_18
REMARK   12  A    between atoms: C_18  and  N_19
REMARK   13  A    between atoms: N_22  and  C_23
REMARK   14  A    between atoms: C_23  and  C_24
REMARK                            x       y       z     vdW  Elec       q    Type
REMARK                         _______ _______ _______ _____ _____    ______ ____
ROOT
ATOM      1  C   UNL     1       1.346   8.146  20.620  0.00  0.00    +0.000 A 
ATOM      2  N   UNL     1       2.087   8.330  19.497  0.00  0.00    +0.000 NA
ATOM      3  C   UNL     1       2.620   7.263  18.849  0.00  0.00    +0.000 A 
ATOM      4  N   UNL     1       3.401   7.466  17.686  0.00  0.00    +0.000 N 
ATOM      5  N   UNL     1       2.390   6.006  19.316  0.00  0.00    +0.000 NA
ATOM      6  C   UNL     1       1.654   5.819  20.441  0.00  0.00    +0.000 A 
ATOM      7  N   UNL     1       1.356   4.524  20.922  0.00  0.00    +0.000 N 
ATOM      8  N   UNL     1       1.140   6.890  21.086  0.00  0.00    +0.000 NA
ATOM      9  H   UNL     1       3.341   8.374  17.198  0.00  0.00    +0.000 HD
ATOM     10  H   UNL     1       1.049   4.422  21.902  0.00  0.00    +0.000 HD
ENDROOT
BRANCH   1  14
ATOM     11  C   UNL     1      -0.697  11.377  22.564  0.00  0.00    +0.000 A 
ATOM     12  C   UNL     1      -0.650  10.098  23.146  0.00  0.00    +0.000 A 
ATOM     13  C   UNL     1       0.043   9.067  22.520  0.00  0.00    +0.000 A 
ATOM     14  C   UNL     1       0.686   9.280  21.289  0.00  0.00    +0.000 A 
ATOM     15  C   UNL     1       0.654  10.558  20.712  0.00  0.00    +0.000 A 
ATOM     16  C   UNL     1      -0.022  11.602  21.354  0.00  0.00    +0.000 A 
BRANCH  11  18
ATOM     17  C   UNL     1      -1.841  13.520  22.457  0.00  0.00    +0.000 C 
ATOM     18  O   UNL     1      -1.396  12.396  23.124  0.00  0.00    +0.000 OA
ENDBRANCH  11  18
ENDBRANCH   1  14
BRANCH   4  19
ATOM     19  C   UNL     1       4.386   6.500  17.237  0.00  0.00    +0.000 C 
BRANCH  19  20
ATOM     20  C   UNL     1       4.823   6.874  15.820  0.00  0.00    +0.000 C 
BRANCH  20  21
ATOM     21  O   UNL     1       5.407   5.747  15.197  0.00  0.00    +0.000 OA
BRANCH  21  22
ATOM     22  C   UNL     1       6.763   5.648  15.577  0.00  0.00    +0.000 C 
BRANCH  22  23
ATOM     23  C   UNL     1       6.998   4.307  16.264  0.00  0.00    +0.000 C 
BRANCH  23  24
ATOM     24  O   UNL     1       7.971   4.470  17.272  0.00  0.00    +0.000 OA
BRANCH  24  25
ATOM     25  C   UNL     1       7.690   5.637  18.014  0.00  0.00    +0.000 C 
BRANCH  25  26
ATOM     26  C   UNL     1       7.102   5.229  19.362  0.00  0.00    +0.000 C 
BRANCH  26  27
ATOM     27  N   UNL     1       8.087   5.408  20.424  0.00  0.00    +0.000 NA
ATOM     28  H   UNL     1       8.986   4.956  20.137  0.00  0.00    +0.000 HD
ATOM     29  H   UNL     1       7.743   4.913  21.279  0.00  0.00    +0.000 HD
ENDBRANCH  26  27
ENDBRANCH  25  26
ENDBRANCH  24  25
ENDBRANCH  23  24
ENDBRANCH  22  23
ENDBRANCH  21  22
ENDBRANCH  20  21
ENDBRANCH  19  20
ENDBRANCH   4  19
BRANCH   7  30
ATOM     30  C   UNL     1       1.220   3.386  20.037  0.00  0.00    +0.000 C 
BRANCH  30  31
ATOM     31  C   UNL     1       2.530   3.202  19.246  0.00  0.00    +0.000 C 
ATOM     32  C   UNL     1       2.301   2.985  17.745  0.00  0.00    +0.000 C 
ATOM     33  C   UNL     1       3.594   2.322  17.401  0.00  0.00    +0.000 C 
ATOM     34  C   UNL     1       3.698   1.374  18.581  0.00  0.00    +0.000 C 
ATOM     35  O   UNL     1       3.255   2.080  19.724  0.00  0.00    +0.000 OA
ENDBRANCH  30  31
ENDBRANCH   7  30
TORSDOF 13
ENDMDL
MODEL 7
REMARK VINA RESULT:      -6.5      3.231      9.999
REMARK  Name = 
REMARK  14 active torsions:
REMARK  status: ('A' for Active; 'I' for Inactive)
REMARK    1  A    between atoms: C_1  and  O_2
REMARK    2  A    between atoms: O_2  and  C_3
REMARK    3  A    between atoms: C_6  and  C_7
REMARK    4  A    between atoms: N_10  and  C_11
REMARK    5  A    between atoms: C_11  and  C_12
REMARK    6  A    between atoms: C_12  and  O_13
REMARK    7  A    between atoms: O_13  and  C_14
REMARK    8  A    between atoms: C_14  and  C_15
REMARK    9  A    between atoms: C_15  and  O_16
REMARK   10  A    between atoms: O_16  and  C_17
REMARK   11  A    between atoms: C_17  and  C_18
REMARK   12  A    between atoms: C_18  and  N_19
REMARK   13  A    between atoms: N_22  and  C_23
REMARK   14  A    between atoms: C_23  and  C_24
REMARK                            x       y       z     vdW  Elec       q    Type
REMARK                         _______ _______ _______ _____ _____    ______ ____
ROOT
ATOM      1  C   UNL     1       2.596   7.479  18.589  0.00  0.00    +0.000 A 
ATOM      2  N   UNL     1       2.378   7.383  19.926  0.00  0.00    +0.000 NA
ATOM      3  C   UNL     1       1.593   8.292  20.557  0.00  0.00    +0.000 A 
ATOM      4  N   UNL     1       1.381   8.190  21.953  0.00  0.00    +0.000 N 
ATOM      5  N   UNL     1       1.004   9.288  19.841  0.00  0.00    +0.000 NA
ATOM      6  C   UNL     1       1.224   9.391  18.506  0.00  0.00    +0.000 A 
ATOM      7  N   UNL     1       0.588  10.383  17.726  0.00  0.00    +0.000 N 
ATOM      8  N   UNL     1       2.020   8.487  17.891  0.00  0.00    +0.000 NA
ATOM      9  H   UNL     1       1.600   7.299  22.427  0.00  0.00    +0.000 HD
ATOM     10  H   UNL     1       0.982  10.608  16.799  0.00  0.00    +0.000 HD
ENDROOT
BRANCH   1  14
ATOM     11  C   UNL     1       4.825   4.561  16.375  0.00  0.00    +0.000 A 
ATOM     12  C   UNL     1       5.159   5.924  16.313  0.00  0.00    +0.000 A 
ATOM     13  C   UNL     1       4.448   6.857  17.060  0.00  0.00    +0.000 A 
ATOM     14  C   UNL     1       3.372   6.455  17.870  0.00  0.00    +0.000 A 
ATOM     15  C   UNL     1       3.044   5.093  17.947  0.00  0.00    +0.000 A 
ATOM     16  C   UNL     1       3.776   4.153  17.214  0.00  0.00    +0.000 A 
BRANCH  11  18
ATOM     17  C   UNL     1       6.184   3.882  14.476  0.00  0.00    +0.000 C 
ATOM     18  O   UNL     1       5.469   3.628  15.629  0.00  0.00    +0.000 OA
ENDBRANCH  11  18
ENDBRANCH   1  14
BRANCH   4  19
ATOM     19  C   UNL     1       1.004   9.333  22.764  0.00  0.00    +0.000 C 
BRANCH  19  20
ATOM     20  C   UNL     1      -0.522   9.400  22.831  0.00  0.00    +0.000 C 
BRANCH  20  21
ATOM     21  O   UNL     1      -0.968  10.579  22.191  0.00  0.00    +0.000 OA
BRANCH  21  22
ATOM     22  C   UNL     1      -1.339  11.532  23.165  0.00  0.00    +0.000 C 
BRANCH  22  23
ATOM     23  C   UNL     1      -2.687  12.138  22.789  0.00  0.00    +0.000 C 
BRANCH  23  24
ATOM     24  O   UNL     1      -3.444  12.341  23.963  0.00  0.00    +0.000 OA
BRANCH  24  25
ATOM     25  C   UNL     1      -4.720  12.835  23.621  0.00  0.00    +0.000 C 
BRANCH  25  26
ATOM     26  C   UNL     1      -4.860  12.818  22.100  0.00  0.00    +0.000 C 
BRANCH  26  27
ATOM     27  N   UNL     1      -6.118  12.190  21.709  0.00  0.00    +0.000 NA
ATOM     28  H   UNL     1      -6.336  11.414  22.377  0.00  0.00    +0.000 HD
ATOM     29  H   UNL     1      -5.994  11.767  20.761  0.00  0.00    +0.000 HD
ENDBRANCH  26  27
ENDBRANCH  25  26
ENDBRANCH  24  25
ENDBRANCH  23  24
ENDBRANCH  22  23
ENDBRANCH  21  22
ENDBRANCH  20  21
ENDBRANCH  19  20
ENDBRANCH   4  19
BRANCH   7  30
ATOM     30  C   UNL     1      -0.719  10.906  18.062  0.00  0.00    +0.000 C 
BRANCH  30  31
ATOM     31  C   UNL     1      -1.787  10.170  17.229  0.00  0.00    +0.000 C 
ATOM     32  C   UNL     1      -2.469  11.072  16.192  0.00  0.00    +0.000 C 
ATOM     33  C   UNL     1      -3.724  10.289  15.987  0.00  0.00    +0.000 C 
ATOM     34  C   UNL     1      -4.037   9.955  17.433  0.00  0.00    +0.000 C 
ATOM     35  O   UNL     1      -2.809   9.650  18.066  0.00  0.00    +0.000 OA
ENDBRANCH  30  31
ENDBRANCH   7  30
TORSDOF 13
ENDMDL
MODEL 8
REMARK VINA RESULT:      -6.5      4.165      9.548
REMARK  Name = 
REMARK  14 active torsions:
REMARK  status: ('A' for Active; 'I' for Inactive)
REMARK    1  A    between atoms: C_1  and  O_2
REMARK    2  A    between atoms: O_2  and  C_3
REMARK    3  A    between atoms: C_6  and  C_7
REMARK    4  A    between atoms: N_10  and  C_11
REMARK    5  A    between atoms: C_11  and  C_12
REMARK    6  A    between atoms: C_12  and  O_13
REMARK    7  A    between atoms: O_13  and  C_14
REMARK    8  A    between atoms: C_14  and  C_15
REMARK    9  A    between atoms: C_15  and  O_16
REMARK   10  A    between atoms: O_16  and  C_17
REMARK   11  A    between atoms: C_17  and  C_18
REMARK   12  A    between atoms: C_18  and  N_19
REMARK   13  A    between atoms: N_22  and  C_23
REMARK   14  A    between atoms: C_23  and  C_24
REMARK                            x       y       z     vdW  Elec       q    Type
REMARK                         _______ _______ _______ _____ _____    ______ ____
ROOT
ATOM      1  C   UNL     1       6.033   5.477  15.555  0.00  0.00    +0.000 A 
ATOM      2  N   UNL     1       4.859   5.425  16.237  0.00  0.00    +0.000 NA
ATOM      3  C   UNL     1       4.674   6.199  17.336  0.00  0.00    +0.000 A 
ATOM      4  N   UNL     1       3.452   6.130  18.046  0.00  0.00    +0.000 N 
ATOM      5  N   UNL     1       5.660   7.046  17.739  0.00  0.00    +0.000 NA
ATOM      6  C   UNL     1       6.836   7.096  17.063  0.00  0.00    +0.000 A 
ATOM      7  N   UNL     1       7.859   8.000  17.426  0.00  0.00    +0.000 N 
ATOM      8  N   UNL     1       7.014   6.310  15.978  0.00  0.00    +0.000 NA
ATOM      9  H   UNL     1       2.632   5.702  17.587  0.00  0.00    +0.000 HD
ATOM     10  H   UNL     1       8.817   7.823  17.086  0.00  0.00    +0.000 HD
ENDROOT
BRANCH   1  14
ATOM     11  C   UNL     1       6.574   3.128  12.008  0.00  0.00    +0.000 A 
ATOM     12  C   UNL     1       5.400   3.020  12.774  0.00  0.00    +0.000 A 
ATOM     13  C   UNL     1       5.224   3.810  13.904  0.00  0.00    +0.000 A 
ATOM     14  C   UNL     1       6.223   4.711  14.311  0.00  0.00    +0.000 A 
ATOM     15  C   UNL     1       7.389   4.833  13.542  0.00  0.00    +0.000 A 
ATOM     16  C   UNL     1       7.555   4.055  12.390  0.00  0.00    +0.000 A 
BRANCH  11  18
ATOM     17  C   UNL     1       6.544   0.990  10.849  0.00  0.00    +0.000 C 
ATOM     18  O   UNL     1       6.799   2.345  10.923  0.00  0.00    +0.000 OA
ENDBRANCH  11  18
ENDBRANCH   1  14
BRANCH   4  19
ATOM     19  C   UNL     1       3.347   6.506  19.444  0.00  0.00    +0.000 C 
BRANCH  19  20
ATOM     20  C   UNL     1       2.486   5.467  20.164  0.00  0.00    +0.000 C 
BRANCH  20  21
ATOM     21  O   UNL     1       1.729   4.745  19.213  0.00  0.00    +0.000 OA
BRANCH  21  22
ATOM     22  C   UNL     1       0.981   3.744  19.869  0.00  0.00    +0.000 C 
BRANCH  22  23
ATOM     23  C   UNL     1       1.522   2.372  19.480  0.00  0.00    +0.000 C 
BRANCH  23  24
ATOM     24  O   UNL     1       2.278   2.495  18.295  0.00  0.00    +0.000 OA
BRANCH  24  25
ATOM     25  C   UNL     1       3.465   1.742  18.414  0.00  0.00    +0.000 C 
BRANCH  25  26
ATOM     26  C   UNL     1       4.325   2.356  19.516  0.00  0.00    +0.000 C 
BRANCH  26  27
ATOM     27  N   UNL     1       5.233   3.354  18.960  0.00  0.00    +0.000 NA
ATOM     28  H   UNL     1       5.719   2.949  18.126  0.00  0.00    +0.000 HD
ATOM     29  H   UNL     1       5.963   3.571  19.676  0.00  0.00    +0.000 HD
ENDBRANCH  26  27
ENDBRANCH  25  26
ENDBRANCH  24  25
ENDBRANCH  23  24
ENDBRANCH  22  23
ENDBRANCH  21  22
ENDBRANCH  20  21
ENDBRANCH  19  20
ENDBRANCH   4  19
BRANCH   7  30
ATOM     30  C   UNL     1       7.573   9.283  18.035  0.00  0.00    +0.000 C 
BRANCH  30  31
ATOM     31  C   UNL     1       8.883  10.086  18.160  0.00  0.00    +0.000 C 
ATOM     32  C   UNL     1       9.409  10.161  19.599  0.00  0.00    +0.000 C 
ATOM     33  C   UNL     1      10.271  11.373  19.473  0.00  0.00    +0.000 C 
ATOM     34  C   UNL     1       9.333  12.252  18.667  0.00  0.00    +0.000 C 
ATOM     35  O   UNL     1       8.700  11.421  17.712  0.00  0.00    +0.000 OA
ENDBRANCH  30  31
ENDBRANCH   7  30
TORSDOF 13
ENDMDL
MODEL 9
REMARK VINA RESULT:      -6.5      1.866      4.550
REMARK  Name = 
REMARK  14 active torsions:
REMARK  status: ('A' for Active; 'I' for Inactive)
REMARK    1  A    between atoms: C_1  and  O_2
REMARK    2  A    between atoms: O_2  and  C_3
REMARK    3  A    between atoms: C_6  and  C_7
REMARK    4  A    between atoms: N_10  and  C_11
REMARK    5  A    between atoms: C_11  and  C_12
REMARK    6  A    between atoms: C_12  and  O_13
REMARK    7  A    between atoms: O_13  and  C_14
REMARK    8  A    between atoms: C_14  and  C_15
REMARK    9  A    between atoms: C_15  and  O_16
REMARK   10  A    between atoms: O_16  and  C_17
REMARK   11  A    between atoms: C_17  and  C_18
REMARK   12  A    between atoms: C_18  and  N_19
REMARK   13  A    between atoms: N_22  and  C_23
REMARK   14  A    between atoms: C_23  and  C_24
REMARK                            x       y       z     vdW  Elec       q    Type
REMARK                         _______ _______ _______ _____ _____    ______ ____
ROOT
ATOM      1  C   UNL     1       1.450   8.510  19.664  0.00  0.00    +0.000 A 
ATOM      2  N   UNL     1       1.485   7.500  20.572  0.00  0.00    +0.000 NA
ATOM      3  C   UNL     1       2.288   6.425  20.366  0.00  0.00    +0.000 A 
ATOM      4  N   UNL     1       2.309   5.372  21.312  0.00  0.00    +0.000 N 
ATOM      5  N   UNL     1       3.077   6.374  19.258  0.00  0.00    +0.000 NA
ATOM      6  C   UNL     1       3.040   7.380  18.347  0.00  0.00    +0.000 A 
ATOM      7  N   UNL     1       3.883   7.380  17.212  0.00  0.00    +0.000 N 
ATOM      8  N   UNL     1       2.226   8.438  18.555  0.00  0.00    +0.000 NA
ATOM      9  H   UNL     1       1.927   5.542  22.256  0.00  0.00    +0.000 HD
ATOM     10  H   UNL     1       3.638   7.991  16.418  0.00  0.00    +0.000 HD
ENDROOT
BRANCH   1  14
ATOM     11  C   UNL     1      -0.825  12.097  20.257  0.00  0.00    +0.000 A 
ATOM     12  C   UNL     1      -1.047  11.277  19.136  0.00  0.00    +0.000 A 
ATOM     13  C   UNL     1      -0.324  10.100  18.973  0.00  0.00    +0.000 A 
ATOM     14  C   UNL     1       0.653   9.724  19.910  0.00  0.00    +0.000 A 
ATOM     15  C   UNL     1       0.868  10.531  21.037  0.00  0.00    +0.000 A 
ATOM     16  C   UNL     1       0.123  11.702  21.214  0.00  0.00    +0.000 A 
BRANCH  11  18
ATOM     17  C   UNL     1      -2.842  13.406  20.617  0.00  0.00    +0.000 C 
ATOM     18  O   UNL     1      -1.481  13.272  20.429  0.00  0.00    +0.000 OA
ENDBRANCH  11  18
ENDBRANCH   1  14
BRANCH   4  19
ATOM     19  C   UNL     1       2.715   4.024  20.959  0.00  0.00    +0.000 C 
BRANCH  19  20
ATOM     20  C   UNL     1       1.499   3.104  21.076  0.00  0.00    +0.000 C 
BRANCH  20  21
ATOM     21  O   UNL     1       0.521   3.498  20.134  0.00  0.00    +0.000 OA
BRANCH  21  22
ATOM     22  C   UNL     1       0.741   2.820  18.916  0.00  0.00    +0.000 C 
BRANCH  22  23
ATOM     23  C   UNL     1       1.221   3.815  17.864  0.00  0.00    +0.000 C 
BRANCH  23  24
ATOM     24  O   UNL     1       2.167   3.183  17.030  0.00  0.00    +0.000 OA
BRANCH  24  25
ATOM     25  C   UNL     1       2.664   2.028  17.671  0.00  0.00    +0.000 C 
BRANCH  25  26
ATOM     26  C   UNL     1       4.095   2.303  18.131  0.00  0.00    +0.000 C 
BRANCH  26  27
ATOM     27  N   UNL     1       4.461   1.407  19.223  0.00  0.00    +0.000 NA
ATOM     28  H   UNL     1       5.460   1.116  19.107  0.00  0.00    +0.000 HD
ATOM     29  H   UNL     1       3.871   0.546  19.155  0.00  0.00    +0.000 HD
ENDBRANCH  26  27
ENDBRANCH  25  26
ENDBRANCH  24  25
ENDBRANCH  23  24
ENDBRANCH  22  23
ENDBRANCH  21  22
ENDBRANCH  20  21
ENDBRANCH  19  20
ENDBRANCH   4  19
BRANCH   7  30
ATOM     30  C   UNL     1       5.191   6.760  17.225  0.00  0.00    +0.000 C 
BRANCH  30  31
ATOM     31  C   UNL     1       5.184   5.547  16.274  0.00  0.00    +0.000 C 
ATOM     32  C   UNL     1       6.172   4.449  16.690  0.00  0.00    +0.000 C 
ATOM     33  C   UNL     1       6.326   3.758  15.375  0.00  0.00    +0.000 C 
ATOM     34  C   UNL     1       6.449   4.975  14.478  0.00  0.00    +0.000 C 
ATOM     35  O   UNL     1       5.528   5.939  14.954  0.00  0.00    +0.000 OA
ENDBRANCH  30  31
ENDBRANCH   7  30
TORSDOF 13
ENDMDL
