MODEL 1
REMARK VINA RESULT:      -7.3      0.000      0.000
REMARK  Name = 
REMARK  6 active torsions:
REMARK  status: ('A' for Active; 'I' for Inactive)
REMARK    1  A    between atoms: C_2  and  C_3
REMARK    2  A    between atoms: C_3  and  N_4
REMARK    3  A    between atoms: C_5  and  C_7
REMARK    4  A    between atoms: C_7  and  N_8
REMARK    5  A    between atoms: N_8  and  S_9
REMARK    6  A    between atoms: S_9  and  C_12
REMARK                            x       y       z     vdW  Elec       q    Type
REMARK                         _______ _______ _______ _____ _____    ______ ____
ROOT
ATOM      1  N   UNL     1       6.079   3.903  16.793  0.00  0.00    +0.000 NA
ATOM      2  H   UNL     1       6.217   2.926  17.062  0.00  0.00    +0.000 HD
ENDROOT
BRANCH   1   3
ATOM      3  S   UNL     1       5.450   4.743  18.120  0.00  0.00    +0.000 S 
ATOM      4  O   UNL     1       6.328   4.428  19.225  0.00  0.00    +0.000 OA
ATOM      5  O   UNL     1       5.190   6.106  17.719  0.00  0.00    +0.000 OA
BRANCH   3   6
ATOM      6  C   UNL     1       3.897   3.931  18.419  0.00  0.00    +0.000 A 
ATOM      7  C   UNL     1       3.014   4.458  19.369  0.00  0.00    +0.000 A 
ATOM      8  C   UNL     1       1.749   3.885  19.523  0.00  0.00    +0.000 A 
ATOM      9  C   UNL     1       1.380   2.805  18.727  0.00  0.00    +0.000 A 
ATOM     10  F   UNL     1       0.159   2.271  18.866  0.00  0.00    +0.000 F 
ATOM     11  C   UNL     1       2.252   2.281  17.777  0.00  0.00    +0.000 A 
ATOM     12  C   UNL     1       3.518   2.849  17.615  0.00  0.00    +0.000 A 
ENDBRANCH   3   6
ENDBRANCH   1   3
BRANCH   1  13
ATOM     13  C   UNL     1       7.240   4.542  16.136  0.00  0.00    +0.000 C 
BRANCH  13  15
ATOM     14  N   UNL     1       6.385   3.583  14.048  0.00  0.00    +0.000 N 
ATOM     15  C   UNL     1       7.110   4.603  14.624  0.00  0.00    +0.000 C 
ATOM     16  O   UNL     1       7.592   5.531  13.979  0.00  0.00    +0.000 OA
ATOM     17  H   UNL     1       6.035   2.841  14.642  0.00  0.00    +0.000 HD
BRANCH  14  18
ATOM     18  C   UNL     1       6.204   3.495  12.619  0.00  0.00    +0.000 C 
BRANCH  18  20
ATOM     19  C   UNL     1       4.217   3.275  11.109  0.00  0.00    +0.000 C 
ATOM     20  C   UNL     1       4.740   3.477  12.325  0.00  0.00    +0.000 C 
ENDBRANCH  18  20
ENDBRANCH  14  18
ENDBRANCH  13  15
ENDBRANCH   1  13
TORSDOF 6
ENDMDL
MODEL 2
REMARK VINA RESULT:      -7.1      1.044      1.428
REMARK  Name = 
REMARK  6 active torsions:
REMARK  status: ('A' for Active; 'I' for Inactive)
REMARK    1  A    between atoms: C_2  and  C_3
REMARK    2  A    between atoms: C_3  and  N_4
REMARK    3  A    between atoms: C_5  and  C_7
REMARK    4  A    between atoms: C_7  and  N_8
REMARK    5  A    between atoms: N_8  and  S_9
REMARK    6  A    between atoms: S_9  and  C_12
REMARK                            x       y       z     vdW  Elec       q    Type
REMARK                         _______ _______ _______ _____ _____    ______ ____
ROOT
ATOM      1  N   UNL     1       6.026   3.764  16.333  0.00  0.00    +0.000 NA
ATOM      2  H   UNL     1       6.235   2.801  16.606  0.00  0.00    +0.000 HD
ENDROOT
BRANCH   1   3
ATOM      3  S   UNL     1       5.391   4.577  17.674  0.00  0.00    +0.000 S 
ATOM      4  O   UNL     1       6.233   4.199  18.787  0.00  0.00    +0.000 OA
ATOM      5  O   UNL     1       5.180   5.960  17.315  0.00  0.00    +0.000 OA
BRANCH   3   6
ATOM      6  C   UNL     1       3.808   3.803  17.908  0.00  0.00    +0.000 A 
ATOM      7  C   UNL     1       3.747   2.487  18.384  0.00  0.00    +0.000 A 
ATOM      8  C   UNL     1       2.504   1.918  18.674  0.00  0.00    +0.000 A 
ATOM      9  C   UNL     1       1.345   2.667  18.493  0.00  0.00    +0.000 A 
ATOM     10  F   UNL     1       0.157   2.123  18.790  0.00  0.00    +0.000 F 
ATOM     11  C   UNL     1       1.401   3.977  18.026  0.00  0.00    +0.000 A 
ATOM     12  C   UNL     1       2.639   4.554  17.735  0.00  0.00    +0.000 A 
ENDBRANCH   3   6
ENDBRANCH   1   3
BRANCH   1  13
ATOM     13  C   UNL     1       7.122   4.468  15.631  0.00  0.00    +0.000 C 
BRANCH  13  15
ATOM     14  N   UNL     1       6.191   3.466  13.597  0.00  0.00    +0.000 N 
ATOM     15  C   UNL     1       6.945   4.493  14.123  0.00  0.00    +0.000 C 
ATOM     16  O   UNL     1       7.416   5.398  13.439  0.00  0.00    +0.000 OA
ATOM     17  H   UNL     1       5.853   2.743  14.220  0.00  0.00    +0.000 HD
BRANCH  14  18
ATOM     18  C   UNL     1       5.964   3.344  12.177  0.00  0.00    +0.000 C 
BRANCH  18  20
ATOM     19  C   UNL     1       6.486   1.170  11.042  0.00  0.00    +0.000 C 
ATOM     20  C   UNL     1       6.888   2.302  11.636  0.00  0.00    +0.000 C 
ENDBRANCH  18  20
ENDBRANCH  14  18
ENDBRANCH  13  15
ENDBRANCH   1  13
TORSDOF 6
ENDMDL
MODEL 3
REMARK VINA RESULT:      -7.0      1.212      1.279
REMARK  Name = 
REMARK  6 active torsions:
REMARK  status: ('A' for Active; 'I' for Inactive)
REMARK    1  A    between atoms: C_2  and  C_3
REMARK    2  A    between atoms: C_3  and  N_4
REMARK    3  A    between atoms: C_5  and  C_7
REMARK    4  A    between atoms: C_7  and  N_8
REMARK    5  A    between atoms: N_8  and  S_9
REMARK    6  A    between atoms: S_9  and  C_12
REMARK                            x       y       z     vdW  Elec       q    Type
REMARK                         _______ _______ _______ _____ _____    ______ ____
ROOT
ATOM      1  N   UNL     1       6.162   3.914  16.787  0.00  0.00    +0.000 NA
ATOM      2  H   UNL     1       7.169   4.094  16.762  0.00  0.00    +0.000 HD
ENDROOT
BRANCH   1   3
ATOM      3  S   UNL     1       5.485   4.826  18.041  0.00  0.00    +0.000 S 
ATOM      4  O   UNL     1       6.302   4.550  19.202  0.00  0.00    +0.000 OA
ATOM      5  O   UNL     1       5.270   6.173  17.565  0.00  0.00    +0.000 OA
BRANCH   3   6
ATOM      6  C   UNL     1       3.905   4.056  18.299  0.00  0.00    +0.000 A 
ATOM      7  C   UNL     1       2.736   4.735  17.933  0.00  0.00    +0.000 A 
ATOM      8  C   UNL     1       1.504   4.086  18.032  0.00  0.00    +0.000 A 
ATOM      9  C   UNL     1       1.452   2.771  18.487  0.00  0.00    +0.000 A 
ATOM     10  F   UNL     1       0.269   2.147  18.562  0.00  0.00    +0.000 F 
ATOM     11  C   UNL     1       2.611   2.089  18.846  0.00  0.00    +0.000 A 
ATOM     12  C   UNL     1       3.848   2.730  18.749  0.00  0.00    +0.000 A 
ENDBRANCH   3   6
ENDBRANCH   1   3
BRANCH   1  13
ATOM     13  C   UNL     1       5.473   4.028  15.483  0.00  0.00    +0.000 C 
BRANCH  13  15
ATOM     14  N   UNL     1       6.165   3.522  13.187  0.00  0.00    +0.000 N 
ATOM     15  C   UNL     1       6.428   4.256  14.323  0.00  0.00    +0.000 C 
ATOM     16  O   UNL     1       7.341   5.073  14.399  0.00  0.00    +0.000 OA
ATOM     17  H   UNL     1       5.406   2.852  13.206  0.00  0.00    +0.000 HD
BRANCH  14  18
ATOM     18  C   UNL     1       7.005   3.612  12.017  0.00  0.00    +0.000 C 
BRANCH  18  20
ATOM     19  C   UNL     1       6.129   1.442  11.120  0.00  0.00    +0.000 C 
ATOM     20  C   UNL     1       7.155   2.245  11.433  0.00  0.00    +0.000 C 
ENDBRANCH  18  20
ENDBRANCH  14  18
ENDBRANCH  13  15
ENDBRANCH   1  13
TORSDOF 6
ENDMDL
MODEL 4
REMARK VINA RESULT:      -7.0      1.982      2.577
REMARK  Name = 
REMARK  6 active torsions:
REMARK  status: ('A' for Active; 'I' for Inactive)
REMARK    1  A    between atoms: C_2  and  C_3
REMARK    2  A    between atoms: C_3  and  N_4
REMARK    3  A    between atoms: C_5  and  C_7
REMARK    4  A    between atoms: C_7  and  N_8
REMARK    5  A    between atoms: N_8  and  S_9
REMARK    6  A    between atoms: S_9  and  C_12
REMARK                            x       y       z     vdW  Elec       q    Type
REMARK                         _______ _______ _______ _____ _____    ______ ____
ROOT
ATOM      1  N   UNL     1       5.730   4.505  18.943  0.00  0.00    +0.000 NA
ATOM      2  H   UNL     1       5.576   4.663  19.942  0.00  0.00    +0.000 HD
ENDROOT
BRANCH   1   3
ATOM      3  S   UNL     1       4.226   4.332  18.187  0.00  0.00    +0.000 S 
ATOM      4  O   UNL     1       3.837   5.669  17.795  0.00  0.00    +0.000 OA
ATOM      5  O   UNL     1       4.314   3.254  17.231  0.00  0.00    +0.000 OA
BRANCH   3   6
ATOM      6  C   UNL     1       3.158   3.829  19.515  0.00  0.00    +0.000 A 
ATOM      7  C   UNL     1       1.813   4.221  19.507  0.00  0.00    +0.000 A 
ATOM      8  C   UNL     1       0.949   3.733  20.490  0.00  0.00    +0.000 A 
ATOM      9  C   UNL     1       1.432   2.860  21.460  0.00  0.00    +0.000 A 
ATOM     10  F   UNL     1       0.595   2.381  22.390  0.00  0.00    +0.000 F 
ATOM     11  C   UNL     1       2.766   2.463  21.470  0.00  0.00    +0.000 A 
ATOM     12  C   UNL     1       3.637   2.943  20.490  0.00  0.00    +0.000 A 
ENDBRANCH   3   6
ENDBRANCH   1   3
BRANCH   1  13
ATOM     13  C   UNL     1       6.654   5.460  18.293  0.00  0.00    +0.000 C 
BRANCH  13  15
ATOM     14  N   UNL     1       6.580   5.467  15.843  0.00  0.00    +0.000 N 
ATOM     15  C   UNL     1       7.195   4.957  16.966  0.00  0.00    +0.000 C 
ATOM     16  O   UNL     1       8.144   4.179  16.916  0.00  0.00    +0.000 OA
ATOM     17  H   UNL     1       5.789   6.089  15.962  0.00  0.00    +0.000 HD
BRANCH  14  18
ATOM     18  C   UNL     1       6.968   5.057  14.515  0.00  0.00    +0.000 C 
BRANCH  18  20
ATOM     19  C   UNL     1       5.830   3.574  12.845  0.00  0.00    +0.000 C 
ATOM     20  C   UNL     1       6.125   3.890  14.113  0.00  0.00    +0.000 C 
ENDBRANCH  18  20
ENDBRANCH  14  18
ENDBRANCH  13  15
ENDBRANCH   1  13
TORSDOF 6
ENDMDL
MODEL 5
REMARK VINA RESULT:      -6.9      1.662      2.094
REMARK  Name = 
REMARK  6 active torsions:
REMARK  status: ('A' for Active; 'I' for Inactive)
REMARK    1  A    between atoms: C_2  and  C_3
REMARK    2  A    between atoms: C_3  and  N_4
REMARK    3  A    between atoms: C_5  and  C_7
REMARK    4  A    between atoms: C_7  and  N_8
REMARK    5  A    between atoms: N_8  and  S_9
REMARK    6  A    between atoms: S_9  and  C_12
REMARK                            x       y       z     vdW  Elec       q    Type
REMARK                         _______ _______ _______ _____ _____    ______ ____
ROOT
ATOM      1  N   UNL     1       5.867   3.995  18.308  0.00  0.00    +0.000 NA
ATOM      2  H   UNL     1       5.838   3.563  19.235  0.00  0.00    +0.000 HD
ENDROOT
BRANCH   1   3
ATOM      3  S   UNL     1       4.324   4.589  17.945  0.00  0.00    +0.000 S 
ATOM      4  O   UNL     1       4.404   6.017  18.154  0.00  0.00    +0.000 OA
ATOM      5  O   UNL     1       3.901   4.026  16.684  0.00  0.00    +0.000 OA
BRANCH   3   6
ATOM      6  C   UNL     1       3.311   3.911  19.238  0.00  0.00    +0.000 A 
ATOM      7  C   UNL     1       3.032   4.682  20.373  0.00  0.00    +0.000 A 
ATOM      8  C   UNL     1       2.146   4.193  21.336  0.00  0.00    +0.000 A 
ATOM      9  C   UNL     1       1.548   2.950  21.153  0.00  0.00    +0.000 A 
ATOM     10  F   UNL     1       0.685   2.493  22.070  0.00  0.00    +0.000 F 
ATOM     11  C   UNL     1       1.818   2.181  20.024  0.00  0.00    +0.000 A 
ATOM     12  C   UNL     1       2.700   2.663  19.055  0.00  0.00    +0.000 A 
ENDBRANCH   3   6
ENDBRANCH   1   3
BRANCH   1  13
ATOM     13  C   UNL     1       6.975   4.951  18.096  0.00  0.00    +0.000 C 
BRANCH  13  15
ATOM     14  N   UNL     1       6.771   4.382  15.720  0.00  0.00    +0.000 N 
ATOM     15  C   UNL     1       7.162   5.332  16.637  0.00  0.00    +0.000 C 
ATOM     16  O   UNL     1       7.597   6.436  16.317  0.00  0.00    +0.000 OA
ATOM     17  H   UNL     1       6.441   3.486  16.060  0.00  0.00    +0.000 HD
BRANCH  14  18
ATOM     18  C   UNL     1       6.919   4.593  14.300  0.00  0.00    +0.000 C 
BRANCH  18  20
ATOM     19  C   UNL     1       5.973   3.356  12.336  0.00  0.00    +0.000 C 
ATOM     20  C   UNL     1       5.861   3.812  13.591  0.00  0.00    +0.000 C 
ENDBRANCH  18  20
ENDBRANCH  14  18
ENDBRANCH  13  15
ENDBRANCH   1  13
TORSDOF 6
ENDMDL
MODEL 6
REMARK VINA RESULT:      -6.9      0.652      1.291
REMARK  Name = 
REMARK  6 active torsions:
REMARK  status: ('A' for Active; 'I' for Inactive)
REMARK    1  A    between atoms: C_2  and  C_3
REMARK    2  A    between atoms: C_3  and  N_4
REMARK    3  A    between atoms: C_5  and  C_7
REMARK    4  A    between atoms: C_7  and  N_8
REMARK    5  A    between atoms: N_8  and  S_9
REMARK    6  A    between atoms: S_9  and  C_12
REMARK                            x       y       z     vdW  Elec       q    Type
REMARK                         _______ _______ _______ _____ _____    ______ ____
ROOT
ATOM      1  N   UNL     1       5.887   3.899  17.117  0.00  0.00    +0.000 NA
ATOM      2  H   UNL     1       6.016   2.986  17.560  0.00  0.00    +0.000 HD
ENDROOT
BRANCH   1   3
ATOM      3  S   UNL     1       5.365   4.999  18.293  0.00  0.00    +0.000 S 
ATOM      4  O   UNL     1       6.207   4.759  19.444  0.00  0.00    +0.000 OA
ATOM      5  O   UNL     1       5.261   6.305  17.686  0.00  0.00    +0.000 OA
BRANCH   3   6
ATOM      6  C   UNL     1       3.731   4.425  18.692  0.00  0.00    +0.000 A 
ATOM      7  C   UNL     1       3.053   3.591  17.793  0.00  0.00    +0.000 A 
ATOM      8  C   UNL     1       1.817   3.050  18.157  0.00  0.00    +0.000 A 
ATOM      9  C   UNL     1       1.279   3.341  19.407  0.00  0.00    +0.000 A 
ATOM     10  F   UNL     1       0.102   2.804  19.757  0.00  0.00    +0.000 F 
ATOM     11  C   UNL     1       1.951   4.164  20.305  0.00  0.00    +0.000 A 
ATOM     12  C   UNL     1       3.188   4.707  19.952  0.00  0.00    +0.000 A 
ENDBRANCH   3   6
ENDBRANCH   1   3
BRANCH   1  13
ATOM     13  C   UNL     1       7.021   4.358  16.286  0.00  0.00    +0.000 C 
BRANCH  13  15
ATOM     14  N   UNL     1       6.595   3.560  14.008  0.00  0.00    +0.000 N 
ATOM     15  C   UNL     1       6.627   4.651  14.849  0.00  0.00    +0.000 C 
ATOM     16  O   UNL     1       6.322   5.785  14.489  0.00  0.00    +0.000 OA
ATOM     17  H   UNL     1       6.880   2.658  14.371  0.00  0.00    +0.000 HD
BRANCH  14  18
ATOM     18  C   UNL     1       6.267   3.691  12.609  0.00  0.00    +0.000 C 
BRANCH  18  20
ATOM     19  C   UNL     1       4.200   3.327  11.239  0.00  0.00    +0.000 C 
ATOM     20  C   UNL     1       4.845   3.277  12.412  0.00  0.00    +0.000 C 
ENDBRANCH  18  20
ENDBRANCH  14  18
ENDBRANCH  13  15
ENDBRANCH   1  13
TORSDOF 6
ENDMDL
MODEL 7
REMARK VINA RESULT:      -6.9      1.240      1.507
REMARK  Name = 
REMARK  6 active torsions:
REMARK  status: ('A' for Active; 'I' for Inactive)
REMARK    1  A    between atoms: C_2  and  C_3
REMARK    2  A    between atoms: C_3  and  N_4
REMARK    3  A    between atoms: C_5  and  C_7
REMARK    4  A    between atoms: C_7  and  N_8
REMARK    5  A    between atoms: N_8  and  S_9
REMARK    6  A    between atoms: S_9  and  C_12
REMARK                            x       y       z     vdW  Elec       q    Type
REMARK                         _______ _______ _______ _____ _____    ______ ____
ROOT
ATOM      1  N   UNL     1       6.782   4.345  17.318  0.00  0.00    +0.000 NA
ATOM      2  H   UNL     1       7.673   4.784  17.070  0.00  0.00    +0.000 HD
ENDROOT
BRANCH   1   3
ATOM      3  S   UNL     1       5.962   5.363  18.391  0.00  0.00    +0.000 S 
ATOM      4  O   UNL     1       6.643   5.215  19.658  0.00  0.00    +0.000 OA
ATOM      5  O   UNL     1       5.794   6.652  17.763  0.00  0.00    +0.000 OA
BRANCH   3   6
ATOM      6  C   UNL     1       4.367   4.594  18.544  0.00  0.00    +0.000 A 
ATOM      7  C   UNL     1       4.225   3.450  19.341  0.00  0.00    +0.000 A 
ATOM      8  C   UNL     1       2.953   2.913  19.550  0.00  0.00    +0.000 A 
ATOM      9  C   UNL     1       1.843   3.522  18.972  0.00  0.00    +0.000 A 
ATOM     10  F   UNL     1       0.624   3.013  19.192  0.00  0.00    +0.000 F 
ATOM     11  C   UNL     1       1.978   4.661  18.184  0.00  0.00    +0.000 A 
ATOM     12  C   UNL     1       3.245   5.207  17.971  0.00  0.00    +0.000 A 
ENDBRANCH   3   6
ENDBRANCH   1   3
BRANCH   1  13
ATOM     13  C   UNL     1       5.982   3.862  16.171  0.00  0.00    +0.000 C 
BRANCH  13  15
ATOM     14  N   UNL     1       6.110   3.510  13.749  0.00  0.00    +0.000 N 
ATOM     15  C   UNL     1       6.591   4.221  14.826  0.00  0.00    +0.000 C 
ATOM     16  O   UNL     1       7.425   5.117  14.722  0.00  0.00    +0.000 OA
ATOM     17  H   UNL     1       5.437   2.771  13.915  0.00  0.00    +0.000 HD
BRANCH  14  18
ATOM     18  C   UNL     1       6.618   3.721  12.414  0.00  0.00    +0.000 C 
BRANCH  18  20
ATOM     19  C   UNL     1       7.163   1.661  11.095  0.00  0.00    +0.000 C 
ATOM     20  C   UNL     1       6.269   2.533  11.579  0.00  0.00    +0.000 C 
ENDBRANCH  18  20
ENDBRANCH  14  18
ENDBRANCH  13  15
ENDBRANCH   1  13
TORSDOF 6
ENDMDL
MODEL 8
REMARK VINA RESULT:      -6.9      1.227      1.458
REMARK  Name = 
REMARK  6 active torsions:
REMARK  status: ('A' for Active; 'I' for Inactive)
REMARK    1  A    between atoms: C_2  and  C_3
REMARK    2  A    between atoms: C_3  and  N_4
REMARK    3  A    between atoms: C_5  and  C_7
REMARK    4  A    between atoms: C_7  and  N_8
REMARK    5  A    between atoms: N_8  and  S_9
REMARK    6  A    between atoms: S_9  and  C_12
REMARK                            x       y       z     vdW  Elec       q    Type
REMARK                         _______ _______ _______ _____ _____    ______ ____
ROOT
ATOM      1  N   UNL     1       5.624   3.963  16.901  0.00  0.00    +0.000 NA
ATOM      2  H   UNL     1       5.420   3.003  17.191  0.00  0.00    +0.000 HD
ENDROOT
BRANCH   1   3
ATOM      3  S   UNL     1       5.417   4.982  18.236  0.00  0.00    +0.000 S 
ATOM      4  O   UNL     1       6.573   4.755  19.076  0.00  0.00    +0.000 OA
ATOM      5  O   UNL     1       5.070   6.299  17.758  0.00  0.00    +0.000 OA
BRANCH   3   6
ATOM      6  C   UNL     1       4.006   4.287  19.065  0.00  0.00    +0.000 A 
ATOM      7  C   UNL     1       4.140   3.083  19.768  0.00  0.00    +0.000 A 
ATOM      8  C   UNL     1       3.062   2.597  20.510  0.00  0.00    +0.000 A 
ATOM      9  C   UNL     1       1.871   3.316  20.548  0.00  0.00    +0.000 A 
ATOM     10  F   UNL     1       0.846   2.854  21.276  0.00  0.00    +0.000 F 
ATOM     11  C   UNL     1       1.734   4.516  19.855  0.00  0.00    +0.000 A 
ATOM     12  C   UNL     1       2.807   5.011  19.112  0.00  0.00    +0.000 A 
ENDBRANCH   3   6
ENDBRANCH   1   3
BRANCH   1  13
ATOM     13  C   UNL     1       6.895   4.138  16.167  0.00  0.00    +0.000 C 
BRANCH  13  15
ATOM     14  N   UNL     1       6.420   3.483  13.853  0.00  0.00    +0.000 N 
ATOM     15  C   UNL     1       6.694   4.525  14.711  0.00  0.00    +0.000 C 
ATOM     16  O   UNL     1       6.737   5.699  14.351  0.00  0.00    +0.000 OA
ATOM     17  H   UNL     1       6.421   2.539  14.219  0.00  0.00    +0.000 HD
BRANCH  14  18
ATOM     18  C   UNL     1       6.235   3.696  12.438  0.00  0.00    +0.000 C 
BRANCH  18  20
ATOM     19  C   UNL     1       4.121   3.345  11.138  0.00  0.00    +0.000 C 
ATOM     20  C   UNL     1       5.057   2.896  11.986  0.00  0.00    +0.000 C 
ENDBRANCH  18  20
ENDBRANCH  14  18
ENDBRANCH  13  15
ENDBRANCH   1  13
TORSDOF 6
ENDMDL
MODEL 9
REMARK VINA RESULT:      -6.8      1.041      1.140
REMARK  Name = 
REMARK  6 active torsions:
REMARK  status: ('A' for Active; 'I' for Inactive)
REMARK    1  A    between atoms: C_2  and  C_3
REMARK    2  A    between atoms: C_3  and  N_4
REMARK    3  A    between atoms: C_5  and  C_7
REMARK    4  A    between atoms: C_7  and  N_8
REMARK    5  A    between atoms: N_8  and  S_9
REMARK    6  A    between atoms: S_9  and  C_12
REMARK                            x       y       z     vdW  Elec       q    Type
REMARK                         _______ _______ _______ _____ _____    ______ ____
ROOT
ATOM      1  N   UNL     1       6.324   3.907  17.595  0.00  0.00    +0.000 NA
ATOM      2  H   UNL     1       6.647   3.120  18.164  0.00  0.00    +0.000 HD
ENDROOT
BRANCH   1   3
ATOM      3  S   UNL     1       5.386   4.924  18.570  0.00  0.00    +0.000 S 
ATOM      4  O   UNL     1       5.997   4.872  19.880  0.00  0.00    +0.000 OA
ATOM      5  O   UNL     1       5.186   6.172  17.872  0.00  0.00    +0.000 OA
BRANCH   3   6
ATOM      6  C   UNL     1       3.829   4.072  18.669  0.00  0.00    +0.000 A 
ATOM      7  C   UNL     1       2.646   4.758  18.369  0.00  0.00    +0.000 A 
ATOM      8  C   UNL     1       1.436   4.060  18.338  0.00  0.00    +0.000 A 
ATOM      9  C   UNL     1       1.422   2.694  18.599  0.00  0.00    +0.000 A 
ATOM     10  F   UNL     1       0.262   2.026  18.549  0.00  0.00    +0.000 F 
ATOM     11  C   UNL     1       2.596   2.006  18.892  0.00  0.00    +0.000 A 
ATOM     12  C   UNL     1       3.810   2.694  18.923  0.00  0.00    +0.000 A 
ENDBRANCH   3   6
ENDBRANCH   1   3
BRANCH   1  13
ATOM     13  C   UNL     1       7.377   4.586  16.809  0.00  0.00    +0.000 C 
BRANCH  13  15
ATOM     14  N   UNL     1       5.859   4.144  14.935  0.00  0.00    +0.000 N 
ATOM     15  C   UNL     1       6.981   4.820  15.361  0.00  0.00    +0.000 C 
ATOM     16  O   UNL     1       7.609   5.596  14.645  0.00  0.00    +0.000 OA
ATOM     17  H   UNL     1       5.405   3.504  15.576  0.00  0.00    +0.000 HD
BRANCH  14  18
ATOM     18  C   UNL     1       5.382   4.245  13.577  0.00  0.00    +0.000 C 
BRANCH  18  20
ATOM     19  C   UNL     1       6.973   3.624  11.742  0.00  0.00    +0.000 C 
ATOM     20  C   UNL     1       6.141   3.274  12.733  0.00  0.00    +0.000 C 
ENDBRANCH  18  20
ENDBRANCH  14  18
ENDBRANCH  13  15
ENDBRANCH   1  13
TORSDOF 6
ENDMDL
