MODEL 1
REMARK VINA RESULT:      -8.0      0.000      0.000
REMARK  Name = 
REMARK  11 active torsions:
REMARK  status: ('A' for Active; 'I' for Inactive)
REMARK    1  A    between atoms: C_2  and  C_3
REMARK    2  A    between atoms: C_3  and  O_4
REMARK    3  A    between atoms: O_4  and  C_5
REMARK    4  A    between atoms: C_5  and  C_7
REMARK    5  A    between atoms: C_10  and  O_11
REMARK    6  A    between atoms: C_12  and  N_13
REMARK    7  A    between atoms: C_14  and  C_16
REMARK    8  A    between atoms: C_16  and  O_17
REMARK    9  A    between atoms: O_17  and  C_18
REMARK   10  A    between atoms: C_23  and  C_24
REMARK   11  A    between atoms: C_24  and  C_25
REMARK                            x       y       z     vdW  Elec       q    Type
REMARK                         _______ _______ _______ _____ _____    ______ ____
ROOT
ATOM      1  N   UNL     1       3.204   2.883  20.609  0.00  0.00    +0.000 N 
ATOM      2  C   UNL     1       2.194   3.528  21.269  0.00  0.00    +0.000 C 
ATOM      3  O   UNL     1       1.713   3.019  22.285  0.00  0.00    +0.000 OA
ATOM      4  H   UNL     1       3.193   1.886  20.807  0.00  0.00    +0.000 HD
ENDROOT
BRANCH   1   9
ATOM      5  C   UNL     1       5.507   4.407  18.202  0.00  0.00    +0.000 A 
ATOM      6  C   UNL     1       4.910   4.022  16.981  0.00  0.00    +0.000 A 
ATOM      7  C   UNL     1       3.703   3.314  16.957  0.00  0.00    +0.000 A 
ATOM      8  C   UNL     1       3.102   2.956  18.158  0.00  0.00    +0.000 A 
ATOM      9  C   UNL     1       3.711   3.289  19.369  0.00  0.00    +0.000 A 
ATOM     10  C   UNL     1       4.895   4.021  19.396  0.00  0.00    +0.000 A 
BRANCH   5  11
ATOM     11  C   UNL     1       6.752   5.222  18.178  0.00  0.00    +0.000 C 
ATOM     12  O   UNL     1       7.846   4.714  18.378  0.00  0.00    +0.000 OA
BRANCH  11  13
ATOM     13  O   UNL     1       6.512   6.517  17.903  0.00  0.00    +0.000 OA
BRANCH  13  14
ATOM     14  C   UNL     1       7.458   7.154  17.012  0.00  0.00    +0.000 C 
BRANCH  14  16
ATOM     15  C   UNL     1       8.464   9.467  18.282  0.00  0.00    +0.000 C 
ATOM     16  C   UNL     1       7.999   8.398  17.696  0.00  0.00    +0.000 C 
ENDBRANCH  14  16
ENDBRANCH  13  14
ENDBRANCH  11  13
ENDBRANCH   5  11
BRANCH   8  17
ATOM     17  O   UNL     1       1.890   2.325  18.169  0.00  0.00    +0.000 OA
ATOM     18  H   UNL     1       1.285   2.811  18.759  0.00  0.00    +0.000 HD
ENDBRANCH   8  17
ENDBRANCH   1   9
BRANCH   2  19
ATOM     19  C   UNL     1       1.595   4.807  20.660  0.00  0.00    +0.000 C 
BRANCH  19  20
ATOM     20  O   UNL     1       2.019   6.104  21.078  0.00  0.00    +0.000 OA
BRANCH  20  21
ATOM     21  C   UNL     1       2.067   7.012  20.032  0.00  0.00    +0.000 A 
ATOM     22  C   UNL     1       2.480   6.622  18.733  0.00  0.00    +0.000 A 
ATOM     23  C   UNL     1       2.614   7.533  17.697  0.00  0.00    +0.000 A 
ATOM     24  C   UNL     1       2.324   8.866  17.929  0.00  0.00    +0.000 A 
ATOM     25  C   UNL     1       1.862   9.265  19.175  0.00  0.00    +0.000 A 
ATOM     26  C   UNL     1       1.690   8.361  20.251  0.00  0.00    +0.000 A 
BRANCH  26  27
ATOM     27  C   UNL     1       1.051   8.891  21.522  0.00  0.00    +0.000 C 
ATOM     28  N   UNL     1       1.869   9.121  22.677  0.00  0.00    +0.000 NA
ATOM     29  N   UNL     1       1.629  10.130  22.005  0.00  0.00    +0.000 NA
BRANCH  27  30
ATOM     30  C   UNL     1      -0.448   8.784  21.647  0.00  0.00    +0.000 C 
ATOM     31  F   UNL     1      -1.093   9.720  20.900  0.00  0.00    +0.000 F 
ATOM     32  F   UNL     1      -0.908   7.575  21.256  0.00  0.00    +0.000 F 
ATOM     33  F   UNL     1      -0.853   8.975  22.938  0.00  0.00    +0.000 F 
ENDBRANCH  27  30
ENDBRANCH  26  27
ENDBRANCH  20  21
ENDBRANCH  19  20
ENDBRANCH   2  19
TORSDOF 11
ENDMDL
MODEL 2
REMARK VINA RESULT:      -7.2      2.267      3.112
REMARK  Name = 
REMARK  11 active torsions:
REMARK  status: ('A' for Active; 'I' for Inactive)
REMARK    1  A    between atoms: C_2  and  C_3
REMARK    2  A    between atoms: C_3  and  O_4
REMARK    3  A    between atoms: O_4  and  C_5
REMARK    4  A    between atoms: C_5  and  C_7
REMARK    5  A    between atoms: C_10  and  O_11
REMARK    6  A    between atoms: C_12  and  N_13
REMARK    7  A    between atoms: C_14  and  C_16
REMARK    8  A    between atoms: C_16  and  O_17
REMARK    9  A    between atoms: O_17  and  C_18
REMARK   10  A    between atoms: C_23  and  C_24
REMARK   11  A    between atoms: C_24  and  C_25
REMARK                            x       y       z     vdW  Elec       q    Type
REMARK                         _______ _______ _______ _____ _____    ______ ____
ROOT
ATOM      1  N   UNL     1       2.720   6.268  20.283  0.00  0.00    +0.000 N 
ATOM      2  C   UNL     1       2.064   7.466  20.362  0.00  0.00    +0.000 C 
ATOM      3  O   UNL     1       1.760   7.917  21.470  0.00  0.00    +0.000 OA
ATOM      4  H   UNL     1       2.554   5.703  21.111  0.00  0.00    +0.000 HD
ENDROOT
BRANCH   1   9
ATOM      5  C   UNL     1       4.377   5.439  17.123  0.00  0.00    +0.000 A 
ATOM      6  C   UNL     1       3.683   4.263  16.758  0.00  0.00    +0.000 A 
ATOM      7  C   UNL     1       2.618   3.783  17.529  0.00  0.00    +0.000 A 
ATOM      8  C   UNL     1       2.260   4.460  18.688  0.00  0.00    +0.000 A 
ATOM      9  C   UNL     1       2.972   5.594  19.082  0.00  0.00    +0.000 A 
ATOM     10  C   UNL     1       4.012   6.092  18.301  0.00  0.00    +0.000 A 
BRANCH   5  11
ATOM     11  C   UNL     1       5.456   5.953  16.235  0.00  0.00    +0.000 C 
ATOM     12  O   UNL     1       5.238   6.837  15.419  0.00  0.00    +0.000 OA
BRANCH  11  13
ATOM     13  O   UNL     1       6.637   5.350  16.462  0.00  0.00    +0.000 OA
BRANCH  13  14
ATOM     14  C   UNL     1       7.280   5.684  17.716  0.00  0.00    +0.000 C 
BRANCH  14  16
ATOM     15  C   UNL     1       7.925   8.433  17.682  0.00  0.00    +0.000 C 
ATOM     16  C   UNL     1       7.627   7.163  17.697  0.00  0.00    +0.000 C 
ENDBRANCH  14  16
ENDBRANCH  13  14
ENDBRANCH  11  13
ENDBRANCH   5  11
BRANCH   8  17
ATOM     17  O   UNL     1       1.182   4.057  19.425  0.00  0.00    +0.000 OA
ATOM     18  H   UNL     1       0.383   4.106  18.869  0.00  0.00    +0.000 HD
ENDBRANCH   8  17
ENDBRANCH   1   9
BRANCH   2  19
ATOM     19  C   UNL     1       1.610   8.161  19.068  0.00  0.00    +0.000 C 
BRANCH  19  20
ATOM     20  O   UNL     1       1.513   9.582  18.976  0.00  0.00    +0.000 OA
BRANCH  20  21
ATOM     21  C   UNL     1       0.207  10.017  18.811  0.00  0.00    +0.000 A 
ATOM     22  C   UNL     1      -0.516   9.751  17.622  0.00  0.00    +0.000 A 
ATOM     23  C   UNL     1      -1.791  10.250  17.406  0.00  0.00    +0.000 A 
ATOM     24  C   UNL     1      -2.387  11.023  18.386  0.00  0.00    +0.000 A 
ATOM     25  C   UNL     1      -1.725  11.251  19.584  0.00  0.00    +0.000 A 
ATOM     26  C   UNL     1      -0.432  10.739  19.850  0.00  0.00    +0.000 A 
BRANCH  26  27
ATOM     27  C   UNL     1       0.133  10.941  21.245  0.00  0.00    +0.000 C 
ATOM     28  N   UNL     1       1.415  11.564  21.401  0.00  0.00    +0.000 NA
ATOM     29  N   UNL     1       0.450  12.320  21.564  0.00  0.00    +0.000 NA
BRANCH  27  30
ATOM     30  C   UNL     1      -0.478  10.142  22.368  0.00  0.00    +0.000 C 
ATOM     31  F   UNL     1      -0.957   8.942  21.943  0.00  0.00    +0.000 F 
ATOM     32  F   UNL     1       0.408   9.890  23.357  0.00  0.00    +0.000 F 
ATOM     33  F   UNL     1      -1.536  10.802  22.928  0.00  0.00    +0.000 F 
ENDBRANCH  27  30
ENDBRANCH  26  27
ENDBRANCH  20  21
ENDBRANCH  19  20
ENDBRANCH   2  19
TORSDOF 11
ENDMDL
MODEL 3
REMARK VINA RESULT:      -7.2      3.575      6.096
REMARK  Name = 
REMARK  11 active torsions:
REMARK  status: ('A' for Active; 'I' for Inactive)
REMARK    1  A    between atoms: C_2  and  C_3
REMARK    2  A    between atoms: C_3  and  O_4
REMARK    3  A    between atoms: O_4  and  C_5
REMARK    4  A    between atoms: C_5  and  C_7
REMARK    5  A    between atoms: C_10  and  O_11
REMARK    6  A    between atoms: C_12  and  N_13
REMARK    7  A    between atoms: C_14  and  C_16
REMARK    8  A    between atoms: C_16  and  O_17
REMARK    9  A    between atoms: O_17  and  C_18
REMARK   10  A    between atoms: C_23  and  C_24
REMARK   11  A    between atoms: C_24  and  C_25
REMARK                            x       y       z     vdW  Elec       q    Type
REMARK                         _______ _______ _______ _____ _____    ______ ____
ROOT
ATOM      1  N   UNL     1       2.607   2.982  20.787  0.00  0.00    +0.000 N 
ATOM      2  C   UNL     1       3.807   2.327  20.773  0.00  0.00    +0.000 C 
ATOM      3  O   UNL     1       4.173   1.713  21.779  0.00  0.00    +0.000 OA
ATOM      4  H   UNL     1       2.322   3.207  21.736  0.00  0.00    +0.000 HD
ENDROOT
BRANCH   1   9
ATOM      5  C   UNL     1       2.147   6.088  18.900  0.00  0.00    +0.000 A 
ATOM      6  C   UNL     1       1.505   5.603  17.739  0.00  0.00    +0.000 A 
ATOM      7  C   UNL     1       1.162   4.252  17.613  0.00  0.00    +0.000 A 
ATOM      8  C   UNL     1       1.491   3.370  18.635  0.00  0.00    +0.000 A 
ATOM      9  C   UNL     1       2.170   3.832  19.764  0.00  0.00    +0.000 A 
ATOM     10  C   UNL     1       2.484   5.182  19.906  0.00  0.00    +0.000 A 
BRANCH   5  11
ATOM     11  C   UNL     1       2.428   7.546  19.021  0.00  0.00    +0.000 C 
ATOM     12  O   UNL     1       2.957   8.168  18.111  0.00  0.00    +0.000 OA
BRANCH  11  13
ATOM     13  O   UNL     1       2.020   8.049  20.201  0.00  0.00    +0.000 OA
BRANCH  13  14
ATOM     14  C   UNL     1       0.950   9.021  20.131  0.00  0.00    +0.000 C 
BRANCH  14  16
ATOM     15  C   UNL     1      -0.361   9.088  22.631  0.00  0.00    +0.000 C 
ATOM     16  C   UNL     1       0.244   9.057  21.476  0.00  0.00    +0.000 C 
ENDBRANCH  14  16
ENDBRANCH  13  14
ENDBRANCH  11  13
ENDBRANCH   5  11
BRANCH   8  17
ATOM     17  O   UNL     1       1.109   2.060  18.573  0.00  0.00    +0.000 OA
ATOM     18  H   UNL     1       0.999   1.719  19.479  0.00  0.00    +0.000 HD
ENDBRANCH   8  17
ENDBRANCH   1   9
BRANCH   2  19
ATOM     19  C   UNL     1       4.730   2.475  19.552  0.00  0.00    +0.000 C 
BRANCH  19  20
ATOM     20  O   UNL     1       5.498   3.657  19.333  0.00  0.00    +0.000 OA
BRANCH  20  21
ATOM     21  C   UNL     1       5.495   4.056  18.005  0.00  0.00    +0.000 A 
ATOM     22  C   UNL     1       4.606   3.482  17.062  0.00  0.00    +0.000 A 
ATOM     23  C   UNL     1       4.647   3.807  15.716  0.00  0.00    +0.000 A 
ATOM     24  C   UNL     1       5.574   4.734  15.274  0.00  0.00    +0.000 A 
ATOM     25  C   UNL     1       6.417   5.355  16.185  0.00  0.00    +0.000 A 
ATOM     26  C   UNL     1       6.390   5.065  17.570  0.00  0.00    +0.000 A 
BRANCH  26  27
ATOM     27  C   UNL     1       7.265   5.906  18.483  0.00  0.00    +0.000 C 
ATOM     28  N   UNL     1       7.384   5.548  19.867  0.00  0.00    +0.000 NA
ATOM     29  N   UNL     1       8.315   5.161  19.151  0.00  0.00    +0.000 NA
BRANCH  27  30
ATOM     30  C   UNL     1       7.653   7.283  18.006  0.00  0.00    +0.000 C 
ATOM     31  F   UNL     1       8.563   7.873  18.826  0.00  0.00    +0.000 F 
ATOM     32  F   UNL     1       8.188   7.261  16.765  0.00  0.00    +0.000 F 
ATOM     33  F   UNL     1       6.571   8.117  17.967  0.00  0.00    +0.000 F 
ENDBRANCH  27  30
ENDBRANCH  26  27
ENDBRANCH  20  21
ENDBRANCH  19  20
ENDBRANCH   2  19
TORSDOF 11
ENDMDL
MODEL 4
REMARK VINA RESULT:      -7.1      3.239      5.233
REMARK  Name = 
REMARK  11 active torsions:
REMARK  status: ('A' for Active; 'I' for Inactive)
REMARK    1  A    between atoms: C_2  and  C_3
REMARK    2  A    between atoms: C_3  and  O_4
REMARK    3  A    between atoms: O_4  and  C_5
REMARK    4  A    between atoms: C_5  and  C_7
REMARK    5  A    between atoms: C_10  and  O_11
REMARK    6  A    between atoms: C_12  and  N_13
REMARK    7  A    between atoms: C_14  and  C_16
REMARK    8  A    between atoms: C_16  and  O_17
REMARK    9  A    between atoms: O_17  and  C_18
REMARK   10  A    between atoms: C_23  and  C_24
REMARK   11  A    between atoms: C_24  and  C_25
REMARK                            x       y       z     vdW  Elec       q    Type
REMARK                         _______ _______ _______ _____ _____    ______ ____
ROOT
ATOM      1  N   UNL     1       5.795   3.479  18.894  0.00  0.00    +0.000 N 
ATOM      2  C   UNL     1       4.592   2.877  18.649  0.00  0.00    +0.000 C 
ATOM      3  O   UNL     1       4.231   1.934  19.359  0.00  0.00    +0.000 OA
ATOM      4  H   UNL     1       6.426   2.853  19.387  0.00  0.00    +0.000 HD
ENDROOT
BRANCH   1   9
ATOM      5  C   UNL     1       6.859   5.102  15.787  0.00  0.00    +0.000 A 
ATOM      6  C   UNL     1       7.328   6.341  16.279  0.00  0.00    +0.000 A 
ATOM      7  C   UNL     1       7.355   6.610  17.653  0.00  0.00    +0.000 A 
ATOM      8  C   UNL     1       6.880   5.653  18.541  0.00  0.00    +0.000 A 
ATOM      9  C   UNL     1       6.368   4.446  18.060  0.00  0.00    +0.000 A 
ATOM     10  C   UNL     1       6.370   4.163  16.696  0.00  0.00    +0.000 A 
BRANCH   5  11
ATOM     11  C   UNL     1       6.916   4.832  14.324  0.00  0.00    +0.000 C 
ATOM     12  O   UNL     1       7.528   5.572  13.566  0.00  0.00    +0.000 OA
BRANCH  11  13
ATOM     13  O   UNL     1       6.253   3.712  13.983  0.00  0.00    +0.000 OA
BRANCH  13  14
ATOM     14  C   UNL     1       5.707   3.690  12.643  0.00  0.00    +0.000 C 
BRANCH  14  16
ATOM     15  C   UNL     1       7.080   1.723  11.153  0.00  0.00    +0.000 C 
ATOM     16  C   UNL     1       6.445   2.631  11.841  0.00  0.00    +0.000 C 
ENDBRANCH  14  16
ENDBRANCH  13  14
ENDBRANCH  11  13
ENDBRANCH   5  11
BRANCH   8  17
ATOM     17  O   UNL     1       6.956   5.857  19.890  0.00  0.00    +0.000 OA
ATOM     18  H   UNL     1       6.315   6.547  20.142  0.00  0.00    +0.000 HD
ENDBRANCH   8  17
ENDBRANCH   1   9
BRANCH   2  19
ATOM     19  C   UNL     1       3.775   3.304  17.417  0.00  0.00    +0.000 C 
BRANCH  19  20
ATOM     20  O   UNL     1       2.422   3.743  17.532  0.00  0.00    +0.000 OA
BRANCH  20  21
ATOM     21  C   UNL     1       2.292   4.863  18.340  0.00  0.00    +0.000 A 
ATOM     22  C   UNL     1       2.655   6.153  17.879  0.00  0.00    +0.000 A 
ATOM     23  C   UNL     1       2.611   7.269  18.698  0.00  0.00    +0.000 A 
ATOM     24  C   UNL     1       2.188   7.127  20.008  0.00  0.00    +0.000 A 
ATOM     25  C   UNL     1       1.772   5.886  20.469  0.00  0.00    +0.000 A 
ATOM     26  C   UNL     1       1.781   4.728  19.655  0.00  0.00    +0.000 A 
BRANCH  26  27
ATOM     27  C   UNL     1       1.176   3.458  20.228  0.00  0.00    +0.000 C 
ATOM     28  N   UNL     1      -0.079   2.986  19.719  0.00  0.00    +0.000 NA
ATOM     29  N   UNL     1       0.915   2.427  19.242  0.00  0.00    +0.000 NA
BRANCH  27  30
ATOM     30  C   UNL     1       1.705   2.969  21.552  0.00  0.00    +0.000 C 
ATOM     31  F   UNL     1       0.708   2.575  22.390  0.00  0.00    +0.000 F 
ATOM     32  F   UNL     1       2.544   1.919  21.410  0.00  0.00    +0.000 F 
ATOM     33  F   UNL     1       2.392   3.953  22.206  0.00  0.00    +0.000 F 
ENDBRANCH  27  30
ENDBRANCH  26  27
ENDBRANCH  20  21
ENDBRANCH  19  20
ENDBRANCH   2  19
TORSDOF 11
ENDMDL
MODEL 5
REMARK VINA RESULT:      -7.0      1.567      2.262
REMARK  Name = 
REMARK  11 active torsions:
REMARK  status: ('A' for Active; 'I' for Inactive)
REMARK    1  A    between atoms: C_2  and  C_3
REMARK    2  A    between atoms: C_3  and  O_4
REMARK    3  A    between atoms: O_4  and  C_5
REMARK    4  A    between atoms: C_5  and  C_7
REMARK    5  A    between atoms: C_10  and  O_11
REMARK    6  A    between atoms: C_12  and  N_13
REMARK    7  A    between atoms: C_14  and  C_16
REMARK    8  A    between atoms: C_16  and  O_17
REMARK    9  A    between atoms: O_17  and  C_18
REMARK   10  A    between atoms: C_23  and  C_24
REMARK   11  A    between atoms: C_24  and  C_25
REMARK                            x       y       z     vdW  Elec       q    Type
REMARK                         _______ _______ _______ _____ _____    ______ ____
ROOT
ATOM      1  N   UNL     1       3.183   2.995  20.612  0.00  0.00    +0.000 N 
ATOM      2  C   UNL     1       2.291   3.733  21.340  0.00  0.00    +0.000 C 
ATOM      3  O   UNL     1       2.046   3.408  22.505  0.00  0.00    +0.000 OA
ATOM      4  H   UNL     1       3.262   2.050  20.977  0.00  0.00    +0.000 HD
ENDROOT
BRANCH   1   9
ATOM      5  C   UNL     1       4.877   4.111  17.562  0.00  0.00    +0.000 A 
ATOM      6  C   UNL     1       4.083   3.491  16.572  0.00  0.00    +0.000 A 
ATOM      7  C   UNL     1       2.942   2.756  16.916  0.00  0.00    +0.000 A 
ATOM      8  C   UNL     1       2.607   2.610  18.257  0.00  0.00    +0.000 A 
ATOM      9  C   UNL     1       3.415   3.179  19.243  0.00  0.00    +0.000 A 
ATOM     10  C   UNL     1       4.532   3.936  18.903  0.00  0.00    +0.000 A 
BRANCH   5  11
ATOM     11  C   UNL     1       6.040   4.942  17.145  0.00  0.00    +0.000 C 
ATOM     12  O   UNL     1       6.174   6.091  17.543  0.00  0.00    +0.000 OA
BRANCH  11  13
ATOM     13  O   UNL     1       6.881   4.277  16.332  0.00  0.00    +0.000 OA
BRANCH  13  14
ATOM     14  C   UNL     1       7.203   4.939  15.086  0.00  0.00    +0.000 C 
BRANCH  14  16
ATOM     15  C   UNL     1       5.862   3.600  12.991  0.00  0.00    +0.000 C 
ATOM     16  C   UNL     1       6.481   4.218  13.959  0.00  0.00    +0.000 C 
ENDBRANCH  14  16
ENDBRANCH  13  14
ENDBRANCH  11  13
ENDBRANCH   5  11
BRANCH   8  17
ATOM     17  O   UNL     1       1.463   1.958  18.621  0.00  0.00    +0.000 OA
ATOM     18  H   UNL     1       1.222   2.225  19.527  0.00  0.00    +0.000 HD
ENDBRANCH   8  17
ENDBRANCH   1   9
BRANCH   2  19
ATOM     19  C   UNL     1       1.520   4.873  20.652  0.00  0.00    +0.000 C 
BRANCH  19  20
ATOM     20  O   UNL     1       1.736   6.239  21.001  0.00  0.00    +0.000 OA
BRANCH  20  21
ATOM     21  C   UNL     1       1.942   7.046  19.892  0.00  0.00    +0.000 A 
ATOM     22  C   UNL     1       2.480   6.525  18.689  0.00  0.00    +0.000 A 
ATOM     23  C   UNL     1       2.770   7.332  17.601  0.00  0.00    +0.000 A 
ATOM     24  C   UNL     1       2.517   8.690  17.681  0.00  0.00    +0.000 A 
ATOM     25  C   UNL     1       1.936   9.217  18.826  0.00  0.00    +0.000 A 
ATOM     26  C   UNL     1       1.604   8.421  19.949  0.00  0.00    +0.000 A 
BRANCH  26  27
ATOM     27  C   UNL     1       0.850   9.087  21.087  0.00  0.00    +0.000 C 
ATOM     28  N   UNL     1       0.926   8.524  22.404  0.00  0.00    +0.000 NA
ATOM     29  N   UNL     1       1.688   9.477  22.205  0.00  0.00    +0.000 NA
BRANCH  27  30
ATOM     30  C   UNL     1      -0.242  10.061  20.725  0.00  0.00    +0.000 C 
ATOM     31  F   UNL     1      -1.003   9.618  19.690  0.00  0.00    +0.000 F 
ATOM     32  F   UNL     1      -1.077  10.300  21.761  0.00  0.00    +0.000 F 
ATOM     33  F   UNL     1       0.276  11.265  20.335  0.00  0.00    +0.000 F 
ENDBRANCH  27  30
ENDBRANCH  26  27
ENDBRANCH  20  21
ENDBRANCH  19  20
ENDBRANCH   2  19
TORSDOF 11
ENDMDL
MODEL 6
REMARK VINA RESULT:      -7.0      1.783      2.413
REMARK  Name = 
REMARK  11 active torsions:
REMARK  status: ('A' for Active; 'I' for Inactive)
REMARK    1  A    between atoms: C_2  and  C_3
REMARK    2  A    between atoms: C_3  and  O_4
REMARK    3  A    between atoms: O_4  and  C_5
REMARK    4  A    between atoms: C_5  and  C_7
REMARK    5  A    between atoms: C_10  and  O_11
REMARK    6  A    between atoms: C_12  and  N_13
REMARK    7  A    between atoms: C_14  and  C_16
REMARK    8  A    between atoms: C_16  and  O_17
REMARK    9  A    between atoms: O_17  and  C_18
REMARK   10  A    between atoms: C_23  and  C_24
REMARK   11  A    between atoms: C_24  and  C_25
REMARK                            x       y       z     vdW  Elec       q    Type
REMARK                         _______ _______ _______ _____ _____    ______ ____
ROOT
ATOM      1  N   UNL     1       2.973   2.900  20.511  0.00  0.00    +0.000 N 
ATOM      2  C   UNL     1       2.106   3.626  21.280  0.00  0.00    +0.000 C 
ATOM      3  O   UNL     1       1.764   3.189  22.383  0.00  0.00    +0.000 OA
ATOM      4  H   UNL     1       2.949   1.915  20.760  0.00  0.00    +0.000 HD
ENDROOT
BRANCH   1   9
ATOM      5  C   UNL     1       4.988   4.099  17.696  0.00  0.00    +0.000 A 
ATOM      6  C   UNL     1       4.148   3.771  16.608  0.00  0.00    +0.000 A 
ATOM      7  C   UNL     1       2.881   3.213  16.814  0.00  0.00    +0.000 A 
ATOM      8  C   UNL     1       2.459   2.949  18.111  0.00  0.00    +0.000 A 
ATOM      9  C   UNL     1       3.303   3.224  19.189  0.00  0.00    +0.000 A 
ATOM     10  C   UNL     1       4.550   3.808  18.989  0.00  0.00    +0.000 A 
BRANCH   5  11
ATOM     11  C   UNL     1       6.296   4.758  17.432  0.00  0.00    +0.000 C 
ATOM     12  O   UNL     1       6.694   5.681  18.129  0.00  0.00    +0.000 OA
BRANCH  11  13
ATOM     13  O   UNL     1       6.946   4.208  16.389  0.00  0.00    +0.000 OA
BRANCH  13  14
ATOM     14  C   UNL     1       7.080   5.050  15.220  0.00  0.00    +0.000 C 
BRANCH  14  16
ATOM     15  C   UNL     1       6.073   3.642  12.988  0.00  0.00    +0.000 C 
ATOM     16  C   UNL     1       6.537   4.292  14.019  0.00  0.00    +0.000 C 
ENDBRANCH  14  16
ENDBRANCH  13  14
ENDBRANCH  11  13
ENDBRANCH   5  11
BRANCH   8  17
ATOM     17  O   UNL     1       1.203   2.468  18.350  0.00  0.00    +0.000 OA
ATOM     18  H   UNL     1       0.837   2.113  17.519  0.00  0.00    +0.000 HD
ENDBRANCH   8  17
ENDBRANCH   1   9
BRANCH   2  19
ATOM     19  C   UNL     1       1.478   4.906  20.702  0.00  0.00    +0.000 C 
BRANCH  19  20
ATOM     20  O   UNL     1       1.951   6.202  21.067  0.00  0.00    +0.000 OA
BRANCH  20  21
ATOM     21  C   UNL     1       2.005   7.073  19.990  0.00  0.00    +0.000 A 
ATOM     22  C   UNL     1       2.671   6.723  18.789  0.00  0.00    +0.000 A 
ATOM     23  C   UNL     1       2.807   7.612  17.735  0.00  0.00    +0.000 A 
ATOM     24  C   UNL     1       2.263   8.879  17.847  0.00  0.00    +0.000 A 
ATOM     25  C   UNL     1       1.555   9.228  18.988  0.00  0.00    +0.000 A 
ATOM     26  C   UNL     1       1.376   8.340  20.076  0.00  0.00    +0.000 A 
BRANCH  26  27
ATOM     27  C   UNL     1       0.469   8.787  21.209  0.00  0.00    +0.000 C 
ATOM     28  N   UNL     1      -0.948   8.845  20.993  0.00  0.00    +0.000 NA
ATOM     29  N   UNL     1      -0.554   7.822  21.566  0.00  0.00    +0.000 NA
BRANCH  27  30
ATOM     30  C   UNL     1       1.103   9.515  22.366  0.00  0.00    +0.000 C 
ATOM     31  F   UNL     1       0.380   9.389  23.511  0.00  0.00    +0.000 F 
ATOM     32  F   UNL     1       2.350   9.066  22.630  0.00  0.00    +0.000 F 
ATOM     33  F   UNL     1       1.199  10.856  22.116  0.00  0.00    +0.000 F 
ENDBRANCH  27  30
ENDBRANCH  26  27
ENDBRANCH  20  21
ENDBRANCH  19  20
ENDBRANCH   2  19
TORSDOF 11
ENDMDL
MODEL 7
REMARK VINA RESULT:      -7.0      3.847      5.835
REMARK  Name = 
REMARK  11 active torsions:
REMARK  status: ('A' for Active; 'I' for Inactive)
REMARK    1  A    between atoms: C_2  and  C_3
REMARK    2  A    between atoms: C_3  and  O_4
REMARK    3  A    between atoms: O_4  and  C_5
REMARK    4  A    between atoms: C_5  and  C_7
REMARK    5  A    between atoms: C_10  and  O_11
REMARK    6  A    between atoms: C_12  and  N_13
REMARK    7  A    between atoms: C_14  and  C_16
REMARK    8  A    between atoms: C_16  and  O_17
REMARK    9  A    between atoms: O_17  and  C_18
REMARK   10  A    between atoms: C_23  and  C_24
REMARK   11  A    between atoms: C_24  and  C_25
REMARK                            x       y       z     vdW  Elec       q    Type
REMARK                         _______ _______ _______ _____ _____    ______ ____
ROOT
ATOM      1  N   UNL     1       6.691   5.740  15.877  0.00  0.00    +0.000 N 
ATOM      2  C   UNL     1       5.332   5.653  15.749  0.00  0.00    +0.000 C 
ATOM      3  O   UNL     1       4.843   5.386  14.648  0.00  0.00    +0.000 OA
ATOM      4  H   UNL     1       7.131   5.947  14.984  0.00  0.00    +0.000 HD
ENDROOT
BRANCH   1   9
ATOM      5  C   UNL     1       8.220   8.089  18.236  0.00  0.00    +0.000 A 
ATOM      6  C   UNL     1       8.479   7.236  19.332  0.00  0.00    +0.000 A 
ATOM      7  C   UNL     1       8.208   5.864  19.262  0.00  0.00    +0.000 A 
ATOM      8  C   UNL     1       7.644   5.343  18.104  0.00  0.00    +0.000 A 
ATOM      9  C   UNL     1       7.339   6.187  17.034  0.00  0.00    +0.000 A 
ATOM     10  C   UNL     1       7.637   7.546  17.090  0.00  0.00    +0.000 A 
BRANCH   5  11
ATOM     11  C   UNL     1       8.591   9.528  18.330  0.00  0.00    +0.000 C 
ATOM     12  O   UNL     1       8.087  10.362  17.592  0.00  0.00    +0.000 OA
BRANCH  11  13
ATOM     13  O   UNL     1       9.493   9.762  19.301  0.00  0.00    +0.000 OA
BRANCH  13  14
ATOM     14  C   UNL     1       9.236  10.921  20.129  0.00  0.00    +0.000 C 
BRANCH  14  16
ATOM     15  C   UNL     1      10.906  13.026  19.257  0.00  0.00    +0.000 C 
ATOM     16  C   UNL     1      10.135  12.054  19.660  0.00  0.00    +0.000 C 
ENDBRANCH  14  16
ENDBRANCH  13  14
ENDBRANCH  11  13
ENDBRANCH   5  11
BRANCH   8  17
ATOM     17  O   UNL     1       7.431   3.999  17.978  0.00  0.00    +0.000 OA
ATOM     18  H   UNL     1       8.148   3.521  18.434  0.00  0.00    +0.000 HD
ENDBRANCH   8  17
ENDBRANCH   1   9
BRANCH   2  19
ATOM     19  C   UNL     1       4.439   6.012  16.950  0.00  0.00    +0.000 C 
BRANCH  19  20
ATOM     20  O   UNL     1       3.207   5.336  17.195  0.00  0.00    +0.000 OA
BRANCH  20  21
ATOM     21  C   UNL     1       2.628   5.703  18.400  0.00  0.00    +0.000 A 
ATOM     22  C   UNL     1       2.437   7.064  18.745  0.00  0.00    +0.000 A 
ATOM     23  C   UNL     1       1.939   7.450  19.979  0.00  0.00    +0.000 A 
ATOM     24  C   UNL     1       1.603   6.477  20.904  0.00  0.00    +0.000 A 
ATOM     25  C   UNL     1       1.725   5.136  20.571  0.00  0.00    +0.000 A 
ATOM     26  C   UNL     1       2.209   4.703  19.313  0.00  0.00    +0.000 A 
BRANCH  26  27
ATOM     27  C   UNL     1       2.170   3.214  19.017  0.00  0.00    +0.000 C 
ATOM     28  N   UNL     1       0.905   2.538  18.979  0.00  0.00    +0.000 NA
ATOM     29  N   UNL     1       1.354   2.858  17.872  0.00  0.00    +0.000 NA
BRANCH  27  30
ATOM     30  C   UNL     1       3.455   2.439  19.162  0.00  0.00    +0.000 C 
ATOM     31  F   UNL     1       3.355   1.180  18.658  0.00  0.00    +0.000 F 
ATOM     32  F   UNL     1       4.488   3.040  18.530  0.00  0.00    +0.000 F 
ATOM     33  F   UNL     1       3.806   2.302  20.476  0.00  0.00    +0.000 F 
ENDBRANCH  27  30
ENDBRANCH  26  27
ENDBRANCH  20  21
ENDBRANCH  19  20
ENDBRANCH   2  19
TORSDOF 11
ENDMDL
MODEL 8
REMARK VINA RESULT:      -6.9      3.116      4.100
REMARK  Name = 
REMARK  11 active torsions:
REMARK  status: ('A' for Active; 'I' for Inactive)
REMARK    1  A    between atoms: C_2  and  C_3
REMARK    2  A    between atoms: C_3  and  O_4
REMARK    3  A    between atoms: O_4  and  C_5
REMARK    4  A    between atoms: C_5  and  C_7
REMARK    5  A    between atoms: C_10  and  O_11
REMARK    6  A    between atoms: C_12  and  N_13
REMARK    7  A    between atoms: C_14  and  C_16
REMARK    8  A    between atoms: C_16  and  O_17
REMARK    9  A    between atoms: O_17  and  C_18
REMARK   10  A    between atoms: C_23  and  C_24
REMARK   11  A    between atoms: C_24  and  C_25
REMARK                            x       y       z     vdW  Elec       q    Type
REMARK                         _______ _______ _______ _____ _____    ______ ____
ROOT
ATOM      1  N   UNL     1       2.438   6.675  20.198  0.00  0.00    +0.000 N 
ATOM      2  C   UNL     1       1.823   7.896  20.149  0.00  0.00    +0.000 C 
ATOM      3  O   UNL     1       1.371   8.388  21.187  0.00  0.00    +0.000 OA
ATOM      4  H   UNL     1       2.126   6.139  21.003  0.00  0.00    +0.000 HD
ENDROOT
BRANCH   1   9
ATOM      5  C   UNL     1       4.364   5.863  17.189  0.00  0.00    +0.000 A 
ATOM      6  C   UNL     1       3.855   4.580  16.885  0.00  0.00    +0.000 A 
ATOM      7  C   UNL     1       2.822   4.013  17.641  0.00  0.00    +0.000 A 
ATOM      8  C   UNL     1       2.313   4.714  18.727  0.00  0.00    +0.000 A 
ATOM      9  C   UNL     1       2.844   5.960  19.065  0.00  0.00    +0.000 A 
ATOM     10  C   UNL     1       3.850   6.540  18.297  0.00  0.00    +0.000 A 
BRANCH   5  11
ATOM     11  C   UNL     1       5.412   6.456  16.315  0.00  0.00    +0.000 C 
ATOM     12  O   UNL     1       5.521   6.127  15.142  0.00  0.00    +0.000 OA
BRANCH  11  13
ATOM     13  O   UNL     1       6.163   7.367  16.961  0.00  0.00    +0.000 OA
BRANCH  13  14
ATOM     14  C   UNL     1       7.547   7.000  17.176  0.00  0.00    +0.000 C 
BRANCH  14  16
ATOM     15  C   UNL     1       7.735   5.633  19.640  0.00  0.00    +0.000 C 
ATOM     16  C   UNL     1       7.648   6.265  18.502  0.00  0.00    +0.000 C 
ENDBRANCH  14  16
ENDBRANCH  13  14
ENDBRANCH  11  13
ENDBRANCH   5  11
BRANCH   8  17
ATOM     17  O   UNL     1       1.259   4.218  19.443  0.00  0.00    +0.000 OA
ATOM     18  H   UNL     1       1.225   4.667  20.307  0.00  0.00    +0.000 HD
ENDBRANCH   8  17
ENDBRANCH   1   9
BRANCH   2  19
ATOM     19  C   UNL     1       1.599   8.571  18.785  0.00  0.00    +0.000 C 
BRANCH  19  20
ATOM     20  O   UNL     1       1.596   9.990  18.643  0.00  0.00    +0.000 OA
BRANCH  20  21
ATOM     21  C   UNL     1       0.316  10.513  18.533  0.00  0.00    +0.000 A 
ATOM     22  C   UNL     1      -0.709   9.818  17.844  0.00  0.00    +0.000 A 
ATOM     23  C   UNL     1      -1.968  10.362  17.652  0.00  0.00    +0.000 A 
ATOM     24  C   UNL     1      -2.244  11.620  18.160  0.00  0.00    +0.000 A 
ATOM     25  C   UNL     1      -1.277  12.297  18.889  0.00  0.00    +0.000 A 
ATOM     26  C   UNL     1       0.013  11.764  19.125  0.00  0.00    +0.000 A 
BRANCH  26  27
ATOM     27  C   UNL     1       0.937  12.538  20.050  0.00  0.00    +0.000 C 
ATOM     28  N   UNL     1       0.568  12.714  21.425  0.00  0.00    +0.000 NA
ATOM     29  N   UNL     1       1.366  11.793  21.218  0.00  0.00    +0.000 NA
BRANCH  27  30
ATOM     30  C   UNL     1       1.990  13.410  19.416  0.00  0.00    +0.000 C 
ATOM     31  F   UNL     1       1.449  14.374  18.624  0.00  0.00    +0.000 F 
ATOM     32  F   UNL     1       2.758  14.034  20.336  0.00  0.00    +0.000 F 
ATOM     33  F   UNL     1       2.825  12.679  18.617  0.00  0.00    +0.000 F 
ENDBRANCH  27  30
ENDBRANCH  26  27
ENDBRANCH  20  21
ENDBRANCH  19  20
ENDBRANCH   2  19
TORSDOF 11
ENDMDL
MODEL 9
REMARK VINA RESULT:      -6.9      1.070      1.219
REMARK  Name = 
REMARK  11 active torsions:
REMARK  status: ('A' for Active; 'I' for Inactive)
REMARK    1  A    between atoms: C_2  and  C_3
REMARK    2  A    between atoms: C_3  and  O_4
REMARK    3  A    between atoms: O_4  and  C_5
REMARK    4  A    between atoms: C_5  and  C_7
REMARK    5  A    between atoms: C_10  and  O_11
REMARK    6  A    between atoms: C_12  and  N_13
REMARK    7  A    between atoms: C_14  and  C_16
REMARK    8  A    between atoms: C_16  and  O_17
REMARK    9  A    between atoms: O_17  and  C_18
REMARK   10  A    between atoms: C_23  and  C_24
REMARK   11  A    between atoms: C_24  and  C_25
REMARK                            x       y       z     vdW  Elec       q    Type
REMARK                         _______ _______ _______ _____ _____    ______ ____
ROOT
ATOM      1  N   UNL     1       2.872   3.358  19.752  0.00  0.00    +0.000 N 
ATOM      2  C   UNL     1       2.277   4.160  20.686  0.00  0.00    +0.000 C 
ATOM      3  O   UNL     1       1.391   3.695  21.407  0.00  0.00    +0.000 OA
ATOM      4  H   UNL     1       2.267   2.582  19.496  0.00  0.00    +0.000 HD
ENDROOT
BRANCH   1   9
ATOM      5  C   UNL     1       5.920   4.841  18.362  0.00  0.00    +0.000 A 
ATOM      6  C   UNL     1       5.709   4.639  16.980  0.00  0.00    +0.000 A 
ATOM      7  C   UNL     1       4.522   4.070  16.505  0.00  0.00    +0.000 A 
ATOM      8  C   UNL     1       3.550   3.670  17.413  0.00  0.00    +0.000 A 
ATOM      9  C   UNL     1       3.771   3.820  18.783  0.00  0.00    +0.000 A 
ATOM     10  C   UNL     1       4.938   4.414  19.257  0.00  0.00    +0.000 A 
BRANCH   5  11
ATOM     11  C   UNL     1       7.167   5.514  18.818  0.00  0.00    +0.000 C 
ATOM     12  O   UNL     1       7.513   5.484  19.990  0.00  0.00    +0.000 OA
BRANCH  11  13
ATOM     13  O   UNL     1       7.827   6.109  17.806  0.00  0.00    +0.000 OA
BRANCH  13  14
ATOM     14  C   UNL     1       7.261   7.356  17.337  0.00  0.00    +0.000 C 
BRANCH  14  16
ATOM     15  C   UNL     1       8.724   9.485  18.477  0.00  0.00    +0.000 C 
ATOM     16  C   UNL     1       8.048   8.502  17.951  0.00  0.00    +0.000 C 
ENDBRANCH  14  16
ENDBRANCH  13  14
ENDBRANCH  11  13
ENDBRANCH   5  11
BRANCH   8  17
ATOM     17  O   UNL     1       2.352   3.176  16.978  0.00  0.00    +0.000 OA
ATOM     18  H   UNL     1       2.068   3.679  16.194  0.00  0.00    +0.000 HD
ENDBRANCH   8  17
ENDBRANCH   1   9
BRANCH   2  19
ATOM     19  C   UNL     1       2.638   5.655  20.732  0.00  0.00    +0.000 C 
BRANCH  19  20
ATOM     20  O   UNL     1       1.632   6.667  20.751  0.00  0.00    +0.000 OA
BRANCH  20  21
ATOM     21  C   UNL     1       1.784   7.590  19.727  0.00  0.00    +0.000 A 
ATOM     22  C   UNL     1       2.333   7.219  18.474  0.00  0.00    +0.000 A 
ATOM     23  C   UNL     1       2.571   8.144  17.470  0.00  0.00    +0.000 A 
ATOM     24  C   UNL     1       2.251   9.472  17.687  0.00  0.00    +0.000 A 
ATOM     25  C   UNL     1       1.658   9.853  18.883  0.00  0.00    +0.000 A 
ATOM     26  C   UNL     1       1.379   8.933  19.923  0.00  0.00    +0.000 A 
BRANCH  26  27
ATOM     27  C   UNL     1       0.607   9.444  21.127  0.00  0.00    +0.000 C 
ATOM     28  N   UNL     1       0.640   8.697  22.351  0.00  0.00    +0.000 NA
ATOM     29  N   UNL     1       1.421   9.655  22.308  0.00  0.00    +0.000 NA
BRANCH  27  30
ATOM     30  C   UNL     1      -0.461  10.479  20.883  0.00  0.00    +0.000 C 
ATOM     31  F   UNL     1       0.063  11.700  20.594  0.00  0.00    +0.000 F 
ATOM     32  F   UNL     1      -1.275  10.142  19.858  0.00  0.00    +0.000 F 
ATOM     33  F   UNL     1      -1.249  10.650  21.987  0.00  0.00    +0.000 F 
ENDBRANCH  27  30
ENDBRANCH  26  27
ENDBRANCH  20  21
ENDBRANCH  19  20
ENDBRANCH   2  19
TORSDOF 11
ENDMDL
