MODEL 1
REMARK VINA RESULT:      -6.5      0.000      0.000
REMARK  Name = 
REMARK  8 active torsions:
REMARK  status: ('A' for Active; 'I' for Inactive)
REMARK    1  A    between atoms: C_1  and  C_2
REMARK    2  A    between atoms: C_2  and  C_3
REMARK    3  A    between atoms: C_2  and  C_4
REMARK    4  A    between atoms: C_2  and  C_5
REMARK    5  A    between atoms: N_7  and  C_8
REMARK    6  A    between atoms: C_8  and  C_9
REMARK    7  A    between atoms: C_9  and  O_10
REMARK    8  A    between atoms: C_9  and  C_11
REMARK                            x       y       z     vdW  Elec       q    Type
REMARK                         _______ _______ _______ _____ _____    ______ ____
ROOT
ATOM      1  C   UNL     1       4.857   6.068  18.238  0.00  0.00    +0.000 C 
ENDROOT
BRANCH   1   2
ATOM      2  C   UNL     1       5.525   5.429  17.024  0.00  0.00    +0.000 A 
ATOM      3  C   UNL     1       6.773   5.893  16.551  0.00  0.00    +0.000 A 
ATOM      4 CL   UNL     1       7.654   7.163  17.331  0.00  0.00    +0.000 Cl
ATOM      5  C   UNL     1       7.371   5.352  15.402  0.00  0.00    +0.000 A 
ATOM      6  C   UNL     1       6.757   4.326  14.700  0.00  0.00    +0.000 A 
ATOM      7  C   UNL     1       5.535   3.836  15.145  0.00  0.00    +0.000 A 
ATOM      8  C   UNL     1       4.927   4.380  16.287  0.00  0.00    +0.000 A 
ATOM      9 CL   UNL     1       3.375   3.727  16.692  0.00  0.00    +0.000 Cl
ENDBRANCH   1   2
BRANCH   1  10
ATOM     10  O   UNL     1       3.525   6.512  17.917  0.00  0.00    +0.000 OA
ATOM     11  H   UNL     1       3.432   7.433  18.212  0.00  0.00    +0.000 HD
ENDBRANCH   1  10
BRANCH   1  12
ATOM     12  C   UNL     1       4.798   5.163  19.493  0.00  0.00    +0.000 C 
BRANCH  12  15
ATOM     13  C   UNL     1       3.149   3.406  20.092  0.00  0.00    +0.000 C 
ATOM     14  O   UNL     1       4.015   2.536  20.084  0.00  0.00    +0.000 OA
ATOM     15  N   UNL     1       3.436   4.715  19.780  0.00  0.00    +0.000 N 
ATOM     16  H   UNL     1       2.785   5.434  20.067  0.00  0.00    +0.000 HD
BRANCH  13  18
ATOM     17  C   UNL     1       0.867   4.425  20.417  0.00  0.00    +0.000 C 
ATOM     18  C   UNL     1       1.667   3.110  20.419  0.00  0.00    +0.000 C 
ATOM     19  C   UNL     1       1.565   2.475  21.814  0.00  0.00    +0.000 C 
ATOM     20  C   UNL     1       1.059   2.166  19.371  0.00  0.00    +0.000 C 
ENDBRANCH  13  18
ENDBRANCH  12  15
ENDBRANCH   1  12
TORSDOF 5
ENDMDL
MODEL 2
REMARK VINA RESULT:      -6.5      0.109      1.038
REMARK  Name = 
REMARK  8 active torsions:
REMARK  status: ('A' for Active; 'I' for Inactive)
REMARK    1  A    between atoms: C_1  and  C_2
REMARK    2  A    between atoms: C_2  and  C_3
REMARK    3  A    between atoms: C_2  and  C_4
REMARK    4  A    between atoms: C_2  and  C_5
REMARK    5  A    between atoms: N_7  and  C_8
REMARK    6  A    between atoms: C_8  and  C_9
REMARK    7  A    between atoms: C_9  and  O_10
REMARK    8  A    between atoms: C_9  and  C_11
REMARK                            x       y       z     vdW  Elec       q    Type
REMARK                         _______ _______ _______ _____ _____    ______ ____
ROOT
ATOM      1  C   UNL     1       4.767   6.161  18.189  0.00  0.00    +0.000 C 
ENDROOT
BRANCH   1   2
ATOM      2  C   UNL     1       5.462   5.475  17.016  0.00  0.00    +0.000 A 
ATOM      3  C   UNL     1       6.726   5.913  16.562  0.00  0.00    +0.000 A 
ATOM      4 CL   UNL     1       7.596   7.204  17.320  0.00  0.00    +0.000 Cl
ATOM      5  C   UNL     1       7.350   5.329  15.448  0.00  0.00    +0.000 A 
ATOM      6  C   UNL     1       6.747   4.283  14.766  0.00  0.00    +0.000 A 
ATOM      7  C   UNL     1       5.509   3.818  15.195  0.00  0.00    +0.000 A 
ATOM      8  C   UNL     1       4.876   4.405  16.300  0.00  0.00    +0.000 A 
ATOM      9 CL   UNL     1       3.309   3.778  16.686  0.00  0.00    +0.000 Cl
ENDBRANCH   1   2
BRANCH   1  10
ATOM     10  O   UNL     1       3.415   6.519  17.846  0.00  0.00    +0.000 OA
ATOM     11  H   UNL     1       2.855   6.374  18.626  0.00  0.00    +0.000 HD
ENDBRANCH   1  10
BRANCH   1  12
ATOM     12  C   UNL     1       4.754   5.339  19.501  0.00  0.00    +0.000 C 
BRANCH  12  15
ATOM     13  C   UNL     1       3.199   3.483  20.054  0.00  0.00    +0.000 C 
ATOM     14  O   UNL     1       4.099   2.653  19.969  0.00  0.00    +0.000 OA
ATOM     15  N   UNL     1       3.421   4.818  19.806  0.00  0.00    +0.000 N 
ATOM     16  H   UNL     1       2.752   5.492  20.153  0.00  0.00    +0.000 HD
BRANCH  13  18
ATOM     17  C   UNL     1       1.208   2.088  19.389  0.00  0.00    +0.000 C 
ATOM     18  C   UNL     1       1.743   3.108  20.411  0.00  0.00    +0.000 C 
ATOM     19  C   UNL     1       0.860   4.364  20.360  0.00  0.00    +0.000 C 
ATOM     20  C   UNL     1       1.673   2.479  21.811  0.00  0.00    +0.000 C 
ENDBRANCH  13  18
ENDBRANCH  12  15
ENDBRANCH   1  12
TORSDOF 5
ENDMDL
MODEL 3
REMARK VINA RESULT:      -6.5      0.079      1.033
REMARK  Name = 
REMARK  8 active torsions:
REMARK  status: ('A' for Active; 'I' for Inactive)
REMARK    1  A    between atoms: C_1  and  C_2
REMARK    2  A    between atoms: C_2  and  C_3
REMARK    3  A    between atoms: C_2  and  C_4
REMARK    4  A    between atoms: C_2  and  C_5
REMARK    5  A    between atoms: N_7  and  C_8
REMARK    6  A    between atoms: C_8  and  C_9
REMARK    7  A    between atoms: C_9  and  O_10
REMARK    8  A    between atoms: C_9  and  C_11
REMARK                            x       y       z     vdW  Elec       q    Type
REMARK                         _______ _______ _______ _____ _____    ______ ____
ROOT
ATOM      1  C   UNL     1       4.829   6.128  18.191  0.00  0.00    +0.000 C 
ENDROOT
BRANCH   1   2
ATOM      2  C   UNL     1       5.491   5.447  16.996  0.00  0.00    +0.000 A 
ATOM      3  C   UNL     1       6.749   5.877  16.518  0.00  0.00    +0.000 A 
ATOM      4 CL   UNL     1       7.650   7.151  17.270  0.00  0.00    +0.000 Cl
ATOM      5  C   UNL     1       7.342   5.297  15.385  0.00  0.00    +0.000 A 
ATOM      6  C   UNL     1       6.712   4.266  14.705  0.00  0.00    +0.000 A 
ATOM      7  C   UNL     1       5.480   3.809  15.157  0.00  0.00    +0.000 A 
ATOM      8  C   UNL     1       4.877   4.391  16.282  0.00  0.00    +0.000 A 
ATOM      9 CL   UNL     1       3.313   3.776  16.696  0.00  0.00    +0.000 Cl
ENDBRANCH   1   2
BRANCH   1  10
ATOM     10  O   UNL     1       3.494   6.556  17.863  0.00  0.00    +0.000 OA
ATOM     11  H   UNL     1       3.111   5.910  17.246  0.00  0.00    +0.000 HD
ENDBRANCH   1  10
BRANCH   1  12
ATOM     12  C   UNL     1       4.782   5.269  19.478  0.00  0.00    +0.000 C 
BRANCH  12  15
ATOM     13  C   UNL     1       3.147   3.486  20.039  0.00  0.00    +0.000 C 
ATOM     14  O   UNL     1       4.013   2.619  19.971  0.00  0.00    +0.000 OA
ATOM     15  N   UNL     1       3.427   4.808  19.778  0.00  0.00    +0.000 N 
ATOM     16  H   UNL     1       2.783   5.513  20.112  0.00  0.00    +0.000 HD
BRANCH  13  18
ATOM     17  C   UNL     1       1.605   2.479  21.759  0.00  0.00    +0.000 C 
ATOM     18  C   UNL     1       1.674   3.175  20.388  0.00  0.00    +0.000 C 
ATOM     19  C   UNL     1       1.081   2.234  19.328  0.00  0.00    +0.000 C 
ATOM     20  C   UNL     1       0.848   4.469  20.455  0.00  0.00    +0.000 C 
ENDBRANCH  13  18
ENDBRANCH  12  15
ENDBRANCH   1  12
TORSDOF 5
ENDMDL
MODEL 4
REMARK VINA RESULT:      -6.4      0.058      2.162
REMARK  Name = 
REMARK  8 active torsions:
REMARK  status: ('A' for Active; 'I' for Inactive)
REMARK    1  A    between atoms: C_1  and  C_2
REMARK    2  A    between atoms: C_2  and  C_3
REMARK    3  A    between atoms: C_2  and  C_4
REMARK    4  A    between atoms: C_2  and  C_5
REMARK    5  A    between atoms: N_7  and  C_8
REMARK    6  A    between atoms: C_8  and  C_9
REMARK    7  A    between atoms: C_9  and  O_10
REMARK    8  A    between atoms: C_9  and  C_11
REMARK                            x       y       z     vdW  Elec       q    Type
REMARK                         _______ _______ _______ _____ _____    ______ ____
ROOT
ATOM      1  C   UNL     1       4.834   6.115  18.249  0.00  0.00    +0.000 C 
ENDROOT
BRANCH   1   2
ATOM      2  C   UNL     1       5.502   5.518  17.013  0.00  0.00    +0.000 A 
ATOM      3  C   UNL     1       4.897   4.460  16.299  0.00  0.00    +0.000 A 
ATOM      4 CL   UNL     1       3.352   3.805  16.727  0.00  0.00    +0.000 Cl
ATOM      5  C   UNL     1       5.526   3.863  15.194  0.00  0.00    +0.000 A 
ATOM      6  C   UNL     1       6.765   4.311  14.759  0.00  0.00    +0.000 A 
ATOM      7  C   UNL     1       7.382   5.359  15.430  0.00  0.00    +0.000 A 
ATOM      8  C   UNL     1       6.762   5.952  16.541  0.00  0.00    +0.000 A 
ATOM      9 CL   UNL     1       7.669   7.200  17.327  0.00  0.00    +0.000 Cl
ENDBRANCH   1   2
BRANCH   1  10
ATOM     10  O   UNL     1       3.494   6.549  17.949  0.00  0.00    +0.000 OA
ATOM     11  H   UNL     1       3.231   6.156  17.100  0.00  0.00    +0.000 HD
ENDBRANCH   1  10
BRANCH   1  12
ATOM     12  C   UNL     1       4.796   5.174  19.478  0.00  0.00    +0.000 C 
BRANCH  12  15
ATOM     13  C   UNL     1       3.141   3.413  20.048  0.00  0.00    +0.000 C 
ATOM     14  O   UNL     1       3.995   2.534  19.977  0.00  0.00    +0.000 OA
ATOM     15  N   UNL     1       3.437   4.731  19.786  0.00  0.00    +0.000 N 
ATOM     16  H   UNL     1       2.804   5.445  20.123  0.00  0.00    +0.000 HD
BRANCH  13  18
ATOM     17  C   UNL     1       0.872   4.440  20.434  0.00  0.00    +0.000 C 
ATOM     18  C   UNL     1       1.666   3.122  20.406  0.00  0.00    +0.000 C 
ATOM     19  C   UNL     1       1.591   2.473  21.796  0.00  0.00    +0.000 C 
ATOM     20  C   UNL     1       1.029   2.191  19.362  0.00  0.00    +0.000 C 
ENDBRANCH  13  18
ENDBRANCH  12  15
ENDBRANCH   1  12
TORSDOF 5
ENDMDL
MODEL 5
REMARK VINA RESULT:      -6.4      0.198      2.404
REMARK  Name = 
REMARK  8 active torsions:
REMARK  status: ('A' for Active; 'I' for Inactive)
REMARK    1  A    between atoms: C_1  and  C_2
REMARK    2  A    between atoms: C_2  and  C_3
REMARK    3  A    between atoms: C_2  and  C_4
REMARK    4  A    between atoms: C_2  and  C_5
REMARK    5  A    between atoms: N_7  and  C_8
REMARK    6  A    between atoms: C_8  and  C_9
REMARK    7  A    between atoms: C_9  and  O_10
REMARK    8  A    between atoms: C_9  and  C_11
REMARK                            x       y       z     vdW  Elec       q    Type
REMARK                         _______ _______ _______ _____ _____    ______ ____
ROOT
ATOM      1  C   UNL     1       4.645   6.225  18.135  0.00  0.00    +0.000 C 
ENDROOT
BRANCH   1   2
ATOM      2  C   UNL     1       5.378   5.552  16.978  0.00  0.00    +0.000 A 
ATOM      3  C   UNL     1       4.808   4.454  16.296  0.00  0.00    +0.000 A 
ATOM      4 CL   UNL     1       3.238   3.830  16.676  0.00  0.00    +0.000 Cl
ATOM      5  C   UNL     1       5.496   3.788  15.268  0.00  0.00    +0.000 A 
ATOM      6  C   UNL     1       6.759   4.205  14.877  0.00  0.00    +0.000 A 
ATOM      7  C   UNL     1       7.344   5.292  15.517  0.00  0.00    +0.000 A 
ATOM      8  C   UNL     1       6.666   5.953  16.552  0.00  0.00    +0.000 A 
ATOM      9 CL   UNL     1       7.534   7.245  17.311  0.00  0.00    +0.000 Cl
ENDBRANCH   1   2
BRANCH   1  10
ATOM     10  O   UNL     1       3.273   6.493  17.787  0.00  0.00    +0.000 OA
ATOM     11  H   UNL     1       3.018   5.888  17.070  0.00  0.00    +0.000 HD
ENDBRANCH   1  10
BRANCH   1  12
ATOM     12  C   UNL     1       4.683   5.438  19.467  0.00  0.00    +0.000 C 
BRANCH  12  15
ATOM     13  C   UNL     1       3.196   3.525  20.015  0.00  0.00    +0.000 C 
ATOM     14  O   UNL     1       4.111   2.722  19.866  0.00  0.00    +0.000 OA
ATOM     15  N   UNL     1       3.376   4.873  19.806  0.00  0.00    +0.000 N 
ATOM     16  H   UNL     1       2.705   5.518  20.202  0.00  0.00    +0.000 HD
BRANCH  13  18
ATOM     17  C   UNL     1       1.241   2.051  19.419  0.00  0.00    +0.000 C 
ATOM     18  C   UNL     1       1.764   3.101  20.415  0.00  0.00    +0.000 C 
ATOM     19  C   UNL     1       0.835   4.323  20.374  0.00  0.00    +0.000 C 
ATOM     20  C   UNL     1       1.755   2.486  21.823  0.00  0.00    +0.000 C 
ENDBRANCH  13  18
ENDBRANCH  12  15
ENDBRANCH   1  12
TORSDOF 5
ENDMDL
MODEL 6
REMARK VINA RESULT:      -6.4      0.087      2.397
REMARK  Name = 
REMARK  8 active torsions:
REMARK  status: ('A' for Active; 'I' for Inactive)
REMARK    1  A    between atoms: C_1  and  C_2
REMARK    2  A    between atoms: C_2  and  C_3
REMARK    3  A    between atoms: C_2  and  C_4
REMARK    4  A    between atoms: C_2  and  C_5
REMARK    5  A    between atoms: N_7  and  C_8
REMARK    6  A    between atoms: C_8  and  C_9
REMARK    7  A    between atoms: C_9  and  O_10
REMARK    8  A    between atoms: C_9  and  C_11
REMARK                            x       y       z     vdW  Elec       q    Type
REMARK                         _______ _______ _______ _____ _____    ______ ____
ROOT
ATOM      1  C   UNL     1       4.881   6.081  18.189  0.00  0.00    +0.000 C 
ENDROOT
BRANCH   1   2
ATOM      2  C   UNL     1       5.537   5.481  16.948  0.00  0.00    +0.000 A 
ATOM      3  C   UNL     1       4.923   4.424  16.240  0.00  0.00    +0.000 A 
ATOM      4 CL   UNL     1       3.380   3.773  16.684  0.00  0.00    +0.000 Cl
ATOM      5  C   UNL     1       5.541   3.824  15.131  0.00  0.00    +0.000 A 
ATOM      6  C   UNL     1       6.777   4.267  14.685  0.00  0.00    +0.000 A 
ATOM      7  C   UNL     1       7.402   5.316  15.349  0.00  0.00    +0.000 A 
ATOM      8  C   UNL     1       6.794   5.912  16.464  0.00  0.00    +0.000 A 
ATOM      9 CL   UNL     1       7.711   7.158  17.241  0.00  0.00    +0.000 Cl
ENDBRANCH   1   2
BRANCH   1  10
ATOM     10  O   UNL     1       3.542   6.524  17.898  0.00  0.00    +0.000 OA
ATOM     11  H   UNL     1       3.594   7.241  17.244  0.00  0.00    +0.000 HD
ENDBRANCH   1  10
BRANCH   1  12
ATOM     12  C   UNL     1       4.846   5.141  19.418  0.00  0.00    +0.000 C 
BRANCH  12  15
ATOM     13  C   UNL     1       3.149   3.433  20.027  0.00  0.00    +0.000 C 
ATOM     14  O   UNL     1       3.971   2.526  19.928  0.00  0.00    +0.000 OA
ATOM     15  N   UNL     1       3.481   4.741  19.762  0.00  0.00    +0.000 N 
ATOM     16  H   UNL     1       2.882   5.474  20.119  0.00  0.00    +0.000 HD
BRANCH  13  18
ATOM     17  C   UNL     1       1.620   2.499  21.799  0.00  0.00    +0.000 C 
ATOM     18  C   UNL     1       1.675   3.189  20.425  0.00  0.00    +0.000 C 
ATOM     19  C   UNL     1       1.008   2.273  19.387  0.00  0.00    +0.000 C 
ATOM     20  C   UNL     1       0.911   4.518  20.514  0.00  0.00    +0.000 C 
ENDBRANCH  13  18
ENDBRANCH  12  15
ENDBRANCH   1  12
TORSDOF 5
ENDMDL
MODEL 7
REMARK VINA RESULT:      -6.2      2.562      5.910
REMARK  Name = 
REMARK  8 active torsions:
REMARK  status: ('A' for Active; 'I' for Inactive)
REMARK    1  A    between atoms: C_1  and  C_2
REMARK    2  A    between atoms: C_2  and  C_3
REMARK    3  A    between atoms: C_2  and  C_4
REMARK    4  A    between atoms: C_2  and  C_5
REMARK    5  A    between atoms: N_7  and  C_8
REMARK    6  A    between atoms: C_8  and  C_9
REMARK    7  A    between atoms: C_9  and  O_10
REMARK    8  A    between atoms: C_9  and  C_11
REMARK                            x       y       z     vdW  Elec       q    Type
REMARK                         _______ _______ _______ _____ _____    ______ ____
ROOT
ATOM      1  C   UNL     1       3.701   2.522  17.956  0.00  0.00    +0.000 C 
ENDROOT
BRANCH   1   2
ATOM      2  C   UNL     1       2.908   2.923  19.197  0.00  0.00    +0.000 A 
ATOM      3  C   UNL     1       3.331   2.533  20.488  0.00  0.00    +0.000 A 
ATOM      4 CL   UNL     1       4.784   1.633  20.764  0.00  0.00    +0.000 Cl
ATOM      5  C   UNL     1       2.580   2.845  21.633  0.00  0.00    +0.000 A 
ATOM      6  C   UNL     1       1.401   3.567  21.531  0.00  0.00    +0.000 A 
ATOM      7  C   UNL     1       0.963   3.979  20.278  0.00  0.00    +0.000 A 
ATOM      8  C   UNL     1       1.703   3.660  19.129  0.00  0.00    +0.000 A 
ATOM      9 CL   UNL     1       1.012   4.172  17.626  0.00  0.00    +0.000 Cl
ENDBRANCH   1   2
BRANCH   1  10
ATOM     10  O   UNL     1       3.019   1.487  17.224  0.00  0.00    +0.000 OA
ATOM     11  H   UNL     1       3.176   1.631  16.276  0.00  0.00    +0.000 HD
ENDBRANCH   1  10
BRANCH   1  12
ATOM     12  C   UNL     1       4.026   3.691  16.994  0.00  0.00    +0.000 C 
BRANCH  12  15
ATOM     13  C   UNL     1       5.675   5.196  18.081  0.00  0.00    +0.000 C 
ATOM     14  O   UNL     1       4.794   5.760  18.722  0.00  0.00    +0.000 OA
ATOM     15  N   UNL     1       5.387   4.194  17.184  0.00  0.00    +0.000 N 
ATOM     16  H   UNL     1       6.132   3.573  16.896  0.00  0.00    +0.000 HD
BRANCH  13  18
ATOM     17  C   UNL     1       7.420   6.911  17.477  0.00  0.00    +0.000 C 
ATOM     18  C   UNL     1       7.170   5.574  18.196  0.00  0.00    +0.000 C 
ATOM     19  C   UNL     1       8.028   4.488  17.529  0.00  0.00    +0.000 C 
ATOM     20  C   UNL     1       7.577   5.728  19.670  0.00  0.00    +0.000 C 
ENDBRANCH  13  18
ENDBRANCH  12  15
ENDBRANCH   1  12
TORSDOF 5
ENDMDL
MODEL 8
REMARK VINA RESULT:      -6.0      3.647      5.699
REMARK  Name = 
REMARK  8 active torsions:
REMARK  status: ('A' for Active; 'I' for Inactive)
REMARK    1  A    between atoms: C_1  and  C_2
REMARK    2  A    between atoms: C_2  and  C_3
REMARK    3  A    between atoms: C_2  and  C_4
REMARK    4  A    between atoms: C_2  and  C_5
REMARK    5  A    between atoms: N_7  and  C_8
REMARK    6  A    between atoms: C_8  and  C_9
REMARK    7  A    between atoms: C_9  and  O_10
REMARK    8  A    between atoms: C_9  and  C_11
REMARK                            x       y       z     vdW  Elec       q    Type
REMARK                         _______ _______ _______ _____ _____    ______ ____
ROOT
ATOM      1  C   UNL     1       3.615   6.050  18.847  0.00  0.00    +0.000 C 
ENDROOT
BRANCH   1   2
ATOM      2  C   UNL     1       2.820   4.753  18.715  0.00  0.00    +0.000 A 
ATOM      3  C   UNL     1       1.803   4.427  19.640  0.00  0.00    +0.000 A 
ATOM      4 CL   UNL     1       1.347   5.477  20.938  0.00  0.00    +0.000 Cl
ATOM      5  C   UNL     1       1.104   3.211  19.565  0.00  0.00    +0.000 A 
ATOM      6  C   UNL     1       1.383   2.295  18.562  0.00  0.00    +0.000 A 
ATOM      7  C   UNL     1       2.368   2.591  17.628  0.00  0.00    +0.000 A 
ATOM      8  C   UNL     1       3.078   3.799  17.704  0.00  0.00    +0.000 A 
ATOM      9 CL   UNL     1       4.325   4.012  16.522  0.00  0.00    +0.000 Cl
ENDBRANCH   1   2
BRANCH   1  10
ATOM     10  O   UNL     1       5.002   5.837  18.525  0.00  0.00    +0.000 OA
ATOM     11  H   UNL     1       5.298   5.029  18.977  0.00  0.00    +0.000 HD
ENDBRANCH   1  10
BRANCH   1  12
ATOM     12  C   UNL     1       3.075   7.226  17.996  0.00  0.00    +0.000 C 
BRANCH  12  15
ATOM     13  C   UNL     1       1.739   9.297  18.301  0.00  0.00    +0.000 C 
ATOM     14  O   UNL     1       2.206   9.794  17.281  0.00  0.00    +0.000 OA
ATOM     15  N   UNL     1       2.133   8.056  18.747  0.00  0.00    +0.000 N 
ATOM     16  H   UNL     1       1.541   7.569  19.406  0.00  0.00    +0.000 HD
BRANCH  13  18
ATOM     17  C   UNL     1       1.186  11.450  19.488  0.00  0.00    +0.000 C 
ATOM     18  C   UNL     1       0.700  10.022  19.187  0.00  0.00    +0.000 C 
ATOM     19  C   UNL     1       0.540   9.267  20.515  0.00  0.00    +0.000 C 
ATOM     20  C   UNL     1      -0.657  10.108  18.471  0.00  0.00    +0.000 C 
ENDBRANCH  13  18
ENDBRANCH  12  15
ENDBRANCH   1  12
TORSDOF 5
ENDMDL
MODEL 9
REMARK VINA RESULT:      -6.0      2.554      5.787
REMARK  Name = 
REMARK  8 active torsions:
REMARK  status: ('A' for Active; 'I' for Inactive)
REMARK    1  A    between atoms: C_1  and  C_2
REMARK    2  A    between atoms: C_2  and  C_3
REMARK    3  A    between atoms: C_2  and  C_4
REMARK    4  A    between atoms: C_2  and  C_5
REMARK    5  A    between atoms: N_7  and  C_8
REMARK    6  A    between atoms: C_8  and  C_9
REMARK    7  A    between atoms: C_9  and  O_10
REMARK    8  A    between atoms: C_9  and  C_11
REMARK                            x       y       z     vdW  Elec       q    Type
REMARK                         _______ _______ _______ _____ _____    ______ ____
ROOT
ATOM      1  C   UNL     1       2.598   4.757  17.909  0.00  0.00    +0.000 C 
ENDROOT
BRANCH   1   2
ATOM      2  C   UNL     1       2.576   3.998  19.234  0.00  0.00    +0.000 A 
ATOM      3  C   UNL     1       2.967   2.643  19.302  0.00  0.00    +0.000 A 
ATOM      4 CL   UNL     1       3.546   1.766  17.926  0.00  0.00    +0.000 Cl
ATOM      5  C   UNL     1       2.897   1.916  20.502  0.00  0.00    +0.000 A 
ATOM      6  C   UNL     1       2.452   2.519  21.669  0.00  0.00    +0.000 A 
ATOM      7  C   UNL     1       2.073   3.856  21.641  0.00  0.00    +0.000 A 
ATOM      8  C   UNL     1       2.131   4.584  20.442  0.00  0.00    +0.000 A 
ATOM      9 CL   UNL     1       1.564   6.217  20.529  0.00  0.00    +0.000 Cl
ENDBRANCH   1   2
BRANCH   1  10
ATOM     10  O   UNL     1       1.270   4.879  17.366  0.00  0.00    +0.000 OA
ATOM     11  H   UNL     1       0.739   5.415  17.979  0.00  0.00    +0.000 HD
ENDBRANCH   1  10
BRANCH   1  12
ATOM     12  C   UNL     1       3.245   6.162  17.982  0.00  0.00    +0.000 C 
BRANCH  12  15
ATOM     13  C   UNL     1       5.634   5.791  18.550  0.00  0.00    +0.000 C 
ATOM     14  O   UNL     1       5.359   5.561  19.723  0.00  0.00    +0.000 OA
ATOM     15  N   UNL     1       4.665   6.128  17.633  0.00  0.00    +0.000 N 
ATOM     16  H   UNL     1       4.877   6.032  16.649  0.00  0.00    +0.000 HD
BRANCH  13  18
ATOM     17  C   UNL     1       7.383   7.066  17.259  0.00  0.00    +0.000 C 
ATOM     18  C   UNL     1       7.080   5.754  18.005  0.00  0.00    +0.000 C 
ATOM     19  C   UNL     1       7.230   4.583  17.021  0.00  0.00    +0.000 C 
ATOM     20  C   UNL     1       8.088   5.601  19.154  0.00  0.00    +0.000 C 
ENDBRANCH  13  18
ENDBRANCH  12  15
ENDBRANCH   1  12
TORSDOF 5
ENDMDL
