MODEL 1
REMARK VINA RESULT:      -7.1      0.000      0.000
REMARK  Name = 
REMARK  6 active torsions:
REMARK  status: ('A' for Active; 'I' for Inactive)
REMARK    1  A    between atoms: C_1  and  O_2
REMARK    2  A    between atoms: O_2  and  C_3
REMARK    3  A    between atoms: C_3  and  O_4
REMARK    4  A    between atoms: O_4  and  C_5
REMARK    5  A    between atoms: C_14  and  C_15
REMARK    6  A    between atoms: C_17  and  C_18
REMARK                            x       y       z     vdW  Elec       q    Type
REMARK                         _______ _______ _______ _____ _____    ______ ____
ROOT
ATOM      1  C   UNL     1       2.501   4.384  18.113  0.00  0.00    +0.000 A 
ATOM      2  C   UNL     1       3.088   3.240  17.574  0.00  0.00    +0.000 A 
ATOM      3  C   UNL     1       4.385   3.285  17.083  0.00  0.00    +0.000 A 
ATOM      4  C   UNL     1       5.109   4.478  17.087  0.00  0.00    +0.000 A 
ATOM      5  C   UNL     1       6.399   4.471  16.532  0.00  0.00    +0.000 A 
ATOM      6  C   UNL     1       7.162   5.628  16.482  0.00  0.00    +0.000 A 
ATOM      7  C   UNL     1       6.651   6.808  17.006  0.00  0.00    +0.000 A 
ATOM      8  C   UNL     1       5.374   6.820  17.577  0.00  0.00    +0.000 A 
ATOM      9  C   UNL     1       4.544   5.667  17.628  0.00  0.00    +0.000 A 
ATOM     10  C   UNL     1       3.208   5.616  18.172  0.00  0.00    +0.000 A 
ENDROOT
BRANCH  10  11
ATOM     11  C   UNL     1       2.580   6.836  18.770  0.00  0.00    +0.000 A 
ATOM     12  N   UNL     1       2.231   6.975  20.039  0.00  0.00    +0.000 NA
ATOM     13  C   UNL     1       1.628   8.212  20.271  0.00  0.00    +0.000 A 
ATOM     14  C   UNL     1       1.618   9.048  19.173  0.00  0.00    +0.000 A 
ATOM     15  S   UNL     1       2.149   8.203  17.793  0.00  0.00    +0.000 S 
BRANCH  13  16
ATOM     16  C   UNL     1       1.053   8.531  21.625  0.00  0.00    +0.000 C 
ATOM     17  O   UNL     1       1.390   9.869  22.048  0.00  0.00    +0.000 OA
ATOM     18  C   UNL     1       0.186  10.382  22.607  0.00  0.00    +0.000 C 
ATOM     19  C   UNL     1      -0.894   9.697  21.818  0.00  0.00    +0.000 C 
ATOM     20  O   UNL     1      -0.384   8.380  21.632  0.00  0.00    +0.000 OA
ENDBRANCH  13  16
ENDBRANCH  10  11
BRANCH   1  21
ATOM     21  O   UNL     1       1.188   4.362  18.526  0.00  0.00    +0.000 OA
BRANCH  21  22
ATOM     22  C   UNL     1       0.839   3.399  19.517  0.00  0.00    +0.000 C 
BRANCH  22  24
ATOM     23  C   UNL     1       1.878   2.738  21.533  0.00  0.00    +0.000 C 
ATOM     24  O   UNL     1       1.265   3.802  20.819  0.00  0.00    +0.000 OA
ENDBRANCH  22  24
ENDBRANCH  21  22
ENDBRANCH   1  21
TORSDOF 5
ENDMDL
MODEL 2
REMARK VINA RESULT:      -7.0      1.609      1.978
REMARK  Name = 
REMARK  6 active torsions:
REMARK  status: ('A' for Active; 'I' for Inactive)
REMARK    1  A    between atoms: C_1  and  O_2
REMARK    2  A    between atoms: O_2  and  C_3
REMARK    3  A    between atoms: C_3  and  O_4
REMARK    4  A    between atoms: O_4  and  C_5
REMARK    5  A    between atoms: C_14  and  C_15
REMARK    6  A    between atoms: C_17  and  C_18
REMARK                            x       y       z     vdW  Elec       q    Type
REMARK                         _______ _______ _______ _____ _____    ______ ____
ROOT
ATOM      1  C   UNL     1       2.567   4.315  17.950  0.00  0.00    +0.000 A 
ATOM      2  C   UNL     1       3.221   3.213  17.401  0.00  0.00    +0.000 A 
ATOM      3  C   UNL     1       4.534   3.325  16.967  0.00  0.00    +0.000 A 
ATOM      4  C   UNL     1       5.209   4.544  17.038  0.00  0.00    +0.000 A 
ATOM      5  C   UNL     1       6.520   4.605  16.538  0.00  0.00    +0.000 A 
ATOM      6  C   UNL     1       7.236   5.792  16.556  0.00  0.00    +0.000 A 
ATOM      7  C   UNL     1       6.657   6.934  17.095  0.00  0.00    +0.000 A 
ATOM      8  C   UNL     1       5.359   6.877  17.612  0.00  0.00    +0.000 A 
ATOM      9  C   UNL     1       4.574   5.692  17.591  0.00  0.00    +0.000 A 
ATOM     10  C   UNL     1       3.221   5.571  18.077  0.00  0.00    +0.000 A 
ENDROOT
BRANCH  10  11
ATOM     11  C   UNL     1       2.520   6.745  18.686  0.00  0.00    +0.000 A 
ATOM     12  N   UNL     1       2.098   7.813  18.028  0.00  0.00    +0.000 NA
ATOM     13  C   UNL     1       1.525   8.750  18.888  0.00  0.00    +0.000 A 
ATOM     14  C   UNL     1       1.430   8.328  20.199  0.00  0.00    +0.000 A 
ATOM     15  S   UNL     1       2.266   6.858  20.399  0.00  0.00    +0.000 S 
BRANCH  13  16
ATOM     16  C   UNL     1       1.082  10.089  18.362  0.00  0.00    +0.000 C 
ATOM     17  O   UNL     1      -0.321  10.093  18.022  0.00  0.00    +0.000 OA
ATOM     18  C   UNL     1      -0.807  11.334  18.522  0.00  0.00    +0.000 C 
ATOM     19  C   UNL     1       0.053  11.595  19.725  0.00  0.00    +0.000 C 
ATOM     20  O   UNL     1       1.340  11.139  19.319  0.00  0.00    +0.000 OA
ENDBRANCH  13  16
ENDBRANCH  10  11
BRANCH   1  21
ATOM     21  O   UNL     1       1.240   4.229  18.307  0.00  0.00    +0.000 OA
BRANCH  21  22
ATOM     22  C   UNL     1       0.872   3.157  19.171  0.00  0.00    +0.000 C 
BRANCH  22  24
ATOM     23  C   UNL     1       1.569   2.823  21.404  0.00  0.00    +0.000 C 
ATOM     24  O   UNL     1       0.756   3.589  20.528  0.00  0.00    +0.000 OA
ENDBRANCH  22  24
ENDBRANCH  21  22
ENDBRANCH   1  21
TORSDOF 5
ENDMDL
MODEL 3
REMARK VINA RESULT:      -7.0      1.944      4.110
REMARK  Name = 
REMARK  6 active torsions:
REMARK  status: ('A' for Active; 'I' for Inactive)
REMARK    1  A    between atoms: C_1  and  O_2
REMARK    2  A    between atoms: O_2  and  C_3
REMARK    3  A    between atoms: C_3  and  O_4
REMARK    4  A    between atoms: O_4  and  C_5
REMARK    5  A    between atoms: C_14  and  C_15
REMARK    6  A    between atoms: C_17  and  C_18
REMARK                            x       y       z     vdW  Elec       q    Type
REMARK                         _______ _______ _______ _____ _____    ______ ____
ROOT
ATOM      1  C   UNL     1       4.516   5.758  17.529  0.00  0.00    +0.000 A 
ATOM      2  C   UNL     1       5.100   4.608  17.001  0.00  0.00    +0.000 A 
ATOM      3  C   UNL     1       4.456   3.384  17.109  0.00  0.00    +0.000 A 
ATOM      4  C   UNL     1       3.235   3.276  17.775  0.00  0.00    +0.000 A 
ATOM      5  C   UNL     1       2.656   2.002  17.893  0.00  0.00    +0.000 A 
ATOM      6  C   UNL     1       1.457   1.822  18.566  0.00  0.00    +0.000 A 
ATOM      7  C   UNL     1       0.807   2.920  19.113  0.00  0.00    +0.000 A 
ATOM      8  C   UNL     1       1.367   4.195  18.983  0.00  0.00    +0.000 A 
ATOM      9  C   UNL     1       2.607   4.428  18.329  0.00  0.00    +0.000 A 
ATOM     10  C   UNL     1       3.257   5.708  18.187  0.00  0.00    +0.000 A 
ENDROOT
BRANCH  10  11
ATOM     11  C   UNL     1       2.625   6.950  18.734  0.00  0.00    +0.000 A 
ATOM     12  N   UNL     1       2.290   7.148  19.999  0.00  0.00    +0.000 NA
ATOM     13  C   UNL     1       1.679   8.389  20.178  0.00  0.00    +0.000 A 
ATOM     14  C   UNL     1       1.649   9.171  19.041  0.00  0.00    +0.000 A 
ATOM     15  S   UNL     1       2.171   8.265  17.697  0.00  0.00    +0.000 S 
BRANCH  13  16
ATOM     16  C   UNL     1       1.118   8.769  21.522  0.00  0.00    +0.000 C 
ATOM     17  O   UNL     1       1.352  10.160  21.827  0.00  0.00    +0.000 OA
ATOM     18  C   UNL     1       0.124  10.616  22.385  0.00  0.00    +0.000 C 
ATOM     19  C   UNL     1      -0.915   9.782  21.691  0.00  0.00    +0.000 C 
ATOM     20  O   UNL     1      -0.300   8.501  21.591  0.00  0.00    +0.000 OA
ENDBRANCH  13  16
ENDBRANCH  10  11
BRANCH   1  21
ATOM     21  O   UNL     1       5.189   6.959  17.494  0.00  0.00    +0.000 OA
BRANCH  21  22
ATOM     22  C   UNL     1       6.612   6.899  17.443  0.00  0.00    +0.000 C 
BRANCH  22  24
ATOM     23  C   UNL     1       8.053   8.715  17.902  0.00  0.00    +0.000 C 
ATOM     24  O   UNL     1       7.175   8.119  16.958  0.00  0.00    +0.000 OA
ENDBRANCH  22  24
ENDBRANCH  21  22
ENDBRANCH   1  21
TORSDOF 5
ENDMDL
MODEL 4
REMARK VINA RESULT:      -6.9      3.664      6.832
REMARK  Name = 
REMARK  6 active torsions:
REMARK  status: ('A' for Active; 'I' for Inactive)
REMARK    1  A    between atoms: C_1  and  O_2
REMARK    2  A    between atoms: O_2  and  C_3
REMARK    3  A    between atoms: C_3  and  O_4
REMARK    4  A    between atoms: O_4  and  C_5
REMARK    5  A    between atoms: C_14  and  C_15
REMARK    6  A    between atoms: C_17  and  C_18
REMARK                            x       y       z     vdW  Elec       q    Type
REMARK                         _______ _______ _______ _____ _____    ______ ____
ROOT
ATOM      1  C   UNL     1       4.027   3.050  20.217  0.00  0.00    +0.000 A 
ATOM      2  C   UNL     1       2.907   2.778  21.001  0.00  0.00    +0.000 A 
ATOM      3  C   UNL     1       1.932   3.747  21.187  0.00  0.00    +0.000 A 
ATOM      4  C   UNL     1       2.070   5.017  20.627  0.00  0.00    +0.000 A 
ATOM      5  C   UNL     1       1.073   5.970  20.891  0.00  0.00    +0.000 A 
ATOM      6  C   UNL     1       1.164   7.258  20.385  0.00  0.00    +0.000 A 
ATOM      7  C   UNL     1       2.246   7.606  19.588  0.00  0.00    +0.000 A 
ATOM      8  C   UNL     1       3.234   6.658  19.304  0.00  0.00    +0.000 A 
ATOM      9  C   UNL     1       3.201   5.334  19.821  0.00  0.00    +0.000 A 
ATOM     10  C   UNL     1       4.200   4.318  19.596  0.00  0.00    +0.000 A 
ENDROOT
BRANCH  10  11
ATOM     11  C   UNL     1       5.395   4.597  18.739  0.00  0.00    +0.000 A 
ATOM     12  N   UNL     1       5.538   4.228  17.476  0.00  0.00    +0.000 NA
ATOM     13  C   UNL     1       6.784   4.600  16.972  0.00  0.00    +0.000 A 
ATOM     14  C   UNL     1       7.545   5.348  17.847  0.00  0.00    +0.000 A 
ATOM     15  S   UNL     1       6.801   5.387  19.379  0.00  0.00    +0.000 S 
BRANCH  13  16
ATOM     16  C   UNL     1       7.197   4.177  15.588  0.00  0.00    +0.000 C 
ATOM     17  O   UNL     1       6.194   3.351  14.959  0.00  0.00    +0.000 OA
ATOM     18  C   UNL     1       6.117   3.836  13.623  0.00  0.00    +0.000 C 
ATOM     19  C   UNL     1       6.442   5.296  13.754  0.00  0.00    +0.000 C 
ATOM     20  O   UNL     1       7.461   5.322  14.748  0.00  0.00    +0.000 OA
ENDBRANCH  13  16
ENDBRANCH  10  11
BRANCH   1  21
ATOM     21  O   UNL     1       5.035   2.120  20.097  0.00  0.00    +0.000 OA
BRANCH  21  22
ATOM     22  C   UNL     1       4.995   1.006  20.986  0.00  0.00    +0.000 C 
BRANCH  22  24
ATOM     23  C   UNL     1       6.481  -0.245  22.330  0.00  0.00    +0.000 C 
ATOM     24  O   UNL     1       6.058   1.053  21.939  0.00  0.00    +0.000 OA
ENDBRANCH  22  24
ENDBRANCH  21  22
ENDBRANCH   1  21
TORSDOF 5
ENDMDL
MODEL 5
REMARK VINA RESULT:      -6.9      3.172      7.087
REMARK  Name = 
REMARK  6 active torsions:
REMARK  status: ('A' for Active; 'I' for Inactive)
REMARK    1  A    between atoms: C_1  and  O_2
REMARK    2  A    between atoms: O_2  and  C_3
REMARK    3  A    between atoms: C_3  and  O_4
REMARK    4  A    between atoms: O_4  and  C_5
REMARK    5  A    between atoms: C_14  and  C_15
REMARK    6  A    between atoms: C_17  and  C_18
REMARK                            x       y       z     vdW  Elec       q    Type
REMARK                         _______ _______ _______ _____ _____    ______ ____
ROOT
ATOM      1  C   UNL     1       2.867   6.914  19.098  0.00  0.00    +0.000 A 
ATOM      2  C   UNL     1       1.815   6.956  20.012  0.00  0.00    +0.000 A 
ATOM      3  C   UNL     1       1.549   5.860  20.821  0.00  0.00    +0.000 A 
ATOM      4  C   UNL     1       2.301   4.691  20.712  0.00  0.00    +0.000 A 
ATOM      5  C   UNL     1       1.952   3.600  21.524  0.00  0.00    +0.000 A 
ATOM      6  C   UNL     1       2.644   2.400  21.445  0.00  0.00    +0.000 A 
ATOM      7  C   UNL     1       3.711   2.281  20.565  0.00  0.00    +0.000 A 
ATOM      8  C   UNL     1       4.077   3.369  19.766  0.00  0.00    +0.000 A 
ATOM      9  C   UNL     1       3.383   4.609  19.789  0.00  0.00    +0.000 A 
ATOM     10  C   UNL     1       3.686   5.759  18.971  0.00  0.00    +0.000 A 
ENDROOT
BRANCH  10  11
ATOM     11  C   UNL     1       4.827   5.728  18.003  0.00  0.00    +0.000 A 
ATOM     12  N   UNL     1       4.716   5.750  16.685  0.00  0.00    +0.000 NA
ATOM     13  C   UNL     1       5.962   5.663  16.064  0.00  0.00    +0.000 A 
ATOM     14  C   UNL     1       7.029   5.676  16.940  0.00  0.00    +0.000 A 
ATOM     15  S   UNL     1       6.468   5.561  18.543  0.00  0.00    +0.000 S 
BRANCH  13  16
ATOM     16  C   UNL     1       6.055   5.558  14.566  0.00  0.00    +0.000 C 
ATOM     17  O   UNL     1       7.424   5.449  14.121  0.00  0.00    +0.000 OA
ATOM     18  C   UNL     1       7.394   4.444  13.113  0.00  0.00    +0.000 C 
ATOM     19  C   UNL     1       6.285   3.531  13.552  0.00  0.00    +0.000 C 
ATOM     20  O   UNL     1       5.306   4.425  14.073  0.00  0.00    +0.000 OA
ENDBRANCH  13  16
ENDBRANCH  10  11
BRANCH   1  21
ATOM     21  O   UNL     1       3.083   7.967  18.239  0.00  0.00    +0.000 OA
BRANCH  21  22
ATOM     22  C   UNL     1       1.937   8.699  17.814  0.00  0.00    +0.000 C 
BRANCH  22  24
ATOM     23  C   UNL     1       1.416  10.868  18.591  0.00  0.00    +0.000 C 
ATOM     24  O   UNL     1       2.212  10.096  17.705  0.00  0.00    +0.000 OA
ENDBRANCH  22  24
ENDBRANCH  21  22
ENDBRANCH   1  21
TORSDOF 5
ENDMDL
MODEL 6
REMARK VINA RESULT:      -6.8      2.616      4.672
REMARK  Name = 
REMARK  6 active torsions:
REMARK  status: ('A' for Active; 'I' for Inactive)
REMARK    1  A    between atoms: C_1  and  O_2
REMARK    2  A    between atoms: O_2  and  C_3
REMARK    3  A    between atoms: C_3  and  O_4
REMARK    4  A    between atoms: O_4  and  C_5
REMARK    5  A    between atoms: C_14  and  C_15
REMARK    6  A    between atoms: C_17  and  C_18
REMARK                            x       y       z     vdW  Elec       q    Type
REMARK                         _______ _______ _______ _____ _____    ______ ____
ROOT
ATOM      1  C   UNL     1       4.459   5.809  17.427  0.00  0.00    +0.000 A 
ATOM      2  C   UNL     1       5.081   4.661  16.938  0.00  0.00    +0.000 A 
ATOM      3  C   UNL     1       4.469   3.423  17.074  0.00  0.00    +0.000 A 
ATOM      4  C   UNL     1       3.245   3.299  17.730  0.00  0.00    +0.000 A 
ATOM      5  C   UNL     1       2.700   2.013  17.879  0.00  0.00    +0.000 A 
ATOM      6  C   UNL     1       1.498   1.819  18.544  0.00  0.00    +0.000 A 
ATOM      7  C   UNL     1       0.812   2.914  19.053  0.00  0.00    +0.000 A 
ATOM      8  C   UNL     1       1.339   4.200  18.893  0.00  0.00    +0.000 A 
ATOM      9  C   UNL     1       2.579   4.448  18.245  0.00  0.00    +0.000 A 
ATOM     10  C   UNL     1       3.195   5.742  18.074  0.00  0.00    +0.000 A 
ENDROOT
BRANCH  10  11
ATOM     11  C   UNL     1       2.523   6.980  18.579  0.00  0.00    +0.000 A 
ATOM     12  N   UNL     1       2.187   8.026  17.841  0.00  0.00    +0.000 NA
ATOM     13  C   UNL     1       1.619   9.038  18.616  0.00  0.00    +0.000 A 
ATOM     14  C   UNL     1       1.439   8.698  19.942  0.00  0.00    +0.000 A 
ATOM     15  S   UNL     1       2.191   7.205  20.267  0.00  0.00    +0.000 S 
BRANCH  13  16
ATOM     16  C   UNL     1       1.269  10.362  17.993  0.00  0.00    +0.000 C 
ATOM     17  O   UNL     1       0.145  10.984  18.652  0.00  0.00    +0.000 OA
ATOM     18  C   UNL     1       0.512  12.354  18.770  0.00  0.00    +0.000 C 
ATOM     19  C   UNL     1       2.007  12.313  18.908  0.00  0.00    +0.000 C 
ATOM     20  O   UNL     1       2.394  11.268  18.021  0.00  0.00    +0.000 OA
ENDBRANCH  13  16
ENDBRANCH  10  11
BRANCH   1  21
ATOM     21  O   UNL     1       5.100   7.026  17.366  0.00  0.00    +0.000 OA
BRANCH  21  22
ATOM     22  C   UNL     1       6.505   7.028  17.600  0.00  0.00    +0.000 C 
BRANCH  22  24
ATOM     23  C   UNL     1       8.035   8.815  17.820  0.00  0.00    +0.000 C 
ATOM     24  O   UNL     1       7.148   8.126  16.951  0.00  0.00    +0.000 OA
ENDBRANCH  22  24
ENDBRANCH  21  22
ENDBRANCH   1  21
TORSDOF 5
ENDMDL
MODEL 7
REMARK VINA RESULT:      -6.7      3.123      7.115
REMARK  Name = 
REMARK  6 active torsions:
REMARK  status: ('A' for Active; 'I' for Inactive)
REMARK    1  A    between atoms: C_1  and  O_2
REMARK    2  A    between atoms: O_2  and  C_3
REMARK    3  A    between atoms: C_3  and  O_4
REMARK    4  A    between atoms: O_4  and  C_5
REMARK    5  A    between atoms: C_14  and  C_15
REMARK    6  A    between atoms: C_17  and  C_18
REMARK                            x       y       z     vdW  Elec       q    Type
REMARK                         _______ _______ _______ _____ _____    ______ ____
ROOT
ATOM      1  C   UNL     1       3.080   6.575  19.096  0.00  0.00    +0.000 A 
ATOM      2  C   UNL     1       1.870   6.710  19.774  0.00  0.00    +0.000 A 
ATOM      3  C   UNL     1       1.401   5.682  20.580  0.00  0.00    +0.000 A 
ATOM      4  C   UNL     1       2.111   4.486  20.697  0.00  0.00    +0.000 A 
ATOM      5  C   UNL     1       1.561   3.465  21.488  0.00  0.00    +0.000 A 
ATOM      6  C   UNL     1       2.203   2.243  21.625  0.00  0.00    +0.000 A 
ATOM      7  C   UNL     1       3.419   2.033  20.987  0.00  0.00    +0.000 A 
ATOM      8  C   UNL     1       3.982   3.051  20.212  0.00  0.00    +0.000 A 
ATOM      9  C   UNL     1       3.350   4.310  20.018  0.00  0.00    +0.000 A 
ATOM     10  C   UNL     1       3.858   5.390  19.208  0.00  0.00    +0.000 A 
ENDROOT
BRANCH  10  11
ATOM     11  C   UNL     1       5.167   5.259  18.493  0.00  0.00    +0.000 A 
ATOM     12  N   UNL     1       5.330   4.767  17.276  0.00  0.00    +0.000 NA
ATOM     13  C   UNL     1       6.677   4.738  16.912  0.00  0.00    +0.000 A 
ATOM     14  C   UNL     1       7.523   5.312  17.840  0.00  0.00    +0.000 A 
ATOM     15  S   UNL     1       6.664   5.676  19.265  0.00  0.00    +0.000 S 
BRANCH  13  16
ATOM     16  C   UNL     1       7.095   4.110  15.610  0.00  0.00    +0.000 C 
ATOM     17  O   UNL     1       5.980   3.499  14.928  0.00  0.00    +0.000 OA
ATOM     18  C   UNL     1       6.148   3.871  13.563  0.00  0.00    +0.000 C 
ATOM     19  C   UNL     1       6.812   5.215  13.639  0.00  0.00    +0.000 C 
ATOM     20  O   UNL     1       7.712   5.080  14.735  0.00  0.00    +0.000 OA
ENDBRANCH  13  16
ENDBRANCH  10  11
BRANCH   1  21
ATOM     21  O   UNL     1       3.507   7.560  18.234  0.00  0.00    +0.000 OA
BRANCH  21  22
ATOM     22  C   UNL     1       2.499   8.310  17.561  0.00  0.00    +0.000 C 
BRANCH  22  24
ATOM     23  C   UNL     1       1.061  10.010  18.350  0.00  0.00    +0.000 C 
ATOM     24  O   UNL     1       2.403   9.641  18.070  0.00  0.00    +0.000 OA
ENDBRANCH  22  24
ENDBRANCH  21  22
ENDBRANCH   1  21
TORSDOF 5
ENDMDL
MODEL 8
REMARK VINA RESULT:      -6.7      2.075      4.127
REMARK  Name = 
REMARK  6 active torsions:
REMARK  status: ('A' for Active; 'I' for Inactive)
REMARK    1  A    between atoms: C_1  and  O_2
REMARK    2  A    between atoms: O_2  and  C_3
REMARK    3  A    between atoms: C_3  and  O_4
REMARK    4  A    between atoms: O_4  and  C_5
REMARK    5  A    between atoms: C_14  and  C_15
REMARK    6  A    between atoms: C_17  and  C_18
REMARK                            x       y       z     vdW  Elec       q    Type
REMARK                         _______ _______ _______ _____ _____    ______ ____
ROOT
ATOM      1  C   UNL     1       4.212   5.888  17.917  0.00  0.00    +0.000 A 
ATOM      2  C   UNL     1       4.814   4.649  17.705  0.00  0.00    +0.000 A 
ATOM      3  C   UNL     1       4.291   3.508  18.296  0.00  0.00    +0.000 A 
ATOM      4  C   UNL     1       3.181   3.583  19.137  0.00  0.00    +0.000 A 
ATOM      5  C   UNL     1       2.728   2.400  19.743  0.00  0.00    +0.000 A 
ATOM      6  C   UNL     1       1.645   2.411  20.610  0.00  0.00    +0.000 A 
ATOM      7  C   UNL     1       0.985   3.605  20.866  0.00  0.00    +0.000 A 
ATOM      8  C   UNL     1       1.418   4.784  20.252  0.00  0.00    +0.000 A 
ATOM      9  C   UNL     1       2.538   4.831  19.379  0.00  0.00    +0.000 A 
ATOM     10  C   UNL     1       3.058   6.015  18.738  0.00  0.00    +0.000 A 
ENDROOT
BRANCH  10  11
ATOM     11  C   UNL     1       2.403   7.345  18.945  0.00  0.00    +0.000 A 
ATOM     12  N   UNL     1       1.956   7.808  20.101  0.00  0.00    +0.000 NA
ATOM     13  C   UNL     1       1.357   9.060  19.953  0.00  0.00    +0.000 A 
ATOM     14  C   UNL     1       1.449   9.581  18.678  0.00  0.00    +0.000 A 
ATOM     15  S   UNL     1       2.076   8.408  17.614  0.00  0.00    +0.000 S 
BRANCH  13  16
ATOM     16  C   UNL     1       0.681   9.717  21.126  0.00  0.00    +0.000 C 
ATOM     17  O   UNL     1       1.241  11.017  21.407  0.00  0.00    +0.000 OA
ATOM     18  C   UNL     1       0.113  11.846  21.667  0.00  0.00    +0.000 C 
ATOM     19  C   UNL     1      -0.968  11.256  20.806  0.00  0.00    +0.000 C 
ATOM     20  O   UNL     1      -0.740   9.853  20.901  0.00  0.00    +0.000 OA
ENDBRANCH  13  16
ENDBRANCH  10  11
BRANCH   1  21
ATOM     21  O   UNL     1       4.775   7.033  17.399  0.00  0.00    +0.000 OA
BRANCH  21  22
ATOM     22  C   UNL     1       5.985   6.880  16.661  0.00  0.00    +0.000 C 
BRANCH  22  24
ATOM     23  C   UNL     1       7.810   7.009  18.155  0.00  0.00    +0.000 C 
ATOM     24  O   UNL     1       7.031   7.697  17.187  0.00  0.00    +0.000 OA
ENDBRANCH  22  24
ENDBRANCH  21  22
ENDBRANCH   1  21
TORSDOF 5
ENDMDL
MODEL 9
REMARK VINA RESULT:      -6.7      2.110      4.347
REMARK  Name = 
REMARK  6 active torsions:
REMARK  status: ('A' for Active; 'I' for Inactive)
REMARK    1  A    between atoms: C_1  and  O_2
REMARK    2  A    between atoms: O_2  and  C_3
REMARK    3  A    between atoms: C_3  and  O_4
REMARK    4  A    between atoms: O_4  and  C_5
REMARK    5  A    between atoms: C_14  and  C_15
REMARK    6  A    between atoms: C_17  and  C_18
REMARK                            x       y       z     vdW  Elec       q    Type
REMARK                         _______ _______ _______ _____ _____    ______ ____
ROOT
ATOM      1  C   UNL     1       4.518   5.774  18.244  0.00  0.00    +0.000 A 
ATOM      2  C   UNL     1       5.173   4.544  18.208  0.00  0.00    +0.000 A 
ATOM      3  C   UNL     1       4.616   3.437  18.830  0.00  0.00    +0.000 A 
ATOM      4  C   UNL     1       3.413   3.540  19.530  0.00  0.00    +0.000 A 
ATOM      5  C   UNL     1       2.925   2.395  20.180  0.00  0.00    +0.000 A 
ATOM      6  C   UNL     1       1.749   2.438  20.914  0.00  0.00    +0.000 A 
ATOM      7  C   UNL     1       1.032   3.625  20.991  0.00  0.00    +0.000 A 
ATOM      8  C   UNL     1       1.502   4.765  20.332  0.00  0.00    +0.000 A 
ATOM      9  C   UNL     1       2.715   4.780  19.591  0.00  0.00    +0.000 A 
ATOM     10  C   UNL     1       3.273   5.925  18.915  0.00  0.00    +0.000 A 
ENDROOT
BRANCH  10  11
ATOM     11  C   UNL     1       2.565   7.244  18.932  0.00  0.00    +0.000 A 
ATOM     12  N   UNL     1       1.990   7.792  19.990  0.00  0.00    +0.000 NA
ATOM     13  C   UNL     1       1.374   9.002  19.669  0.00  0.00    +0.000 A 
ATOM     14  C   UNL     1       1.581   9.410  18.366  0.00  0.00    +0.000 A 
ATOM     15  S   UNL     1       2.345   8.171  17.482  0.00  0.00    +0.000 S 
BRANCH  13  16
ATOM     16  C   UNL     1       0.564   9.736  20.703  0.00  0.00    +0.000 C 
ATOM     17  O   UNL     1      -0.504   8.919  21.226  0.00  0.00    +0.000 OA
ATOM     18  C   UNL     1      -0.486   9.160  22.629  0.00  0.00    +0.000 C 
ATOM     19  C   UNL     1       0.961   9.434  22.925  0.00  0.00    +0.000 C 
ATOM     20  O   UNL     1       1.395  10.186  21.796  0.00  0.00    +0.000 OA
ENDBRANCH  13  16
ENDBRANCH  10  11
BRANCH   1  21
ATOM     21  O   UNL     1       5.107   6.892  17.697  0.00  0.00    +0.000 OA
BRANCH  21  22
ATOM     22  C   UNL     1       6.523   6.864  17.540  0.00  0.00    +0.000 C 
BRANCH  22  24
ATOM     23  C   UNL     1       8.074   8.610  17.896  0.00  0.00    +0.000 C 
ATOM     24  O   UNL     1       7.028   8.115  17.073  0.00  0.00    +0.000 OA
ENDBRANCH  22  24
ENDBRANCH  21  22
ENDBRANCH   1  21
TORSDOF 5
ENDMDL
