MODEL 1
REMARK VINA RESULT:      -7.4      0.000      0.000
REMARK  Name = 
REMARK  11 active torsions:
REMARK  status: ('A' for Active; 'I' for Inactive)
REMARK    1  A    between atoms: C_2  and  C_3
REMARK    2  A    between atoms: C_2  and  C_23
REMARK    3  A    between atoms: C_3  and  S_4
REMARK    4  A    between atoms: S_4  and  C_5
REMARK    5  A    between atoms: C_8  and  C_9
REMARK    6  A    between atoms: C_12  and  N_13
REMARK    7  A    between atoms: N_13  and  C_14
REMARK    8  A    between atoms: C_14  and  N_16
REMARK    9  A    between atoms: N_16  and  C_17
REMARK   10  A    between atoms: C_17  and  C_18
REMARK   11  A    between atoms: C_18  and  O_19
REMARK                            x       y       z     vdW  Elec       q    Type
REMARK                         _______ _______ _______ _____ _____    ______ ____
ROOT
ATOM      1  C   UNL     1       2.166   7.669  19.075  0.00  0.00    +0.000 A 
ATOM      2  C   UNL     1       1.976   8.489  17.954  0.00  0.00    +0.000 A 
ATOM      3  C   UNL     1       1.190   9.650  18.040  0.00  0.00    +0.000 A 
ATOM      4  C   UNL     1       0.556  10.003  19.242  0.00  0.00    +0.000 A 
ATOM      5  C   UNL     1       0.801   9.218  20.368  0.00  0.00    +0.000 A 
ATOM      6  C   UNL     1       1.578   8.059  20.283  0.00  0.00    +0.000 A 
ENDROOT
BRANCH   1  10
ATOM      7  C   UNL     1       3.827   4.763  18.049  0.00  0.00    +0.000 A 
ATOM      8  N   UNL     1       4.162   4.679  19.321  0.00  0.00    +0.000 NA
ATOM      9  N   UNL     1       3.614   5.788  19.946  0.00  0.00    +0.000 NA
ATOM     10  C   UNL     1       2.983   6.466  19.005  0.00  0.00    +0.000 A 
ATOM     11  O   UNL     1       3.119   5.894  17.769  0.00  0.00    +0.000 OA
BRANCH   7  12
ATOM     12  S   UNL     1       4.192   3.582  16.832  0.00  0.00    +0.000 S 
BRANCH  12  13
ATOM     13  C   UNL     1       4.869   4.651  15.533  0.00  0.00    +0.000 C 
BRANCH  13  15
ATOM     14  O   UNL     1       7.123   4.284  14.679  0.00  0.00    +0.000 OA
ATOM     15  C   UNL     1       6.388   4.741  15.554  0.00  0.00    +0.000 C 
BRANCH  15  16
ATOM     16  C   UNL     1       7.024   5.420  16.719  0.00  0.00    +0.000 A 
ATOM     17  C   UNL     1       7.547   4.704  17.802  0.00  0.00    +0.000 A 
ATOM     18  C   UNL     1       8.081   5.387  18.899  0.00  0.00    +0.000 A 
ATOM     19  C   UNL     1       8.104   6.780  18.914  0.00  0.00    +0.000 A 
ATOM     20  C   UNL     1       7.596   7.498  17.832  0.00  0.00    +0.000 A 
ATOM     21  C   UNL     1       7.053   6.821  16.739  0.00  0.00    +0.000 A 
ENDBRANCH  15  16
ENDBRANCH  13  15
ENDBRANCH  12  13
ENDBRANCH   7  12
ENDBRANCH   1  10
BRANCH   4  22
ATOM     22  N   UNL     1      -0.261  11.156  19.256  0.00  0.00    +0.000 N 
ATOM     23  H   UNL     1      -0.959  11.168  19.989  0.00  0.00    +0.000 HD
BRANCH  22  24
ATOM     24  C   UNL     1      -0.146  12.337  18.524  0.00  0.00    +0.000 C 
ATOM     25  S   UNL     1       1.065  13.490  18.624  0.00  0.00    +0.000 S 
BRANCH  24  26
ATOM     26  N   UNL     1      -1.214  12.456  17.637  0.00  0.00    +0.000 N 
ATOM     27  H   UNL     1      -1.136  13.125  16.886  0.00  0.00    +0.000 HD
BRANCH  26  28
ATOM     28  C   UNL     1      -2.390  11.576  17.587  0.00  0.00    +0.000 C 
BRANCH  28  29
ATOM     29  C   UNL     1      -2.453  10.812  16.261  0.00  0.00    +0.000 C 
BRANCH  29  30
ATOM     30  O   UNL     1      -3.287  11.519  15.344  0.00  0.00    +0.000 OA
ATOM     31  H   UNL     1      -4.162  11.094  15.409  0.00  0.00    +0.000 HD
ENDBRANCH  29  30
ENDBRANCH  28  29
ENDBRANCH  26  28
ENDBRANCH  24  26
ENDBRANCH  22  24
ENDBRANCH   4  22
TORSDOF 11
ENDMDL
MODEL 2
REMARK VINA RESULT:      -7.3      5.641      8.012
REMARK  Name = 
REMARK  11 active torsions:
REMARK  status: ('A' for Active; 'I' for Inactive)
REMARK    1  A    between atoms: C_2  and  C_3
REMARK    2  A    between atoms: C_2  and  C_23
REMARK    3  A    between atoms: C_3  and  S_4
REMARK    4  A    between atoms: S_4  and  C_5
REMARK    5  A    between atoms: C_8  and  C_9
REMARK    6  A    between atoms: C_12  and  N_13
REMARK    7  A    between atoms: N_13  and  C_14
REMARK    8  A    between atoms: C_14  and  N_16
REMARK    9  A    between atoms: N_16  and  C_17
REMARK   10  A    between atoms: C_17  and  C_18
REMARK   11  A    between atoms: C_18  and  O_19
REMARK                            x       y       z     vdW  Elec       q    Type
REMARK                         _______ _______ _______ _____ _____    ______ ____
ROOT
ATOM      1  C   UNL     1       8.489   9.543  18.350  0.00  0.00    +0.000 A 
ATOM      2  C   UNL     1       8.160  10.629  17.527  0.00  0.00    +0.000 A 
ATOM      3  C   UNL     1       8.657  11.914  17.804  0.00  0.00    +0.000 A 
ATOM      4  C   UNL     1       9.472  12.145  18.923  0.00  0.00    +0.000 A 
ATOM      5  C   UNL     1       9.846  11.050  19.701  0.00  0.00    +0.000 A 
ATOM      6  C   UNL     1       9.348   9.771  19.430  0.00  0.00    +0.000 A 
ENDROOT
BRANCH   1  10
ATOM      7  C   UNL     1       6.745   6.772  17.110  0.00  0.00    +0.000 A 
ATOM      8  N   UNL     1       7.411   6.118  18.041  0.00  0.00    +0.000 NA
ATOM      9  N   UNL     1       8.223   7.048  18.670  0.00  0.00    +0.000 NA
ATOM     10  C   UNL     1       7.988   8.204  18.075  0.00  0.00    +0.000 A 
ATOM     11  O   UNL     1       7.095   8.088  17.045  0.00  0.00    +0.000 OA
BRANCH   7  12
ATOM     12  S   UNL     1       5.527   6.091  16.079  0.00  0.00    +0.000 S 
BRANCH  12  13
ATOM     13  C   UNL     1       4.176   5.875  17.269  0.00  0.00    +0.000 C 
BRANCH  13  15
ATOM     14  O   UNL     1       4.345   3.464  16.957  0.00  0.00    +0.000 OA
ATOM     15  C   UNL     1       3.849   4.417  17.556  0.00  0.00    +0.000 C 
BRANCH  15  16
ATOM     16  C   UNL     1       2.851   4.131  18.626  0.00  0.00    +0.000 A 
ATOM     17  C   UNL     1       2.920   4.735  19.887  0.00  0.00    +0.000 A 
ATOM     18  C   UNL     1       1.996   4.391  20.878  0.00  0.00    +0.000 A 
ATOM     19  C   UNL     1       0.999   3.454  20.612  0.00  0.00    +0.000 A 
ATOM     20  C   UNL     1       0.918   2.859  19.354  0.00  0.00    +0.000 A 
ATOM     21  C   UNL     1       1.844   3.193  18.364  0.00  0.00    +0.000 A 
ENDBRANCH  15  16
ENDBRANCH  13  15
ENDBRANCH  12  13
ENDBRANCH   7  12
ENDBRANCH   1  10
BRANCH   4  22
ATOM     22  N   UNL     1       9.902  13.467  19.178  0.00  0.00    +0.000 N 
ATOM     23  H   UNL     1      10.890  13.625  19.026  0.00  0.00    +0.000 HD
BRANCH  22  24
ATOM     24  C   UNL     1       9.151  14.610  19.447  0.00  0.00    +0.000 C 
ATOM     25  S   UNL     1       8.078  14.856  20.710  0.00  0.00    +0.000 S 
BRANCH  24  26
ATOM     26  N   UNL     1       9.415  15.592  18.494  0.00  0.00    +0.000 N 
ATOM     27  H   UNL     1       8.667  15.867  17.876  0.00  0.00    +0.000 HD
BRANCH  26  28
ATOM     28  C   UNL     1      10.642  16.397  18.409  0.00  0.00    +0.000 C 
BRANCH  28  29
ATOM     29  C   UNL     1      10.767  17.070  17.040  0.00  0.00    +0.000 C 
BRANCH  29  30
ATOM     30  O   UNL     1      10.850  16.071  16.023  0.00  0.00    +0.000 OA
ATOM     31  H   UNL     1      11.724  16.195  15.610  0.00  0.00    +0.000 HD
ENDBRANCH  29  30
ENDBRANCH  28  29
ENDBRANCH  26  28
ENDBRANCH  24  26
ENDBRANCH  22  24
ENDBRANCH   4  22
TORSDOF 11
ENDMDL
MODEL 3
REMARK VINA RESULT:      -7.2      5.692      8.110
REMARK  Name = 
REMARK  11 active torsions:
REMARK  status: ('A' for Active; 'I' for Inactive)
REMARK    1  A    between atoms: C_2  and  C_3
REMARK    2  A    between atoms: C_2  and  C_23
REMARK    3  A    between atoms: C_3  and  S_4
REMARK    4  A    between atoms: S_4  and  C_5
REMARK    5  A    between atoms: C_8  and  C_9
REMARK    6  A    between atoms: C_12  and  N_13
REMARK    7  A    between atoms: N_13  and  C_14
REMARK    8  A    between atoms: C_14  and  N_16
REMARK    9  A    between atoms: N_16  and  C_17
REMARK   10  A    between atoms: C_17  and  C_18
REMARK   11  A    between atoms: C_18  and  O_19
REMARK                            x       y       z     vdW  Elec       q    Type
REMARK                         _______ _______ _______ _____ _____    ______ ____
ROOT
ATOM      1  C   UNL     1       8.501   9.432  18.339  0.00  0.00    +0.000 A 
ATOM      2  C   UNL     1       9.302   9.659  19.466  0.00  0.00    +0.000 A 
ATOM      3  C   UNL     1       9.794  10.945  19.750  0.00  0.00    +0.000 A 
ATOM      4  C   UNL     1       9.516  12.025  18.898  0.00  0.00    +0.000 A 
ATOM      5  C   UNL     1       8.668  11.805  17.813  0.00  0.00    +0.000 A 
ATOM      6  C   UNL     1       8.182  10.526  17.527  0.00  0.00    +0.000 A 
ENDROOT
BRANCH   1  10
ATOM      7  C   UNL     1       6.733   6.715  17.016  0.00  0.00    +0.000 A 
ATOM      8  N   UNL     1       7.354   6.037  17.960  0.00  0.00    +0.000 NA
ATOM      9  N   UNL     1       8.167   6.941  18.624  0.00  0.00    +0.000 NA
ATOM     10  C   UNL     1       7.978   8.108  18.034  0.00  0.00    +0.000 A 
ATOM     11  O   UNL     1       7.115   8.023  16.976  0.00  0.00    +0.000 OA
BRANCH   7  12
ATOM     12  S   UNL     1       5.533   6.074  15.940  0.00  0.00    +0.000 S 
BRANCH  12  13
ATOM     13  C   UNL     1       4.608   5.010  17.081  0.00  0.00    +0.000 C 
BRANCH  13  15
ATOM     14  O   UNL     1       3.297   6.946  17.773  0.00  0.00    +0.000 OA
ATOM     15  C   UNL     1       3.465   5.727  17.786  0.00  0.00    +0.000 C 
BRANCH  15  16
ATOM     16  C   UNL     1       2.494   4.893  18.552  0.00  0.00    +0.000 A 
ATOM     17  C   UNL     1       2.089   5.227  19.849  0.00  0.00    +0.000 A 
ATOM     18  C   UNL     1       1.222   4.384  20.549  0.00  0.00    +0.000 A 
ATOM     19  C   UNL     1       0.751   3.213  19.956  0.00  0.00    +0.000 A 
ATOM     20  C   UNL     1       1.143   2.882  18.660  0.00  0.00    +0.000 A 
ATOM     21  C   UNL     1       2.016   3.717  17.960  0.00  0.00    +0.000 A 
ENDBRANCH  15  16
ENDBRANCH  13  15
ENDBRANCH  12  13
ENDBRANCH   7  12
ENDBRANCH   1  10
BRANCH   4  22
ATOM     22  N   UNL     1      10.077  13.285  19.207  0.00  0.00    +0.000 N 
ATOM     23  H   UNL     1      11.088  13.294  19.262  0.00  0.00    +0.000 HD
BRANCH  22  24
ATOM     24  C   UNL     1       9.466  14.535  19.287  0.00  0.00    +0.000 C 
ATOM     25  S   UNL     1       8.112  14.957  20.178  0.00  0.00    +0.000 S 
BRANCH  24  26
ATOM     26  N   UNL     1      10.154  15.456  18.500  0.00  0.00    +0.000 N 
ATOM     27  H   UNL     1      10.731  15.105  17.751  0.00  0.00    +0.000 HD
BRANCH  26  28
ATOM     28  C   UNL     1       9.990  16.916  18.548  0.00  0.00    +0.000 C 
BRANCH  28  29
ATOM     29  C   UNL     1      10.358  17.558  17.207  0.00  0.00    +0.000 C 
BRANCH  29  30
ATOM     30  O   UNL     1      10.426  16.549  16.200  0.00  0.00    +0.000 OA
ATOM     31  H   UNL     1      11.340  16.213  16.232  0.00  0.00    +0.000 HD
ENDBRANCH  29  30
ENDBRANCH  28  29
ENDBRANCH  26  28
ENDBRANCH  24  26
ENDBRANCH  22  24
ENDBRANCH   4  22
TORSDOF 11
ENDMDL
MODEL 4
REMARK VINA RESULT:      -7.1      2.738      4.291
REMARK  Name = 
REMARK  11 active torsions:
REMARK  status: ('A' for Active; 'I' for Inactive)
REMARK    1  A    between atoms: C_2  and  C_3
REMARK    2  A    between atoms: C_2  and  C_23
REMARK    3  A    between atoms: C_3  and  S_4
REMARK    4  A    between atoms: S_4  and  C_5
REMARK    5  A    between atoms: C_8  and  C_9
REMARK    6  A    between atoms: C_12  and  N_13
REMARK    7  A    between atoms: N_13  and  C_14
REMARK    8  A    between atoms: C_14  and  N_16
REMARK    9  A    between atoms: N_16  and  C_17
REMARK   10  A    between atoms: C_17  and  C_18
REMARK   11  A    between atoms: C_18  and  O_19
REMARK                            x       y       z     vdW  Elec       q    Type
REMARK                         _______ _______ _______ _____ _____    ______ ____
ROOT
ATOM      1  C   UNL     1       2.415   8.122  18.300  0.00  0.00    +0.000 A 
ATOM      2  C   UNL     1       1.806   9.210  17.660  0.00  0.00    +0.000 A 
ATOM      3  C   UNL     1       0.818   9.966  18.315  0.00  0.00    +0.000 A 
ATOM      4  C   UNL     1       0.400   9.634  19.613  0.00  0.00    +0.000 A 
ATOM      5  C   UNL     1       1.053   8.590  20.266  0.00  0.00    +0.000 A 
ATOM      6  C   UNL     1       2.033   7.834  19.615  0.00  0.00    +0.000 A 
ENDROOT
BRANCH   1  10
ATOM      7  C   UNL     1       4.595   5.580  17.282  0.00  0.00    +0.000 A 
ATOM      8  N   UNL     1       5.134   6.534  16.550  0.00  0.00    +0.000 NA
ATOM      9  N   UNL     1       4.386   7.677  16.779  0.00  0.00    +0.000 NA
ATOM     10  C   UNL     1       3.444   7.333  17.640  0.00  0.00    +0.000 A 
ATOM     11  O   UNL     1       3.492   6.004  17.963  0.00  0.00    +0.000 OA
BRANCH   7  12
ATOM     12  S   UNL     1       5.198   3.960  17.427  0.00  0.00    +0.000 S 
BRANCH  12  13
ATOM     13  C   UNL     1       5.394   3.844  19.226  0.00  0.00    +0.000 C 
BRANCH  13  15
ATOM     14  O   UNL     1       5.012   1.747  20.410  0.00  0.00    +0.000 OA
ATOM     15  C   UNL     1       4.551   2.746  19.857  0.00  0.00    +0.000 C 
BRANCH  15  16
ATOM     16  C   UNL     1       3.068   2.887  19.790  0.00  0.00    +0.000 A 
ATOM     17  C   UNL     1       2.283   2.092  18.948  0.00  0.00    +0.000 A 
ATOM     18  C   UNL     1       0.903   2.301  18.876  0.00  0.00    +0.000 A 
ATOM     19  C   UNL     1       0.303   3.295  19.648  0.00  0.00    +0.000 A 
ATOM     20  C   UNL     1       1.079   4.082  20.497  0.00  0.00    +0.000 A 
ATOM     21  C   UNL     1       2.458   3.883  20.565  0.00  0.00    +0.000 A 
ENDBRANCH  15  16
ENDBRANCH  13  15
ENDBRANCH  12  13
ENDBRANCH   7  12
ENDBRANCH   1  10
BRANCH   4  22
ATOM     22  N   UNL     1      -0.631  10.400  20.202  0.00  0.00    +0.000 N 
ATOM     23  H   UNL     1      -1.568  10.115  19.945  0.00  0.00    +0.000 HD
BRANCH  22  24
ATOM     24  C   UNL     1      -0.558  11.374  21.197  0.00  0.00    +0.000 C 
ATOM     25  S   UNL     1      -1.035  11.239  22.797  0.00  0.00    +0.000 S 
BRANCH  24  26
ATOM     26  N   UNL     1      -0.001  12.543  20.684  0.00  0.00    +0.000 N 
ATOM     27  H   UNL     1       0.999  12.659  20.740  0.00  0.00    +0.000 HD
BRANCH  26  28
ATOM     28  C   UNL     1      -0.719  13.565  19.908  0.00  0.00    +0.000 C 
BRANCH  28  29
ATOM     29  C   UNL     1      -0.290  13.545  18.438  0.00  0.00    +0.000 C 
BRANCH  29  30
ATOM     30  O   UNL     1      -1.179  12.711  17.695  0.00  0.00    +0.000 OA
ATOM     31  H   UNL     1      -0.628  11.979  17.361  0.00  0.00    +0.000 HD
ENDBRANCH  29  30
ENDBRANCH  28  29
ENDBRANCH  26  28
ENDBRANCH  24  26
ENDBRANCH  22  24
ENDBRANCH   4  22
TORSDOF 11
ENDMDL
MODEL 5
REMARK VINA RESULT:      -7.1      2.491      9.326
REMARK  Name = 
REMARK  11 active torsions:
REMARK  status: ('A' for Active; 'I' for Inactive)
REMARK    1  A    between atoms: C_2  and  C_3
REMARK    2  A    between atoms: C_2  and  C_23
REMARK    3  A    between atoms: C_3  and  S_4
REMARK    4  A    between atoms: S_4  and  C_5
REMARK    5  A    between atoms: C_8  and  C_9
REMARK    6  A    between atoms: C_12  and  N_13
REMARK    7  A    between atoms: N_13  and  C_14
REMARK    8  A    between atoms: C_14  and  N_16
REMARK    9  A    between atoms: N_16  and  C_17
REMARK   10  A    between atoms: C_17  and  C_18
REMARK   11  A    between atoms: C_18  and  O_19
REMARK                            x       y       z     vdW  Elec       q    Type
REMARK                         _______ _______ _______ _____ _____    ______ ____
ROOT
ATOM      1  C   UNL     1       1.642   7.862  20.118  0.00  0.00    +0.000 A 
ATOM      2  C   UNL     1       1.667   6.552  20.614  0.00  0.00    +0.000 A 
ATOM      3  C   UNL     1       2.164   5.497  19.830  0.00  0.00    +0.000 A 
ATOM      4  C   UNL     1       2.622   5.726  18.523  0.00  0.00    +0.000 A 
ATOM      5  C   UNL     1       2.653   7.040  18.059  0.00  0.00    +0.000 A 
ATOM      6  C   UNL     1       2.155   8.090  18.835  0.00  0.00    +0.000 A 
ENDROOT
BRANCH   1  10
ATOM      7  C   UNL     1       0.669  11.005  21.314  0.00  0.00    +0.000 A 
ATOM      8  N   UNL     1       0.446  10.348  22.435  0.00  0.00    +0.000 NA
ATOM      9  N   UNL     1       0.749   9.021  22.180  0.00  0.00    +0.000 NA
ATOM     10  C   UNL     1       1.137   8.968  20.919  0.00  0.00    +0.000 A 
ATOM     11  O   UNL     1       1.065  10.185  20.299  0.00  0.00    +0.000 OA
BRANCH   7  12
ATOM     12  S   UNL     1       0.524  12.721  21.106  0.00  0.00    +0.000 S 
BRANCH  12  13
ATOM     13  C   UNL     1      -0.392  12.783  19.542  0.00  0.00    +0.000 C 
BRANCH  13  15
ATOM     14  O   UNL     1      -2.547  12.363  20.602  0.00  0.00    +0.000 OA
ATOM     15  C   UNL     1      -1.797  12.206  19.639  0.00  0.00    +0.000 C 
BRANCH  15  16
ATOM     16  C   UNL     1      -2.288  11.388  18.493  0.00  0.00    +0.000 A 
ATOM     17  C   UNL     1      -1.484  10.429  17.867  0.00  0.00    +0.000 A 
ATOM     18  C   UNL     1      -1.968   9.727  16.759  0.00  0.00    +0.000 A 
ATOM     19  C   UNL     1      -3.254   9.973  16.280  0.00  0.00    +0.000 A 
ATOM     20  C   UNL     1      -4.063  10.919  16.908  0.00  0.00    +0.000 A 
ATOM     21  C   UNL     1      -3.580  11.628  18.009  0.00  0.00    +0.000 A 
ENDBRANCH  15  16
ENDBRANCH  13  15
ENDBRANCH  12  13
ENDBRANCH   7  12
ENDBRANCH   1  10
BRANCH   4  22
ATOM     22  N   UNL     1       3.065   4.619  17.764  0.00  0.00    +0.000 N 
ATOM     23  H   UNL     1       2.830   4.660  16.781  0.00  0.00    +0.000 HD
BRANCH  22  24
ATOM     24  C   UNL     1       3.907   3.569  18.130  0.00  0.00    +0.000 C 
ATOM     25  S   UNL     1       3.481   2.123  18.862  0.00  0.00    +0.000 S 
BRANCH  24  26
ATOM     26  N   UNL     1       5.224   3.871  17.792  0.00  0.00    +0.000 N 
ATOM     27  H   UNL     1       5.569   3.559  16.897  0.00  0.00    +0.000 HD
BRANCH  26  28
ATOM     28  C   UNL     1       6.123   4.754  18.549  0.00  0.00    +0.000 C 
BRANCH  28  29
ATOM     29  C   UNL     1       7.182   5.378  17.637  0.00  0.00    +0.000 C 
BRANCH  29  30
ATOM     30  O   UNL     1       8.022   4.351  17.109  0.00  0.00    +0.000 OA
ATOM     31  H   UNL     1       7.414   3.669  16.768  0.00  0.00    +0.000 HD
ENDBRANCH  29  30
ENDBRANCH  28  29
ENDBRANCH  26  28
ENDBRANCH  24  26
ENDBRANCH  22  24
ENDBRANCH   4  22
TORSDOF 11
ENDMDL
MODEL 6
REMARK VINA RESULT:      -7.1      1.227      1.235
REMARK  Name = 
REMARK  11 active torsions:
REMARK  status: ('A' for Active; 'I' for Inactive)
REMARK    1  A    between atoms: C_2  and  C_3
REMARK    2  A    between atoms: C_2  and  C_23
REMARK    3  A    between atoms: C_3  and  S_4
REMARK    4  A    between atoms: S_4  and  C_5
REMARK    5  A    between atoms: C_8  and  C_9
REMARK    6  A    between atoms: C_12  and  N_13
REMARK    7  A    between atoms: N_13  and  C_14
REMARK    8  A    between atoms: C_14  and  N_16
REMARK    9  A    between atoms: N_16  and  C_17
REMARK   10  A    between atoms: C_17  and  C_18
REMARK   11  A    between atoms: C_18  and  O_19
REMARK                            x       y       z     vdW  Elec       q    Type
REMARK                         _______ _______ _______ _____ _____    ______ ____
ROOT
ATOM      1  C   UNL     1       1.991   7.566  19.375  0.00  0.00    +0.000 A 
ATOM      2  C   UNL     1       2.140   8.141  18.106  0.00  0.00    +0.000 A 
ATOM      3  C   UNL     1       1.710   9.457  17.860  0.00  0.00    +0.000 A 
ATOM      4  C   UNL     1       1.099  10.215  18.871  0.00  0.00    +0.000 A 
ATOM      5  C   UNL     1       1.011   9.659  20.147  0.00  0.00    +0.000 A 
ATOM      6  C   UNL     1       1.434   8.349  20.392  0.00  0.00    +0.000 A 
ENDROOT
BRANCH   1  10
ATOM      7  C   UNL     1       3.342   4.342  19.170  0.00  0.00    +0.000 A 
ATOM      8  N   UNL     1       2.820   4.204  20.372  0.00  0.00    +0.000 NA
ATOM      9  N   UNL     1       2.231   5.417  20.688  0.00  0.00    +0.000 NA
ATOM     10  C   UNL     1       2.437   6.207  19.649  0.00  0.00    +0.000 A 
ATOM     11  O   UNL     1       3.177   5.601  18.671  0.00  0.00    +0.000 OA
BRANCH   7  12
ATOM     12  S   UNL     1       4.132   3.091  18.264  0.00  0.00    +0.000 S 
BRANCH  12  13
ATOM     13  C   UNL     1       4.306   3.912  16.657  0.00  0.00    +0.000 C 
BRANCH  13  15
ATOM     14  O   UNL     1       6.296   3.538  15.300  0.00  0.00    +0.000 OA
ATOM     15  C   UNL     1       5.754   4.122  16.238  0.00  0.00    +0.000 C 
BRANCH  15  16
ATOM     16  C   UNL     1       6.568   5.091  17.026  0.00  0.00    +0.000 A 
ATOM     17  C   UNL     1       7.329   4.696  18.132  0.00  0.00    +0.000 A 
ATOM     18  C   UNL     1       8.030   5.650  18.874  0.00  0.00    +0.000 A 
ATOM     19  C   UNL     1       7.981   6.996  18.512  0.00  0.00    +0.000 A 
ATOM     20  C   UNL     1       7.234   7.393  17.404  0.00  0.00    +0.000 A 
ATOM     21  C   UNL     1       6.525   6.445  16.665  0.00  0.00    +0.000 A 
ENDBRANCH  15  16
ENDBRANCH  13  15
ENDBRANCH  12  13
ENDBRANCH   7  12
ENDBRANCH   1  10
BRANCH   4  22
ATOM     22  N   UNL     1       0.643  11.514  18.552  0.00  0.00    +0.000 N 
ATOM     23  H   UNL     1       1.250  12.033  17.931  0.00  0.00    +0.000 HD
BRANCH  22  24
ATOM     24  C   UNL     1      -0.581  12.120  18.832  0.00  0.00    +0.000 C 
ATOM     25  S   UNL     1      -0.847  13.570  19.628  0.00  0.00    +0.000 S 
BRANCH  24  26
ATOM     26  N   UNL     1      -1.625  11.342  18.337  0.00  0.00    +0.000 N 
ATOM     27  H   UNL     1      -1.428  10.386  18.083  0.00  0.00    +0.000 HD
BRANCH  26  28
ATOM     28  C   UNL     1      -3.043  11.731  18.303  0.00  0.00    +0.000 C 
BRANCH  28  29
ATOM     29  C   UNL     1      -3.889  10.672  17.591  0.00  0.00    +0.000 C 
BRANCH  29  30
ATOM     30  O   UNL     1      -3.250   9.400  17.698  0.00  0.00    +0.000 OA
ATOM     31  H   UNL     1      -2.987   9.320  18.633  0.00  0.00    +0.000 HD
ENDBRANCH  29  30
ENDBRANCH  28  29
ENDBRANCH  26  28
ENDBRANCH  24  26
ENDBRANCH  22  24
ENDBRANCH   4  22
TORSDOF 11
ENDMDL
MODEL 7
REMARK VINA RESULT:      -7.0      1.437      1.776
REMARK  Name = 
REMARK  11 active torsions:
REMARK  status: ('A' for Active; 'I' for Inactive)
REMARK    1  A    between atoms: C_2  and  C_3
REMARK    2  A    between atoms: C_2  and  C_23
REMARK    3  A    between atoms: C_3  and  S_4
REMARK    4  A    between atoms: S_4  and  C_5
REMARK    5  A    between atoms: C_8  and  C_9
REMARK    6  A    between atoms: C_12  and  N_13
REMARK    7  A    between atoms: N_13  and  C_14
REMARK    8  A    between atoms: C_14  and  N_16
REMARK    9  A    between atoms: N_16  and  C_17
REMARK   10  A    between atoms: C_17  and  C_18
REMARK   11  A    between atoms: C_18  and  O_19
REMARK                            x       y       z     vdW  Elec       q    Type
REMARK                         _______ _______ _______ _____ _____    ______ ____
ROOT
ATOM      1  C   UNL     1       1.813   8.158  19.289  0.00  0.00    +0.000 A 
ATOM      2  C   UNL     1       1.095   8.991  20.158  0.00  0.00    +0.000 A 
ATOM      3  C   UNL     1       0.841  10.331  19.819  0.00  0.00    +0.000 A 
ATOM      4  C   UNL     1       1.322  10.873  18.618  0.00  0.00    +0.000 A 
ATOM      5  C   UNL     1       1.982  10.023  17.731  0.00  0.00    +0.000 A 
ATOM      6  C   UNL     1       2.240   8.691  18.068  0.00  0.00    +0.000 A 
ENDROOT
BRANCH   1  10
ATOM      7  C   UNL     1       2.470   4.721  19.183  0.00  0.00    +0.000 A 
ATOM      8  N   UNL     1       2.309   4.797  20.489  0.00  0.00    +0.000 NA
ATOM      9  N   UNL     1       2.056   6.128  20.778  0.00  0.00    +0.000 NA
ATOM     10  C   UNL     1       2.080   6.766  19.621  0.00  0.00    +0.000 A 
ATOM     11  O   UNL     1       2.383   5.938  18.575  0.00  0.00    +0.000 OA
BRANCH   7  12
ATOM     12  S   UNL     1       2.731   3.260  18.284  0.00  0.00    +0.000 S 
BRANCH  12  13
ATOM     13  C   UNL     1       4.537   3.295  18.124  0.00  0.00    +0.000 C 
BRANCH  13  15
ATOM     14  O   UNL     1       4.614   4.536  16.027  0.00  0.00    +0.000 OA
ATOM     15  C   UNL     1       5.040   4.368  17.169  0.00  0.00    +0.000 C 
BRANCH  15  16
ATOM     16  C   UNL     1       6.129   5.265  17.651  0.00  0.00    +0.000 A 
ATOM     17  C   UNL     1       6.840   5.005  18.827  0.00  0.00    +0.000 A 
ATOM     18  C   UNL     1       7.813   5.906  19.270  0.00  0.00    +0.000 A 
ATOM     19  C   UNL     1       8.085   7.060  18.536  0.00  0.00    +0.000 A 
ATOM     20  C   UNL     1       7.388   7.318  17.357  0.00  0.00    +0.000 A 
ATOM     21  C   UNL     1       6.409   6.426  16.917  0.00  0.00    +0.000 A 
ENDBRANCH  15  16
ENDBRANCH  13  15
ENDBRANCH  12  13
ENDBRANCH   7  12
ENDBRANCH   1  10
BRANCH   4  22
ATOM     22  N   UNL     1       1.078  12.240  18.353  0.00  0.00    +0.000 N 
ATOM     23  H   UNL     1       1.801  12.701  17.816  0.00  0.00    +0.000 HD
BRANCH  22  24
ATOM     24  C   UNL     1      -0.071  12.998  18.578  0.00  0.00    +0.000 C 
ATOM     25  S   UNL     1      -0.302  14.185  19.737  0.00  0.00    +0.000 S 
BRANCH  24  26
ATOM     26  N   UNL     1      -1.066  12.642  17.670  0.00  0.00    +0.000 N 
ATOM     27  H   UNL     1      -0.914  12.845  16.694  0.00  0.00    +0.000 HD
BRANCH  26  28
ATOM     28  C   UNL     1      -2.259  11.839  17.977  0.00  0.00    +0.000 C 
BRANCH  28  29
ATOM     29  C   UNL     1      -2.484  10.758  16.916  0.00  0.00    +0.000 C 
BRANCH  29  30
ATOM     30  O   UNL     1      -1.377   9.857  16.911  0.00  0.00    +0.000 OA
ATOM     31  H   UNL     1      -0.710  10.269  16.332  0.00  0.00    +0.000 HD
ENDBRANCH  29  30
ENDBRANCH  28  29
ENDBRANCH  26  28
ENDBRANCH  24  26
ENDBRANCH  22  24
ENDBRANCH   4  22
TORSDOF 11
ENDMDL
MODEL 8
REMARK VINA RESULT:      -7.0      2.221      2.770
REMARK  Name = 
REMARK  11 active torsions:
REMARK  status: ('A' for Active; 'I' for Inactive)
REMARK    1  A    between atoms: C_2  and  C_3
REMARK    2  A    between atoms: C_2  and  C_23
REMARK    3  A    between atoms: C_3  and  S_4
REMARK    4  A    between atoms: S_4  and  C_5
REMARK    5  A    between atoms: C_8  and  C_9
REMARK    6  A    between atoms: C_12  and  N_13
REMARK    7  A    between atoms: N_13  and  C_14
REMARK    8  A    between atoms: C_14  and  N_16
REMARK    9  A    between atoms: N_16  and  C_17
REMARK   10  A    between atoms: C_17  and  C_18
REMARK   11  A    between atoms: C_18  and  O_19
REMARK                            x       y       z     vdW  Elec       q    Type
REMARK                         _______ _______ _______ _____ _____    ______ ____
ROOT
ATOM      1  C   UNL     1       1.650   6.804  20.324  0.00  0.00    +0.000 A 
ATOM      2  C   UNL     1       2.108   7.531  19.216  0.00  0.00    +0.000 A 
ATOM      3  C   UNL     1       1.902   8.919  19.134  0.00  0.00    +0.000 A 
ATOM      4  C   UNL     1       1.212   9.605  20.144  0.00  0.00    +0.000 A 
ATOM      5  C   UNL     1       0.814   8.888  21.272  0.00  0.00    +0.000 A 
ATOM      6  C   UNL     1       1.013   7.506  21.354  0.00  0.00    +0.000 A 
ENDROOT
BRANCH   1  10
ATOM      7  C   UNL     1       2.970   3.563  20.235  0.00  0.00    +0.000 A 
ATOM      8  N   UNL     1       1.751   3.213  20.591  0.00  0.00    +0.000 NA
ATOM      9  N   UNL     1       1.025   4.386  20.720  0.00  0.00    +0.000 NA
ATOM     10  C   UNL     1       1.860   5.368  20.428  0.00  0.00    +0.000 A 
ATOM     11  O   UNL     1       3.123   4.916  20.158  0.00  0.00    +0.000 OA
BRANCH   7  12
ATOM     12  S   UNL     1       4.264   2.469  19.861  0.00  0.00    +0.000 S 
BRANCH  12  13
ATOM     13  C   UNL     1       3.772   1.939  18.199  0.00  0.00    +0.000 C 
BRANCH  13  15
ATOM     14  O   UNL     1       2.124   3.236  16.956  0.00  0.00    +0.000 OA
ATOM     15  C   UNL     1       3.291   3.081  17.316  0.00  0.00    +0.000 C 
BRANCH  15  16
ATOM     16  C   UNL     1       4.306   4.068  16.849  0.00  0.00    +0.000 A 
ATOM     17  C   UNL     1       4.177   5.440  17.095  0.00  0.00    +0.000 A 
ATOM     18  C   UNL     1       5.124   6.333  16.587  0.00  0.00    +0.000 A 
ATOM     19  C   UNL     1       6.205   5.861  15.844  0.00  0.00    +0.000 A 
ATOM     20  C   UNL     1       6.345   4.495  15.606  0.00  0.00    +0.000 A 
ATOM     21  C   UNL     1       5.397   3.600  16.103  0.00  0.00    +0.000 A 
ENDBRANCH  15  16
ENDBRANCH  13  15
ENDBRANCH  12  13
ENDBRANCH   7  12
ENDBRANCH   1  10
BRANCH   4  22
ATOM     22  N   UNL     1       0.993  10.992  19.984  0.00  0.00    +0.000 N 
ATOM     23  H   UNL     1       0.938  11.513  20.850  0.00  0.00    +0.000 HD
BRANCH  22  24
ATOM     24  C   UNL     1       1.002  11.766  18.825  0.00  0.00    +0.000 C 
ATOM     25  S   UNL     1       2.119  12.933  18.383  0.00  0.00    +0.000 S 
BRANCH  24  26
ATOM     26  N   UNL     1      -0.085  11.435  18.018  0.00  0.00    +0.000 N 
ATOM     27  H   UNL     1       0.030  10.692  17.346  0.00  0.00    +0.000 HD
BRANCH  26  28
ATOM     28  C   UNL     1      -1.452  11.955  18.166  0.00  0.00    +0.000 C 
BRANCH  28  29
ATOM     29  C   UNL     1      -2.384  11.369  17.101  0.00  0.00    +0.000 C 
BRANCH  29  30
ATOM     30  O   UNL     1      -3.682  11.947  17.236  0.00  0.00    +0.000 OA
ATOM     31  H   UNL     1      -3.909  12.283  16.349  0.00  0.00    +0.000 HD
ENDBRANCH  29  30
ENDBRANCH  28  29
ENDBRANCH  26  28
ENDBRANCH  24  26
ENDBRANCH  22  24
ENDBRANCH   4  22
TORSDOF 11
ENDMDL
MODEL 9
REMARK VINA RESULT:      -7.0      1.625      2.124
REMARK  Name = 
REMARK  11 active torsions:
REMARK  status: ('A' for Active; 'I' for Inactive)
REMARK    1  A    between atoms: C_2  and  C_3
REMARK    2  A    between atoms: C_2  and  C_23
REMARK    3  A    between atoms: C_3  and  S_4
REMARK    4  A    between atoms: S_4  and  C_5
REMARK    5  A    between atoms: C_8  and  C_9
REMARK    6  A    between atoms: C_12  and  N_13
REMARK    7  A    between atoms: N_13  and  C_14
REMARK    8  A    between atoms: C_14  and  N_16
REMARK    9  A    between atoms: N_16  and  C_17
REMARK   10  A    between atoms: C_17  and  C_18
REMARK   11  A    between atoms: C_18  and  O_19
REMARK                            x       y       z     vdW  Elec       q    Type
REMARK                         _______ _______ _______ _____ _____    ______ ____
ROOT
ATOM      1  C   UNL     1       1.737   7.639  19.820  0.00  0.00    +0.000 A 
ATOM      2  C   UNL     1       1.201   8.306  20.930  0.00  0.00    +0.000 A 
ATOM      3  C   UNL     1       0.885   9.674  20.862  0.00  0.00    +0.000 A 
ATOM      4  C   UNL     1       1.122  10.409  19.690  0.00  0.00    +0.000 A 
ATOM      5  C   UNL     1       1.596   9.727  18.571  0.00  0.00    +0.000 A 
ATOM      6  C   UNL     1       1.916   8.367  18.638  0.00  0.00    +0.000 A 
ENDROOT
BRANCH   1  10
ATOM      7  C   UNL     1       2.529   4.320  19.039  0.00  0.00    +0.000 A 
ATOM      8  N   UNL     1       2.386   4.133  20.336  0.00  0.00    +0.000 NA
ATOM      9  N   UNL     1       2.084   5.370  20.882  0.00  0.00    +0.000 NA
ATOM     10  C   UNL     1       2.064   6.222  19.872  0.00  0.00    +0.000 A 
ATOM     11  O   UNL     1       2.384   5.628  18.682  0.00  0.00    +0.000 OA
BRANCH   7  12
ATOM     12  S   UNL     1       2.834   3.075  17.871  0.00  0.00    +0.000 S 
BRANCH  12  13
ATOM     13  C   UNL     1       4.471   3.581  17.276  0.00  0.00    +0.000 C 
BRANCH  13  15
ATOM     14  O   UNL     1       5.566   3.472  19.451  0.00  0.00    +0.000 OA
ATOM     15  C   UNL     1       5.396   4.061  18.384  0.00  0.00    +0.000 C 
BRANCH  15  16
ATOM     16  C   UNL     1       6.135   5.338  18.163  0.00  0.00    +0.000 A 
ATOM     17  C   UNL     1       5.689   6.307  17.256  0.00  0.00    +0.000 A 
ATOM     18  C   UNL     1       6.446   7.461  17.039  0.00  0.00    +0.000 A 
ATOM     19  C   UNL     1       7.641   7.656  17.730  0.00  0.00    +0.000 A 
ATOM     20  C   UNL     1       8.083   6.700  18.643  0.00  0.00    +0.000 A 
ATOM     21  C   UNL     1       7.335   5.541  18.856  0.00  0.00    +0.000 A 
ENDBRANCH  15  16
ENDBRANCH  13  15
ENDBRANCH  12  13
ENDBRANCH   7  12
ENDBRANCH   1  10
BRANCH   4  22
ATOM     22  N   UNL     1       0.829  11.792  19.695  0.00  0.00    +0.000 N 
ATOM     23  H   UNL     1       0.569  12.164  20.600  0.00  0.00    +0.000 HD
BRANCH  22  24
ATOM     24  C   UNL     1       0.999  12.741  18.688  0.00  0.00    +0.000 C 
ATOM     25  S   UNL     1       2.391  13.593  18.310  0.00  0.00    +0.000 S 
BRANCH  24  26
ATOM     26  N   UNL     1      -0.189  12.907  17.980  0.00  0.00    +0.000 N 
ATOM     27  H   UNL     1      -0.137  13.277  17.043  0.00  0.00    +0.000 HD
BRANCH  26  28
ATOM     28  C   UNL     1      -1.514  12.434  18.407  0.00  0.00    +0.000 C 
BRANCH  28  29
ATOM     29  C   UNL     1      -2.137  11.511  17.355  0.00  0.00    +0.000 C 
BRANCH  29  30
ATOM     30  O   UNL     1      -3.501  11.877  17.148  0.00  0.00    +0.000 OA
ATOM     31  H   UNL     1      -3.633  11.849  16.183  0.00  0.00    +0.000 HD
ENDBRANCH  29  30
ENDBRANCH  28  29
ENDBRANCH  26  28
ENDBRANCH  24  26
ENDBRANCH  22  24
ENDBRANCH   4  22
TORSDOF 11
ENDMDL
