MODEL 1
REMARK VINA RESULT:      -7.7      0.000      0.000
REMARK  Name = 
REMARK  5 active torsions:
REMARK  status: ('A' for Active; 'I' for Inactive)
REMARK    1  A    between atoms: C_1  and  C_2
REMARK    2  A    between atoms: C_8  and  O_9
REMARK    3  A    between atoms: O_9  and  C_10
REMARK    4  A    between atoms: C_10  and  C_11
REMARK    5  A    between atoms: C_11  and  C_12
REMARK                            x       y       z     vdW  Elec       q    Type
REMARK                         _______ _______ _______ _____ _____    ______ ____
ROOT
ATOM      1  C   UNL     1       1.132   2.842  21.040  0.00  0.00    +0.000 C 
ATOM      2  C   UNL     1       1.715   4.017  20.304  0.00  0.00    +0.000 A 
ATOM      3  C   UNL     1       1.452   5.307  20.795  0.00  0.00    +0.000 A 
ATOM      4  C   UNL     1       2.005   6.431  20.186  0.00  0.00    +0.000 A 
ATOM      5  C   UNL     1       2.839   6.276  19.084  0.00  0.00    +0.000 A 
ATOM      6  C   UNL     1       3.100   5.007  18.565  0.00  0.00    +0.000 A 
ATOM      7  N   UNL     1       3.952   4.914  17.469  0.00  0.00    +0.000 NA
ATOM      8  C   UNL     1       4.107   3.750  16.946  0.00  0.00    +0.000 A 
ATOM      9  O   UNL     1       3.542   2.598  17.351  0.00  0.00    +0.000 OA
ATOM     10  C   UNL     1       2.807   2.586  18.486  0.00  0.00    +0.000 A 
ATOM     11  O   UNL     1       2.368   1.530  18.929  0.00  0.00    +0.000 OA
ATOM     12  C   UNL     1       2.526   3.881  19.153  0.00  0.00    +0.000 A 
ENDROOT
BRANCH   8  13
ATOM     13  O   UNL     1       4.914   3.521  15.880  0.00  0.00    +0.000 OA
BRANCH  13  14
ATOM     14  C   UNL     1       5.342   4.687  15.152  0.00  0.00    +0.000 C 
BRANCH  14  15
ATOM     15  C   UNL     1       6.854   4.830  15.291  0.00  0.00    +0.000 C 
BRANCH  15  16
ATOM     16  C   UNL     1       7.270   5.497  16.579  0.00  0.00    +0.000 A 
ATOM     17  C   UNL     1       7.585   4.723  17.705  0.00  0.00    +0.000 A 
ATOM     18  C   UNL     1       8.000   5.331  18.892  0.00  0.00    +0.000 A 
ATOM     19  C   UNL     1       8.096   6.718  18.969  0.00  0.00    +0.000 A 
ATOM     20  C   UNL     1       7.767   7.499  17.863  0.00  0.00    +0.000 A 
ATOM     21  C   UNL     1       7.351   6.893  16.674  0.00  0.00    +0.000 A 
ENDBRANCH  15  16
ENDBRANCH  14  15
ENDBRANCH  13  14
ENDBRANCH   8  13
TORSDOF 4
ENDMDL
MODEL 2
REMARK VINA RESULT:      -7.7      1.365      2.473
REMARK  Name = 
REMARK  5 active torsions:
REMARK  status: ('A' for Active; 'I' for Inactive)
REMARK    1  A    between atoms: C_1  and  C_2
REMARK    2  A    between atoms: C_8  and  O_9
REMARK    3  A    between atoms: O_9  and  C_10
REMARK    4  A    between atoms: C_10  and  C_11
REMARK    5  A    between atoms: C_11  and  C_12
REMARK                            x       y       z     vdW  Elec       q    Type
REMARK                         _______ _______ _______ _____ _____    ______ ____
ROOT
ATOM      1  C   UNL     1       1.426   6.169  20.845  0.00  0.00    +0.000 C 
ATOM      2  C   UNL     1       1.746   4.814  20.276  0.00  0.00    +0.000 A 
ATOM      3  C   UNL     1       1.280   3.678  20.960  0.00  0.00    +0.000 A 
ATOM      4  C   UNL     1       1.501   2.398  20.455  0.00  0.00    +0.000 A 
ATOM      5  C   UNL     1       2.182   2.241  19.253  0.00  0.00    +0.000 A 
ATOM      6  C   UNL     1       2.673   3.352  18.565  0.00  0.00    +0.000 A 
ATOM      7  N   UNL     1       3.334   3.133  17.361  0.00  0.00    +0.000 NA
ATOM      8  C   UNL     1       3.862   4.156  16.789  0.00  0.00    +0.000 A 
ATOM      9  O   UNL     1       3.834   5.430  17.221  0.00  0.00    +0.000 OA
ATOM     10  C   UNL     1       3.099   5.741  18.312  0.00  0.00    +0.000 A 
ATOM     11  O   UNL     1       2.976   6.910  18.664  0.00  0.00    +0.000 OA
ATOM     12  C   UNL     1       2.480   4.633  19.080  0.00  0.00    +0.000 A 
ENDROOT
BRANCH   8  13
ATOM     13  O   UNL     1       4.528   4.081  15.610  0.00  0.00    +0.000 OA
BRANCH  13  14
ATOM     14  C   UNL     1       5.867   3.554  15.676  0.00  0.00    +0.000 C 
BRANCH  14  15
ATOM     15  C   UNL     1       6.857   4.681  15.395  0.00  0.00    +0.000 C 
BRANCH  15  16
ATOM     16  C   UNL     1       7.282   5.418  16.641  0.00  0.00    +0.000 A 
ATOM     17  C   UNL     1       7.335   6.819  16.650  0.00  0.00    +0.000 A 
ATOM     18  C   UNL     1       7.699   7.510  17.808  0.00  0.00    +0.000 A 
ATOM     19  C   UNL     1       8.020   6.808  18.967  0.00  0.00    +0.000 A 
ATOM     20  C   UNL     1       7.990   5.415  18.966  0.00  0.00    +0.000 A 
ATOM     21  C   UNL     1       7.627   4.721  17.808  0.00  0.00    +0.000 A 
ENDBRANCH  15  16
ENDBRANCH  14  15
ENDBRANCH  13  14
ENDBRANCH   8  13
TORSDOF 4
ENDMDL
MODEL 3
REMARK VINA RESULT:      -7.5      1.711      5.563
REMARK  Name = 
REMARK  5 active torsions:
REMARK  status: ('A' for Active; 'I' for Inactive)
REMARK    1  A    between atoms: C_1  and  C_2
REMARK    2  A    between atoms: C_8  and  O_9
REMARK    3  A    between atoms: O_9  and  C_10
REMARK    4  A    between atoms: C_10  and  C_11
REMARK    5  A    between atoms: C_11  and  C_12
REMARK                            x       y       z     vdW  Elec       q    Type
REMARK                         _______ _______ _______ _____ _____    ______ ____
ROOT
ATOM      1  C   UNL     1       7.761   6.702  17.743  0.00  0.00    +0.000 C 
ATOM      2  C   UNL     1       6.806   5.816  16.992  0.00  0.00    +0.000 A 
ATOM      3  C   UNL     1       6.746   5.937  15.593  0.00  0.00    +0.000 A 
ATOM      4  C   UNL     1       5.917   5.109  14.838  0.00  0.00    +0.000 A 
ATOM      5  C   UNL     1       5.147   4.143  15.475  0.00  0.00    +0.000 A 
ATOM      6  C   UNL     1       5.173   4.016  16.865  0.00  0.00    +0.000 A 
ATOM      7  N   UNL     1       4.390   3.022  17.443  0.00  0.00    +0.000 NA
ATOM      8  C   UNL     1       4.353   2.981  18.728  0.00  0.00    +0.000 A 
ATOM      9  O   UNL     1       5.002   3.791  19.583  0.00  0.00    +0.000 OA
ATOM     10  C   UNL     1       5.883   4.694  19.098  0.00  0.00    +0.000 A 
ATOM     11  O   UNL     1       6.562   5.372  19.863  0.00  0.00    +0.000 OA
ATOM     12  C   UNL     1       5.978   4.861  17.627  0.00  0.00    +0.000 A 
ENDROOT
BRANCH   8  13
ATOM     13  O   UNL     1       3.635   2.059  19.416  0.00  0.00    +0.000 OA
BRANCH  13  14
ATOM     14  C   UNL     1       2.679   2.580  20.358  0.00  0.00    +0.000 C 
BRANCH  14  15
ATOM     15  C   UNL     1       1.567   3.292  19.593  0.00  0.00    +0.000 C 
BRANCH  15  16
ATOM     16  C   UNL     1       1.775   4.783  19.500  0.00  0.00    +0.000 A 
ATOM     17  C   UNL     1       1.644   5.588  20.641  0.00  0.00    +0.000 A 
ATOM     18  C   UNL     1       1.864   6.964  20.570  0.00  0.00    +0.000 A 
ATOM     19  C   UNL     1       2.210   7.554  19.356  0.00  0.00    +0.000 A 
ATOM     20  C   UNL     1       2.324   6.769  18.211  0.00  0.00    +0.000 A 
ATOM     21  C   UNL     1       2.103   5.390  18.279  0.00  0.00    +0.000 A 
ENDBRANCH  15  16
ENDBRANCH  14  15
ENDBRANCH  13  14
ENDBRANCH   8  13
TORSDOF 4
ENDMDL
MODEL 4
REMARK VINA RESULT:      -7.4      1.663      5.583
REMARK  Name = 
REMARK  5 active torsions:
REMARK  status: ('A' for Active; 'I' for Inactive)
REMARK    1  A    between atoms: C_1  and  C_2
REMARK    2  A    between atoms: C_8  and  O_9
REMARK    3  A    between atoms: O_9  and  C_10
REMARK    4  A    between atoms: C_10  and  C_11
REMARK    5  A    between atoms: C_11  and  C_12
REMARK                            x       y       z     vdW  Elec       q    Type
REMARK                         _______ _______ _______ _____ _____    ______ ____
ROOT
ATOM      1  C   UNL     1       7.753   6.555  17.955  0.00  0.00    +0.000 C 
ATOM      2  C   UNL     1       6.860   5.714  17.085  0.00  0.00    +0.000 A 
ATOM      3  C   UNL     1       6.970   5.851  15.690  0.00  0.00    +0.000 A 
ATOM      4  C   UNL     1       6.206   5.063  14.832  0.00  0.00    +0.000 A 
ATOM      5  C   UNL     1       5.329   4.122  15.360  0.00  0.00    +0.000 A 
ATOM      6  C   UNL     1       5.186   3.982  16.741  0.00  0.00    +0.000 A 
ATOM      7  N   UNL     1       4.303   3.014  17.209  0.00  0.00    +0.000 NA
ATOM      8  C   UNL     1       4.113   2.962  18.480  0.00  0.00    +0.000 A 
ATOM      9  O   UNL     1       4.687   3.738  19.417  0.00  0.00    +0.000 OA
ATOM     10  C   UNL     1       5.653   4.611  19.052  0.00  0.00    +0.000 A 
ATOM     11  O   UNL     1       6.262   5.253  19.901  0.00  0.00    +0.000 OA
ATOM     12  C   UNL     1       5.927   4.787  17.604  0.00  0.00    +0.000 A 
ENDROOT
BRANCH   8  13
ATOM     13  O   UNL     1       3.284   2.063  19.066  0.00  0.00    +0.000 OA
BRANCH  13  14
ATOM     14  C   UNL     1       2.009   1.871  18.426  0.00  0.00    +0.000 C 
BRANCH  14  15
ATOM     15  C   UNL     1       0.980   2.782  19.090  0.00  0.00    +0.000 C 
BRANCH  15  16
ATOM     16  C   UNL     1       1.457   4.206  19.235  0.00  0.00    +0.000 A 
ATOM     17  C   UNL     1       1.781   4.962  18.098  0.00  0.00    +0.000 A 
ATOM     18  C   UNL     1       2.194   6.290  18.222  0.00  0.00    +0.000 A 
ATOM     19  C   UNL     1       2.295   6.875  19.482  0.00  0.00    +0.000 A 
ATOM     20  C   UNL     1       1.995   6.129  20.619  0.00  0.00    +0.000 A 
ATOM     21  C   UNL     1       1.582   4.799  20.499  0.00  0.00    +0.000 A 
ENDBRANCH  15  16
ENDBRANCH  14  15
ENDBRANCH  13  14
ENDBRANCH   8  13
TORSDOF 4
ENDMDL
MODEL 5
REMARK VINA RESULT:      -7.3      2.300      3.859
REMARK  Name = 
REMARK  5 active torsions:
REMARK  status: ('A' for Active; 'I' for Inactive)
REMARK    1  A    between atoms: C_1  and  C_2
REMARK    2  A    between atoms: C_8  and  O_9
REMARK    3  A    between atoms: O_9  and  C_10
REMARK    4  A    between atoms: C_10  and  C_11
REMARK    5  A    between atoms: C_11  and  C_12
REMARK                            x       y       z     vdW  Elec       q    Type
REMARK                         _______ _______ _______ _____ _____    ______ ____
ROOT
ATOM      1  C   UNL     1       1.094   4.414  17.456  0.00  0.00    +0.000 C 
ATOM      2  C   UNL     1       2.225   3.587  18.001  0.00  0.00    +0.000 A 
ATOM      3  C   UNL     1       2.099   2.188  17.978  0.00  0.00    +0.000 A 
ATOM      4  C   UNL     1       3.134   1.368  18.422  0.00  0.00    +0.000 A 
ATOM      5  C   UNL     1       4.312   1.939  18.886  0.00  0.00    +0.000 A 
ATOM      6  C   UNL     1       4.456   3.327  18.940  0.00  0.00    +0.000 A 
ATOM      7  N   UNL     1       5.664   3.840  19.401  0.00  0.00    +0.000 NA
ATOM      8  C   UNL     1       5.745   5.116  19.533  0.00  0.00    +0.000 A 
ATOM      9  O   UNL     1       4.788   6.021  19.260  0.00  0.00    +0.000 OA
ATOM     10  C   UNL     1       3.635   5.610  18.684  0.00  0.00    +0.000 A 
ATOM     11  O   UNL     1       2.791   6.428  18.332  0.00  0.00    +0.000 OA
ATOM     12  C   UNL     1       3.413   4.152  18.523  0.00  0.00    +0.000 A 
ENDROOT
BRANCH   8  13
ATOM     13  O   UNL     1       6.866   5.744  19.967  0.00  0.00    +0.000 OA
BRANCH  13  14
ATOM     14  C   UNL     1       7.983   5.736  19.058  0.00  0.00    +0.000 C 
BRANCH  14  15
ATOM     15  C   UNL     1       7.662   6.638  17.870  0.00  0.00    +0.000 C 
BRANCH  15  16
ATOM     16  C   UNL     1       6.925   5.921  16.766  0.00  0.00    +0.000 A 
ATOM     17  C   UNL     1       5.868   6.553  16.096  0.00  0.00    +0.000 A 
ATOM     18  C   UNL     1       5.200   5.909  15.053  0.00  0.00    +0.000 A 
ATOM     19  C   UNL     1       5.577   4.622  14.673  0.00  0.00    +0.000 A 
ATOM     20  C   UNL     1       6.613   3.976  15.343  0.00  0.00    +0.000 A 
ATOM     21  C   UNL     1       7.282   4.619  16.389  0.00  0.00    +0.000 A 
ENDBRANCH  15  16
ENDBRANCH  14  15
ENDBRANCH  13  14
ENDBRANCH   8  13
TORSDOF 4
ENDMDL
MODEL 6
REMARK VINA RESULT:      -7.2      2.159      5.759
REMARK  Name = 
REMARK  5 active torsions:
REMARK  status: ('A' for Active; 'I' for Inactive)
REMARK    1  A    between atoms: C_1  and  C_2
REMARK    2  A    between atoms: C_8  and  O_9
REMARK    3  A    between atoms: O_9  and  C_10
REMARK    4  A    between atoms: C_10  and  C_11
REMARK    5  A    between atoms: C_11  and  C_12
REMARK                            x       y       z     vdW  Elec       q    Type
REMARK                         _______ _______ _______ _____ _____    ______ ____
ROOT
ATOM      1  C   UNL     1       8.197   4.376  17.956  0.00  0.00    +0.000 C 
ATOM      2  C   UNL     1       7.010   4.816  17.144  0.00  0.00    +0.000 A 
ATOM      3  C   UNL     1       7.110   4.775  15.743  0.00  0.00    +0.000 A 
ATOM      4  C   UNL     1       6.027   5.122  14.938  0.00  0.00    +0.000 A 
ATOM      5  C   UNL     1       4.828   5.505  15.527  0.00  0.00    +0.000 A 
ATOM      6  C   UNL     1       4.709   5.575  16.916  0.00  0.00    +0.000 A 
ATOM      7  N   UNL     1       3.480   5.952  17.447  0.00  0.00    +0.000 NA
ATOM      8  C   UNL     1       3.415   6.102  18.722  0.00  0.00    +0.000 A 
ATOM      9  O   UNL     1       4.409   5.922  19.610  0.00  0.00    +0.000 OA
ATOM     10  C   UNL     1       5.594   5.429  19.185  0.00  0.00    +0.000 A 
ATOM     11  O   UNL     1       6.479   5.159  19.991  0.00  0.00    +0.000 OA
ATOM     12  C   UNL     1       5.798   5.256  17.725  0.00  0.00    +0.000 A 
ENDROOT
BRANCH   8  13
ATOM     13  O   UNL     1       2.277   6.461  19.366  0.00  0.00    +0.000 OA
BRANCH  13  14
ATOM     14  C   UNL     1       2.001   5.763  20.595  0.00  0.00    +0.000 C 
BRANCH  14  15
ATOM     15  C   UNL     1       1.223   4.489  20.277  0.00  0.00    +0.000 C 
BRANCH  15  16
ATOM     16  C   UNL     1       2.060   3.442  19.585  0.00  0.00    +0.000 A 
ATOM     17  C   UNL     1       3.184   2.900  20.225  0.00  0.00    +0.000 A 
ATOM     18  C   UNL     1       3.947   1.909  19.605  0.00  0.00    +0.000 A 
ATOM     19  C   UNL     1       3.599   1.453  18.335  0.00  0.00    +0.000 A 
ATOM     20  C   UNL     1       2.496   1.996  17.681  0.00  0.00    +0.000 A 
ATOM     21  C   UNL     1       1.731   2.990  18.300  0.00  0.00    +0.000 A 
ENDBRANCH  15  16
ENDBRANCH  14  15
ENDBRANCH  13  14
ENDBRANCH   8  13
TORSDOF 4
ENDMDL
MODEL 7
REMARK VINA RESULT:      -7.2      3.144      5.692
REMARK  Name = 
REMARK  5 active torsions:
REMARK  status: ('A' for Active; 'I' for Inactive)
REMARK    1  A    between atoms: C_1  and  C_2
REMARK    2  A    between atoms: C_8  and  O_9
REMARK    3  A    between atoms: O_9  and  C_10
REMARK    4  A    between atoms: C_10  and  C_11
REMARK    5  A    between atoms: C_11  and  C_12
REMARK                            x       y       z     vdW  Elec       q    Type
REMARK                         _______ _______ _______ _____ _____    ______ ____
ROOT
ATOM      1  C   UNL     1       0.305  10.896  18.810  0.00  0.00    +0.000 C 
ATOM      2  C   UNL     1       0.688   9.722  19.668  0.00  0.00    +0.000 A 
ATOM      3  C   UNL     1       0.108   9.612  20.944  0.00  0.00    +0.000 A 
ATOM      4  C   UNL     1       0.384   8.521  21.764  0.00  0.00    +0.000 A 
ATOM      5  C   UNL     1       1.237   7.520  21.313  0.00  0.00    +0.000 A 
ATOM      6  C   UNL     1       1.842   7.615  20.059  0.00  0.00    +0.000 A 
ATOM      7  N   UNL     1       2.675   6.576  19.657  0.00  0.00    +0.000 NA
ATOM      8  C   UNL     1       3.297   6.723  18.541  0.00  0.00    +0.000 A 
ATOM      9  O   UNL     1       3.223   7.774  17.705  0.00  0.00    +0.000 OA
ATOM     10  C   UNL     1       2.336   8.762  17.963  0.00  0.00    +0.000 A 
ATOM     11  O   UNL     1       2.177   9.677  17.162  0.00  0.00    +0.000 OA
ATOM     12  C   UNL     1       1.591   8.718  19.246  0.00  0.00    +0.000 A 
ENDROOT
BRANCH   8  13
ATOM     13  O   UNL     1       4.133   5.784  18.033  0.00  0.00    +0.000 OA
BRANCH  13  14
ATOM     14  C   UNL     1       3.510   4.731  17.273  0.00  0.00    +0.000 C 
BRANCH  14  15
ATOM     15  C   UNL     1       3.779   3.397  17.963  0.00  0.00    +0.000 C 
BRANCH  15  16
ATOM     16  C   UNL     1       2.917   3.176  19.180  0.00  0.00    +0.000 A 
ATOM     17  C   UNL     1       1.522   3.295  19.090  0.00  0.00    +0.000 A 
ATOM     18  C   UNL     1       0.714   3.063  20.205  0.00  0.00    +0.000 A 
ATOM     19  C   UNL     1       1.292   2.717  21.424  0.00  0.00    +0.000 A 
ATOM     20  C   UNL     1       2.676   2.614  21.533  0.00  0.00    +0.000 A 
ATOM     21  C   UNL     1       3.488   2.847  20.418  0.00  0.00    +0.000 A 
ENDBRANCH  15  16
ENDBRANCH  14  15
ENDBRANCH  13  14
ENDBRANCH   8  13
TORSDOF 4
ENDMDL
MODEL 8
REMARK VINA RESULT:      -7.1      1.228      5.430
REMARK  Name = 
REMARK  5 active torsions:
REMARK  status: ('A' for Active; 'I' for Inactive)
REMARK    1  A    between atoms: C_1  and  C_2
REMARK    2  A    between atoms: C_8  and  O_9
REMARK    3  A    between atoms: O_9  and  C_10
REMARK    4  A    between atoms: C_10  and  C_11
REMARK    5  A    between atoms: C_11  and  C_12
REMARK                            x       y       z     vdW  Elec       q    Type
REMARK                         _______ _______ _______ _____ _____    ______ ____
ROOT
ATOM      1  C   UNL     1       6.782   5.840  15.185  0.00  0.00    +0.000 C 
ATOM      2  C   UNL     1       6.782   5.634  16.675  0.00  0.00    +0.000 A 
ATOM      3  C   UNL     1       7.671   6.397  17.452  0.00  0.00    +0.000 A 
ATOM      4  C   UNL     1       7.682   6.287  18.841  0.00  0.00    +0.000 A 
ATOM      5  C   UNL     1       6.797   5.420  19.469  0.00  0.00    +0.000 A 
ATOM      6  C   UNL     1       5.919   4.636  18.719  0.00  0.00    +0.000 A 
ATOM      7  N   UNL     1       5.046   3.797  19.405  0.00  0.00    +0.000 NA
ATOM      8  C   UNL     1       4.311   3.014  18.698  0.00  0.00    +0.000 A 
ATOM      9  O   UNL     1       4.281   2.923  17.357  0.00  0.00    +0.000 OA
ATOM     10  C   UNL     1       5.003   3.797  16.619  0.00  0.00    +0.000 A 
ATOM     11  O   UNL     1       4.911   3.800  15.396  0.00  0.00    +0.000 OA
ATOM     12  C   UNL     1       5.922   4.720  17.329  0.00  0.00    +0.000 A 
ENDROOT
BRANCH   8  13
ATOM     13  O   UNL     1       3.416   2.152  19.242  0.00  0.00    +0.000 OA
BRANCH  13  14
ATOM     14  C   UNL     1       2.152   2.043  18.560  0.00  0.00    +0.000 C 
BRANCH  14  15
ATOM     15  C   UNL     1       1.131   2.929  19.266  0.00  0.00    +0.000 C 
BRANCH  15  16
ATOM     16  C   UNL     1       1.559   4.374  19.350  0.00  0.00    +0.000 A 
ATOM     17  C   UNL     1       1.900   5.078  18.186  0.00  0.00    +0.000 A 
ATOM     18  C   UNL     1       2.269   6.423  18.251  0.00  0.00    +0.000 A 
ATOM     19  C   UNL     1       2.307   7.077  19.480  0.00  0.00    +0.000 A 
ATOM     20  C   UNL     1       1.989   6.384  20.646  0.00  0.00    +0.000 A 
ATOM     21  C   UNL     1       1.621   5.037  20.583  0.00  0.00    +0.000 A 
ENDBRANCH  15  16
ENDBRANCH  14  15
ENDBRANCH  13  14
ENDBRANCH   8  13
TORSDOF 4
ENDMDL
MODEL 9
REMARK VINA RESULT:      -7.1      3.804      6.442
REMARK  Name = 
REMARK  5 active torsions:
REMARK  status: ('A' for Active; 'I' for Inactive)
REMARK    1  A    between atoms: C_1  and  C_2
REMARK    2  A    between atoms: C_8  and  O_9
REMARK    3  A    between atoms: O_9  and  C_10
REMARK    4  A    between atoms: C_10  and  C_11
REMARK    5  A    between atoms: C_11  and  C_12
REMARK                            x       y       z     vdW  Elec       q    Type
REMARK                         _______ _______ _______ _____ _____    ______ ____
ROOT
ATOM      1  C   UNL     1       3.574   1.684  18.326  0.00  0.00    +0.000 C 
ATOM      2  C   UNL     1       2.760   2.703  19.073  0.00  0.00    +0.000 A 
ATOM      3  C   UNL     1       1.914   2.255  20.102  0.00  0.00    +0.000 A 
ATOM      4  C   UNL     1       1.173   3.157  20.862  0.00  0.00    +0.000 A 
ATOM      5  C   UNL     1       1.277   4.519  20.608  0.00  0.00    +0.000 A 
ATOM      6  C   UNL     1       2.094   4.989  19.578  0.00  0.00    +0.000 A 
ATOM      7  N   UNL     1       2.168   6.364  19.380  0.00  0.00    +0.000 NA
ATOM      8  C   UNL     1       2.849   6.773  18.369  0.00  0.00    +0.000 A 
ATOM      9  O   UNL     1       3.515   6.015  17.481  0.00  0.00    +0.000 OA
ATOM     10  C   UNL     1       3.598   4.680  17.682  0.00  0.00    +0.000 A 
ATOM     11  O   UNL     1       4.286   3.983  16.943  0.00  0.00    +0.000 OA
ATOM     12  C   UNL     1       2.815   4.089  18.796  0.00  0.00    +0.000 A 
ENDROOT
BRANCH   8  13
ATOM     13  O   UNL     1       3.006   8.087  18.068  0.00  0.00    +0.000 OA
BRANCH  13  14
ATOM     14  C   UNL     1       1.818   8.781  17.644  0.00  0.00    +0.000 C 
BRANCH  14  15
ATOM     15  C   UNL     1       1.405   9.767  18.733  0.00  0.00    +0.000 C 
BRANCH  15  16
ATOM     16  C   UNL     1       0.073  10.423  18.462  0.00  0.00    +0.000 A 
ATOM     17  C   UNL     1      -0.903   9.756  17.707  0.00  0.00    +0.000 A 
ATOM     18  C   UNL     1      -2.148  10.344  17.478  0.00  0.00    +0.000 A 
ATOM     19  C   UNL     1      -2.430  11.606  17.994  0.00  0.00    +0.000 A 
ATOM     20  C   UNL     1      -1.462  12.287  18.729  0.00  0.00    +0.000 A 
ATOM     21  C   UNL     1      -0.214  11.702  18.960  0.00  0.00    +0.000 A 
ENDBRANCH  15  16
ENDBRANCH  14  15
ENDBRANCH  13  14
ENDBRANCH   8  13
TORSDOF 4
ENDMDL
