MODEL 1
REMARK VINA RESULT:      -7.6      0.000      0.000
REMARK  Name = 
REMARK  8 active torsions:
REMARK  status: ('A' for Active; 'I' for Inactive)
REMARK    1  A    between atoms: C_1  and  C_2
REMARK    2  A    between atoms: C_6  and  C_7
REMARK    3  A    between atoms: C_7  and  N_8
REMARK    4  A    between atoms: N_8  and  C_9
REMARK    5  A    between atoms: C_9  and  C_10
REMARK    6  A    between atoms: C_9  and  C_18
REMARK    7  A    between atoms: C_10  and  O_11
REMARK    8  A    between atoms: O_11  and  C_12
REMARK                            x       y       z     vdW  Elec       q    Type
REMARK                         _______ _______ _______ _____ _____    ______ ____
ROOT
ATOM      1  C   UNL     1       2.968   4.686  18.036  0.00  0.00    +0.000 C 
ENDROOT
BRANCH   1   2
ATOM      2  C   UNL     1       2.585   6.087  18.504  0.00  0.00    +0.000 A 
ATOM      3  C   UNL     1       2.566   7.163  17.602  0.00  0.00    +0.000 A 
ATOM      4  C   UNL     1       2.190   8.440  18.027  0.00  0.00    +0.000 A 
ATOM      5  C   UNL     1       1.823   8.658  19.354  0.00  0.00    +0.000 A 
ATOM      6  C   UNL     1       1.833   7.600  20.259  0.00  0.00    +0.000 A 
ATOM      7  C   UNL     1       2.214   6.327  19.838  0.00  0.00    +0.000 A 
ENDBRANCH   1   2
BRANCH   1   8
ATOM      8  N   UNL     1       1.752   3.901  17.734  0.00  0.00    +0.000 NA
ATOM      9  H   UNL     1       0.948   4.384  18.128  0.00  0.00    +0.000 HD
BRANCH   8  10
ATOM     10  C   UNL     1       1.807   2.547  18.273  0.00  0.00    +0.000 C 
BRANCH  10  16
ATOM     11  C   UNL     1       4.484   2.125  20.092  0.00  0.00    +0.000 C 
ATOM     12  C   UNL     1       3.108   2.445  20.551  0.00  0.00    +0.000 A 
ATOM     13  N   UNL     1       2.860   2.633  21.854  0.00  0.00    +0.000 NA
ATOM     14  N   UNL     1       1.552   2.902  21.901  0.00  0.00    +0.000 N 
ATOM     15  C   UNL     1       0.948   2.890  20.678  0.00  0.00    +0.000 A 
ATOM     16  C   UNL     1       1.937   2.607  19.756  0.00  0.00    +0.000 A 
ATOM     17  H   UNL     1       1.135   3.102  22.804  0.00  0.00    +0.000 HD
ENDBRANCH  10  16
ENDBRANCH   8  10
ENDBRANCH   1   8
BRANCH   1  18
ATOM     18  C   UNL     1       4.022   4.777  16.893  0.00  0.00    +0.000 C 
BRANCH  18  19
ATOM     19  O   UNL     1       5.316   4.363  17.346  0.00  0.00    +0.000 OA
BRANCH  19  20
ATOM     20  C   UNL     1       6.207   5.358  17.635  0.00  0.00    +0.000 A 
ATOM     21  C   UNL     1       7.076   5.080  18.692  0.00  0.00    +0.000 A 
ATOM     22  C   UNL     1       8.011   6.028  19.107  0.00  0.00    +0.000 A 
ATOM     23  C   UNL     1       8.090   7.256  18.453  0.00  0.00    +0.000 A 
ATOM     24  C   UNL     1       7.252   7.523  17.372  0.00  0.00    +0.000 A 
ATOM     25  C   UNL     1       6.314   6.571  16.957  0.00  0.00    +0.000 A 
ENDBRANCH  19  20
ENDBRANCH  18  19
ENDBRANCH   1  18
TORSDOF 7
ENDMDL
MODEL 2
REMARK VINA RESULT:      -7.6      1.227      4.407
REMARK  Name = 
REMARK  8 active torsions:
REMARK  status: ('A' for Active; 'I' for Inactive)
REMARK    1  A    between atoms: C_1  and  C_2
REMARK    2  A    between atoms: C_6  and  C_7
REMARK    3  A    between atoms: C_7  and  N_8
REMARK    4  A    between atoms: N_8  and  C_9
REMARK    5  A    between atoms: C_9  and  C_10
REMARK    6  A    between atoms: C_9  and  C_18
REMARK    7  A    between atoms: C_10  and  O_11
REMARK    8  A    between atoms: O_11  and  C_12
REMARK                            x       y       z     vdW  Elec       q    Type
REMARK                         _______ _______ _______ _____ _____    ______ ____
ROOT
ATOM      1  C   UNL     1       4.755   4.611  17.546  0.00  0.00    +0.000 C 
ENDROOT
BRANCH   1   2
ATOM      2  C   UNL     1       5.938   5.538  17.810  0.00  0.00    +0.000 A 
ATOM      3  C   UNL     1       6.113   6.709  17.054  0.00  0.00    +0.000 A 
ATOM      4  C   UNL     1       7.183   7.569  17.314  0.00  0.00    +0.000 A 
ATOM      5  C   UNL     1       8.087   7.275  18.334  0.00  0.00    +0.000 A 
ATOM      6  C   UNL     1       7.924   6.121  19.095  0.00  0.00    +0.000 A 
ATOM      7  C   UNL     1       6.861   5.258  18.832  0.00  0.00    +0.000 A 
ENDBRANCH   1   2
BRANCH   1   8
ATOM      8  N   UNL     1       4.872   3.390  18.372  0.00  0.00    +0.000 NA
ATOM      9  H   UNL     1       5.669   2.850  18.042  0.00  0.00    +0.000 HD
BRANCH   8  10
ATOM     10  C   UNL     1       3.676   2.557  18.320  0.00  0.00    +0.000 C 
BRANCH  10  16
ATOM     11  C   UNL     1       0.462   2.594  18.891  0.00  0.00    +0.000 C 
ATOM     12  C   UNL     1       1.567   2.615  19.884  0.00  0.00    +0.000 A 
ATOM     13  N   UNL     1       1.293   2.614  21.195  0.00  0.00    +0.000 NA
ATOM     14  N   UNL     1       2.496   2.629  21.778  0.00  0.00    +0.000 N 
ATOM     15  C   UNL     1       3.533   2.643  20.892  0.00  0.00    +0.000 A 
ATOM     16  C   UNL     1       2.969   2.620  19.631  0.00  0.00    +0.000 A 
ATOM     17  H   UNL     1       2.538   2.612  22.792  0.00  0.00    +0.000 HD
ENDBRANCH  10  16
ENDBRANCH   8  10
ENDBRANCH   1   8
BRANCH   1  18
ATOM     18  C   UNL     1       3.420   5.401  17.683  0.00  0.00    +0.000 C 
BRANCH  18  19
ATOM     19  O   UNL     1       3.289   5.976  18.988  0.00  0.00    +0.000 OA
BRANCH  19  20
ATOM     20  C   UNL     1       2.559   7.128  19.076  0.00  0.00    +0.000 A 
ATOM     21  C   UNL     1       2.493   7.873  17.896  0.00  0.00    +0.000 A 
ATOM     22  C   UNL     1       1.806   9.087  17.864  0.00  0.00    +0.000 A 
ATOM     23  C   UNL     1       1.168   9.552  19.011  0.00  0.00    +0.000 A 
ATOM     24  C   UNL     1       1.197   8.793  20.180  0.00  0.00    +0.000 A 
ATOM     25  C   UNL     1       1.887   7.576  20.211  0.00  0.00    +0.000 A 
ENDBRANCH  19  20
ENDBRANCH  18  19
ENDBRANCH   1  18
TORSDOF 7
ENDMDL
MODEL 3
REMARK VINA RESULT:      -7.6      2.211      5.850
REMARK  Name = 
REMARK  8 active torsions:
REMARK  status: ('A' for Active; 'I' for Inactive)
REMARK    1  A    between atoms: C_1  and  C_2
REMARK    2  A    between atoms: C_6  and  C_7
REMARK    3  A    between atoms: C_7  and  N_8
REMARK    4  A    between atoms: N_8  and  C_9
REMARK    5  A    between atoms: C_9  and  C_10
REMARK    6  A    between atoms: C_9  and  C_18
REMARK    7  A    between atoms: C_10  and  O_11
REMARK    8  A    between atoms: O_11  and  C_12
REMARK                            x       y       z     vdW  Elec       q    Type
REMARK                         _______ _______ _______ _____ _____    ______ ____
ROOT
ATOM      1  C   UNL     1       4.010   5.276  18.129  0.00  0.00    +0.000 C 
ENDROOT
BRANCH   1   2
ATOM      2  C   UNL     1       5.440   5.802  18.210  0.00  0.00    +0.000 A 
ATOM      3  C   UNL     1       5.889   6.795  17.324  0.00  0.00    +0.000 A 
ATOM      4  C   UNL     1       7.191   7.293  17.417  0.00  0.00    +0.000 A 
ATOM      5  C   UNL     1       8.059   6.812  18.396  0.00  0.00    +0.000 A 
ATOM      6  C   UNL     1       7.626   5.831  19.284  0.00  0.00    +0.000 A 
ATOM      7  C   UNL     1       6.330   5.328  19.189  0.00  0.00    +0.000 A 
ENDBRANCH   1   2
BRANCH   1   8
ATOM      8  N   UNL     1       3.072   6.390  17.871  0.00  0.00    +0.000 NA
ATOM      9  H   UNL     1       3.587   7.152  17.436  0.00  0.00    +0.000 HD
BRANCH   8  10
ATOM     10  C   UNL     1       2.429   6.879  19.085  0.00  0.00    +0.000 C 
BRANCH  10  16
ATOM     11  C   UNL     1       0.842   8.828  21.168  0.00  0.00    +0.000 C 
ATOM     12  C   UNL     1       1.244   9.121  19.769  0.00  0.00    +0.000 A 
ATOM     13  N   UNL     1       0.991  10.322  19.233  0.00  0.00    +0.000 NA
ATOM     14  N   UNL     1       1.484  10.236  17.994  0.00  0.00    +0.000 N 
ATOM     15  C   UNL     1       2.040   9.024  17.710  0.00  0.00    +0.000 A 
ATOM     16  C   UNL     1       1.918   8.260  18.855  0.00  0.00    +0.000 A 
ATOM     17  H   UNL     1       1.422  11.053  17.395  0.00  0.00    +0.000 HD
ENDBRANCH  10  16
ENDBRANCH   8  10
ENDBRANCH   1   8
BRANCH   1  18
ATOM     18  C   UNL     1       3.939   4.081  17.133  0.00  0.00    +0.000 C 
BRANCH  18  19
ATOM     19  O   UNL     1       3.813   2.834  17.826  0.00  0.00    +0.000 OA
BRANCH  19  20
ATOM     20  C   UNL     1       3.038   2.839  18.952  0.00  0.00    +0.000 A 
ATOM     21  C   UNL     1       1.672   3.025  18.724  0.00  0.00    +0.000 A 
ATOM     22  C   UNL     1       0.779   3.083  19.794  0.00  0.00    +0.000 A 
ATOM     23  C   UNL     1       1.249   2.939  21.098  0.00  0.00    +0.000 A 
ATOM     24  C   UNL     1       2.604   2.713  21.327  0.00  0.00    +0.000 A 
ATOM     25  C   UNL     1       3.500   2.655  20.254  0.00  0.00    +0.000 A 
ENDBRANCH  19  20
ENDBRANCH  18  19
ENDBRANCH   1  18
TORSDOF 7
ENDMDL
MODEL 4
REMARK VINA RESULT:      -7.6      1.812      4.721
REMARK  Name = 
REMARK  8 active torsions:
REMARK  status: ('A' for Active; 'I' for Inactive)
REMARK    1  A    between atoms: C_1  and  C_2
REMARK    2  A    between atoms: C_6  and  C_7
REMARK    3  A    between atoms: C_7  and  N_8
REMARK    4  A    between atoms: N_8  and  C_9
REMARK    5  A    between atoms: C_9  and  C_10
REMARK    6  A    between atoms: C_9  and  C_18
REMARK    7  A    between atoms: C_10  and  O_11
REMARK    8  A    between atoms: O_11  and  C_12
REMARK                            x       y       z     vdW  Elec       q    Type
REMARK                         _______ _______ _______ _____ _____    ______ ____
ROOT
ATOM      1  C   UNL     1       4.449   4.183  18.713  0.00  0.00    +0.000 C 
ENDROOT
BRANCH   1   2
ATOM      2  C   UNL     1       5.278   4.373  17.444  0.00  0.00    +0.000 A 
ATOM      3  C   UNL     1       6.667   4.564  17.520  0.00  0.00    +0.000 A 
ATOM      4  C   UNL     1       7.427   4.713  16.356  0.00  0.00    +0.000 A 
ATOM      5  C   UNL     1       6.812   4.667  15.106  0.00  0.00    +0.000 A 
ATOM      6  C   UNL     1       5.437   4.473  15.016  0.00  0.00    +0.000 A 
ATOM      7  C   UNL     1       4.676   4.331  16.176  0.00  0.00    +0.000 A 
ENDBRANCH   1   2
BRANCH   1   8
ATOM      8  N   UNL     1       5.031   3.106  19.543  0.00  0.00    +0.000 NA
ATOM      9  H   UNL     1       5.975   2.916  19.213  0.00  0.00    +0.000 HD
BRANCH   8  10
ATOM     10  C   UNL     1       4.252   1.875  19.497  0.00  0.00    +0.000 C 
BRANCH  10  16
ATOM     11  C   UNL     1       2.079   2.744  21.774  0.00  0.00    +0.000 C 
ATOM     12  C   UNL     1       1.864   2.606  20.310  0.00  0.00    +0.000 A 
ATOM     13  N   UNL     1       0.669   2.889  19.776  0.00  0.00    +0.000 NA
ATOM     14  N   UNL     1       0.835   2.666  18.469  0.00  0.00    +0.000 N 
ATOM     15  C   UNL     1       2.092   2.247  18.142  0.00  0.00    +0.000 A 
ATOM     16  C   UNL     1       2.809   2.206  19.322  0.00  0.00    +0.000 A 
ATOM     17  H   UNL     1       0.051   2.837  17.849  0.00  0.00    +0.000 HD
ENDBRANCH  10  16
ENDBRANCH   8  10
ENDBRANCH   1   8
BRANCH   1  18
ATOM     18  C   UNL     1       4.241   5.553  19.421  0.00  0.00    +0.000 C 
BRANCH  18  19
ATOM     19  O   UNL     1       2.853   5.800  19.675  0.00  0.00    +0.000 OA
BRANCH  19  20
ATOM     20  C   UNL     1       2.377   7.029  19.313  0.00  0.00    +0.000 A 
ATOM     21  C   UNL     1       1.783   7.757  20.347  0.00  0.00    +0.000 A 
ATOM     22  C   UNL     1       1.228   9.013  20.099  0.00  0.00    +0.000 A 
ATOM     23  C   UNL     1       1.280   9.552  18.815  0.00  0.00    +0.000 A 
ATOM     24  C   UNL     1       1.907   8.846  17.789  0.00  0.00    +0.000 A 
ATOM     25  C   UNL     1       2.463   7.587  18.039  0.00  0.00    +0.000 A 
ENDBRANCH  19  20
ENDBRANCH  18  19
ENDBRANCH   1  18
TORSDOF 7
ENDMDL
MODEL 5
REMARK VINA RESULT:      -7.6      2.223      5.944
REMARK  Name = 
REMARK  8 active torsions:
REMARK  status: ('A' for Active; 'I' for Inactive)
REMARK    1  A    between atoms: C_1  and  C_2
REMARK    2  A    between atoms: C_6  and  C_7
REMARK    3  A    between atoms: C_7  and  N_8
REMARK    4  A    between atoms: N_8  and  C_9
REMARK    5  A    between atoms: C_9  and  C_10
REMARK    6  A    between atoms: C_9  and  C_18
REMARK    7  A    between atoms: C_10  and  O_11
REMARK    8  A    between atoms: O_11  and  C_12
REMARK                            x       y       z     vdW  Elec       q    Type
REMARK                         _______ _______ _______ _____ _____    ______ ____
ROOT
ATOM      1  C   UNL     1       3.945   5.272  18.168  0.00  0.00    +0.000 C 
ENDROOT
BRANCH   1   2
ATOM      2  C   UNL     1       5.365   5.830  18.233  0.00  0.00    +0.000 A 
ATOM      3  C   UNL     1       6.288   5.329  19.165  0.00  0.00    +0.000 A 
ATOM      4  C   UNL     1       7.595   5.824  19.206  0.00  0.00    +0.000 A 
ATOM      5  C   UNL     1       7.996   6.818  18.315  0.00  0.00    +0.000 A 
ATOM      6  C   UNL     1       7.093   7.320  17.383  0.00  0.00    +0.000 A 
ATOM      7  C   UNL     1       5.787   6.833  17.346  0.00  0.00    +0.000 A 
ENDBRANCH   1   2
BRANCH   1   8
ATOM      8  N   UNL     1       2.982   6.363  17.905  0.00  0.00    +0.000 NA
ATOM      9  H   UNL     1       3.461   7.103  17.397  0.00  0.00    +0.000 HD
BRANCH   8  10
ATOM     10  C   UNL     1       2.409   6.916  19.127  0.00  0.00    +0.000 C 
BRANCH  10  16
ATOM     11  C   UNL     1       0.697   8.872  21.103  0.00  0.00    +0.000 C 
ATOM     12  C   UNL     1       1.192   9.163  19.733  0.00  0.00    +0.000 A 
ATOM     13  N   UNL     1       0.981  10.366  19.183  0.00  0.00    +0.000 NA
ATOM     14  N   UNL     1       1.553  10.278  17.978  0.00  0.00    +0.000 N 
ATOM     15  C   UNL     1       2.121   9.063  17.730  0.00  0.00    +0.000 A 
ATOM     16  C   UNL     1       1.920   8.299  18.864  0.00  0.00    +0.000 A 
ATOM     17  H   UNL     1       1.534  11.095  17.377  0.00  0.00    +0.000 HD
ENDBRANCH  10  16
ENDBRANCH   8  10
ENDBRANCH   1   8
BRANCH   1  18
ATOM     18  C   UNL     1       3.893   4.065  17.185  0.00  0.00    +0.000 C 
BRANCH  18  19
ATOM     19  O   UNL     1       3.806   2.823  17.893  0.00  0.00    +0.000 OA
BRANCH  19  20
ATOM     20  C   UNL     1       3.034   2.817  19.021  0.00  0.00    +0.000 A 
ATOM     21  C   UNL     1       1.666   2.986  18.798  0.00  0.00    +0.000 A 
ATOM     22  C   UNL     1       0.775   3.033  19.870  0.00  0.00    +0.000 A 
ATOM     23  C   UNL     1       1.251   2.894  21.172  0.00  0.00    +0.000 A 
ATOM     24  C   UNL     1       2.610   2.685  21.397  0.00  0.00    +0.000 A 
ATOM     25  C   UNL     1       3.503   2.639  20.321  0.00  0.00    +0.000 A 
ENDBRANCH  19  20
ENDBRANCH  18  19
ENDBRANCH   1  18
TORSDOF 7
ENDMDL
MODEL 6
REMARK VINA RESULT:      -7.5      2.677      5.875
REMARK  Name = 
REMARK  8 active torsions:
REMARK  status: ('A' for Active; 'I' for Inactive)
REMARK    1  A    between atoms: C_1  and  C_2
REMARK    2  A    between atoms: C_6  and  C_7
REMARK    3  A    between atoms: C_7  and  N_8
REMARK    4  A    between atoms: N_8  and  C_9
REMARK    5  A    between atoms: C_9  and  C_10
REMARK    6  A    between atoms: C_9  and  C_18
REMARK    7  A    between atoms: C_10  and  O_11
REMARK    8  A    between atoms: O_11  and  C_12
REMARK                            x       y       z     vdW  Elec       q    Type
REMARK                         _______ _______ _______ _____ _____    ______ ____
ROOT
ATOM      1  C   UNL     1       4.142   4.440  18.301  0.00  0.00    +0.000 C 
ENDROOT
BRANCH   1   2
ATOM      2  C   UNL     1       2.958   3.864  19.073  0.00  0.00    +0.000 A 
ATOM      3  C   UNL     1       2.926   3.914  20.476  0.00  0.00    +0.000 A 
ATOM      4  C   UNL     1       1.830   3.409  21.180  0.00  0.00    +0.000 A 
ATOM      5  C   UNL     1       0.750   2.855  20.493  0.00  0.00    +0.000 A 
ATOM      6  C   UNL     1       0.766   2.804  19.102  0.00  0.00    +0.000 A 
ATOM      7  C   UNL     1       1.862   3.300  18.399  0.00  0.00    +0.000 A 
ENDBRANCH   1   2
BRANCH   1   8
ATOM      8  N   UNL     1       4.064   4.040  16.880  0.00  0.00    +0.000 NA
ATOM      9  H   UNL     1       3.230   3.473  16.747  0.00  0.00    +0.000 HD
BRANCH   8  10
ATOM     10  C   UNL     1       5.231   3.283  16.441  0.00  0.00    +0.000 C 
BRANCH  10  16
ATOM     11  C   UNL     1       5.863   3.635  13.257  0.00  0.00    +0.000 C 
ATOM     12  C   UNL     1       6.465   4.375  14.396  0.00  0.00    +0.000 A 
ATOM     13  N   UNL     1       7.360   5.345  14.169  0.00  0.00    +0.000 NA
ATOM     14  N   UNL     1       7.678   5.787  15.390  0.00  0.00    +0.000 N 
ATOM     15  C   UNL     1       7.024   5.134  16.394  0.00  0.00    +0.000 A 
ATOM     16  C   UNL     1       6.203   4.204  15.786  0.00  0.00    +0.000 A 
ATOM     17  H   UNL     1       8.339   6.552  15.467  0.00  0.00    +0.000 HD
ENDBRANCH  10  16
ENDBRANCH   8  10
ENDBRANCH   1   8
BRANCH   1  18
ATOM     18  C   UNL     1       4.263   5.968  18.574  0.00  0.00    +0.000 C 
BRANCH  18  19
ATOM     19  O   UNL     1       3.296   6.707  17.819  0.00  0.00    +0.000 OA
BRANCH  19  20
ATOM     20  C   UNL     1       2.502   7.568  18.523  0.00  0.00    +0.000 A 
ATOM     21  C   UNL     1       2.021   8.656  17.792  0.00  0.00    +0.000 A 
ATOM     22  C   UNL     1       1.227   9.626  18.406  0.00  0.00    +0.000 A 
ATOM     23  C   UNL     1       0.899   9.500  19.754  0.00  0.00    +0.000 A 
ATOM     24  C   UNL     1       1.343   8.395  20.478  0.00  0.00    +0.000 A 
ATOM     25  C   UNL     1       2.140   7.424  19.862  0.00  0.00    +0.000 A 
ENDBRANCH  19  20
ENDBRANCH  18  19
ENDBRANCH   1  18
TORSDOF 7
ENDMDL
MODEL 7
REMARK VINA RESULT:      -7.5      2.483      5.751
REMARK  Name = 
REMARK  8 active torsions:
REMARK  status: ('A' for Active; 'I' for Inactive)
REMARK    1  A    between atoms: C_1  and  C_2
REMARK    2  A    between atoms: C_6  and  C_7
REMARK    3  A    between atoms: C_7  and  N_8
REMARK    4  A    between atoms: N_8  and  C_9
REMARK    5  A    between atoms: C_9  and  C_10
REMARK    6  A    between atoms: C_9  and  C_18
REMARK    7  A    between atoms: C_10  and  O_11
REMARK    8  A    between atoms: O_11  and  C_12
REMARK                            x       y       z     vdW  Elec       q    Type
REMARK                         _______ _______ _______ _____ _____    ______ ____
ROOT
ATOM      1  C   UNL     1       3.790   4.668  18.258  0.00  0.00    +0.000 C 
ENDROOT
BRANCH   1   2
ATOM      2  C   UNL     1       2.862   4.012  19.278  0.00  0.00    +0.000 A 
ATOM      3  C   UNL     1       1.497   3.840  18.996  0.00  0.00    +0.000 A 
ATOM      4  C   UNL     1       0.654   3.217  19.921  0.00  0.00    +0.000 A 
ATOM      5  C   UNL     1       1.163   2.754  21.133  0.00  0.00    +0.000 A 
ATOM      6  C   UNL     1       2.516   2.913  21.423  0.00  0.00    +0.000 A 
ATOM      7  C   UNL     1       3.356   3.540  20.506  0.00  0.00    +0.000 A 
ENDBRANCH   1   2
BRANCH   1   8
ATOM      8  N   UNL     1       3.644   4.010  16.942  0.00  0.00    +0.000 NA
ATOM      9  H   UNL     1       2.832   3.397  16.974  0.00  0.00    +0.000 HD
BRANCH   8  10
ATOM     10  C   UNL     1       4.818   3.230  16.568  0.00  0.00    +0.000 C 
BRANCH  10  16
ATOM     11  C   UNL     1       7.541   4.672  17.646  0.00  0.00    +0.000 C 
ATOM     12  C   UNL     1       6.969   4.707  16.275  0.00  0.00    +0.000 A 
ATOM     13  N   UNL     1       7.608   5.361  15.296  0.00  0.00    +0.000 NA
ATOM     14  N   UNL     1       6.830   5.183  14.224  0.00  0.00    +0.000 N 
ATOM     15  C   UNL     1       5.713   4.442  14.477  0.00  0.00    +0.000 A 
ATOM     16  C   UNL     1       5.768   4.095  15.813  0.00  0.00    +0.000 A 
ATOM     17  H   UNL     1       7.131   5.582  13.341  0.00  0.00    +0.000 HD
ENDBRANCH  10  16
ENDBRANCH   8  10
ENDBRANCH   1   8
BRANCH   1  18
ATOM     18  C   UNL     1       3.590   6.212  18.274  0.00  0.00    +0.000 C 
BRANCH  18  19
ATOM     19  O   UNL     1       3.010   6.647  19.509  0.00  0.00    +0.000 OA
BRANCH  19  20
ATOM     20  C   UNL     1       2.174   7.727  19.441  0.00  0.00    +0.000 A 
ATOM     21  C   UNL     1       2.057   8.301  18.174  0.00  0.00    +0.000 A 
ATOM     22  C   UNL     1       1.260   9.430  17.980  0.00  0.00    +0.000 A 
ATOM     23  C   UNL     1       0.564   9.979  19.054  0.00  0.00    +0.000 A 
ATOM     24  C   UNL     1       0.646   9.386  20.313  0.00  0.00    +0.000 A 
ATOM     25  C   UNL     1       1.446   8.255  20.506  0.00  0.00    +0.000 A 
ENDBRANCH  19  20
ENDBRANCH  18  19
ENDBRANCH   1  18
TORSDOF 7
ENDMDL
MODEL 8
REMARK VINA RESULT:      -7.5      2.665      5.993
REMARK  Name = 
REMARK  8 active torsions:
REMARK  status: ('A' for Active; 'I' for Inactive)
REMARK    1  A    between atoms: C_1  and  C_2
REMARK    2  A    between atoms: C_6  and  C_7
REMARK    3  A    between atoms: C_7  and  N_8
REMARK    4  A    between atoms: N_8  and  C_9
REMARK    5  A    between atoms: C_9  and  C_10
REMARK    6  A    between atoms: C_9  and  C_18
REMARK    7  A    between atoms: C_10  and  O_11
REMARK    8  A    between atoms: O_11  and  C_12
REMARK                            x       y       z     vdW  Elec       q    Type
REMARK                         _______ _______ _______ _____ _____    ______ ____
ROOT
ATOM      1  C   UNL     1       3.213   5.420  18.254  0.00  0.00    +0.000 C 
ENDROOT
BRANCH   1   2
ATOM      2  C   UNL     1       2.491   4.502  19.237  0.00  0.00    +0.000 A 
ATOM      3  C   UNL     1       2.801   4.535  20.606  0.00  0.00    +0.000 A 
ATOM      4  C   UNL     1       2.121   3.711  21.508  0.00  0.00    +0.000 A 
ATOM      5  C   UNL     1       1.122   2.850  21.056  0.00  0.00    +0.000 A 
ATOM      6  C   UNL     1       0.801   2.811  19.702  0.00  0.00    +0.000 A 
ATOM      7  C   UNL     1       1.483   3.626  18.800  0.00  0.00    +0.000 A 
ENDBRANCH   1   2
BRANCH   1   8
ATOM      8  N   UNL     1       3.599   4.664  17.043  0.00  0.00    +0.000 NA
ATOM      9  H   UNL     1       2.854   4.010  16.817  0.00  0.00    +0.000 HD
BRANCH   8  10
ATOM     10  C   UNL     1       4.847   3.927  17.212  0.00  0.00    +0.000 C 
BRANCH  10  16
ATOM     11  C   UNL     1       6.134   3.808  14.214  0.00  0.00    +0.000 C 
ATOM     12  C   UNL     1       6.525   4.692  15.342  0.00  0.00    +0.000 A 
ATOM     13  N   UNL     1       7.492   5.604  15.178  0.00  0.00    +0.000 NA
ATOM     14  N   UNL     1       7.573   6.210  16.366  0.00  0.00    +0.000 N 
ATOM     15  C   UNL     1       6.697   5.720  17.290  0.00  0.00    +0.000 A 
ATOM     16  C   UNL     1       5.975   4.727  16.656  0.00  0.00    +0.000 A 
ATOM     17  H   UNL     1       8.240   6.966  16.475  0.00  0.00    +0.000 HD
ENDBRANCH  10  16
ENDBRANCH   8  10
ENDBRANCH   1   8
BRANCH   1  18
ATOM     18  C   UNL     1       2.371   6.707  18.013  0.00  0.00    +0.000 C 
BRANCH  18  19
ATOM     19  O   UNL     1       2.754   7.753  18.914  0.00  0.00    +0.000 OA
BRANCH  19  20
ATOM     20  C   UNL     1       1.738   8.458  19.496  0.00  0.00    +0.000 A 
ATOM     21  C   UNL     1       1.412   8.056  20.793  0.00  0.00    +0.000 A 
ATOM     22  C   UNL     1       0.369   8.675  21.483  0.00  0.00    +0.000 A 
ATOM     23  C   UNL     1      -0.342   9.710  20.881  0.00  0.00    +0.000 A 
ATOM     24  C   UNL     1       0.006  10.141  19.603  0.00  0.00    +0.000 A 
ATOM     25  C   UNL     1       1.051   9.520  18.911  0.00  0.00    +0.000 A 
ENDBRANCH  19  20
ENDBRANCH  18  19
ENDBRANCH   1  18
TORSDOF 7
ENDMDL
MODEL 9
REMARK VINA RESULT:      -7.5      2.701      6.082
REMARK  Name = 
REMARK  8 active torsions:
REMARK  status: ('A' for Active; 'I' for Inactive)
REMARK    1  A    between atoms: C_1  and  C_2
REMARK    2  A    between atoms: C_6  and  C_7
REMARK    3  A    between atoms: C_7  and  N_8
REMARK    4  A    between atoms: N_8  and  C_9
REMARK    5  A    between atoms: C_9  and  C_10
REMARK    6  A    between atoms: C_9  and  C_18
REMARK    7  A    between atoms: C_10  and  O_11
REMARK    8  A    between atoms: O_11  and  C_12
REMARK                            x       y       z     vdW  Elec       q    Type
REMARK                         _______ _______ _______ _____ _____    ______ ____
ROOT
ATOM      1  C   UNL     1       3.038   6.229  18.302  0.00  0.00    +0.000 C 
ENDROOT
BRANCH   1   2
ATOM      2  C   UNL     1       2.266   5.041  18.872  0.00  0.00    +0.000 A 
ATOM      3  C   UNL     1       2.010   4.949  20.250  0.00  0.00    +0.000 A 
ATOM      4  C   UNL     1       1.282   3.874  20.766  0.00  0.00    +0.000 A 
ATOM      5  C   UNL     1       0.796   2.882  19.915  0.00  0.00    +0.000 A 
ATOM      6  C   UNL     1       1.038   2.963  18.547  0.00  0.00    +0.000 A 
ATOM      7  C   UNL     1       1.771   4.031  18.031  0.00  0.00    +0.000 A 
ENDBRANCH   1   2
BRANCH   1   8
ATOM      8  N   UNL     1       3.924   5.780  17.207  0.00  0.00    +0.000 NA
ATOM      9  H   UNL     1       4.151   4.799  17.354  0.00  0.00    +0.000 HD
BRANCH   8  10
ATOM     10  C   UNL     1       5.160   6.550  17.129  0.00  0.00    +0.000 C 
BRANCH  10  16
ATOM     11  C   UNL     1       6.944   4.637  15.176  0.00  0.00    +0.000 C 
ATOM     12  C   UNL     1       7.106   4.858  16.636  0.00  0.00    +0.000 A 
ATOM     13  N   UNL     1       8.106   4.262  17.299  0.00  0.00    +0.000 NA
ATOM     14  N   UNL     1       7.956   4.681  18.560  0.00  0.00    +0.000 N 
ATOM     15  C   UNL     1       6.894   5.521  18.733  0.00  0.00    +0.000 A 
ATOM     16  C   UNL     1       6.313   5.677  17.490  0.00  0.00    +0.000 A 
ATOM     17  H   UNL     1       8.626   4.367  19.253  0.00  0.00    +0.000 HD
ENDBRANCH  10  16
ENDBRANCH   8  10
ENDBRANCH   1   8
BRANCH   1  18
ATOM     18  C   UNL     1       2.053   7.383  17.953  0.00  0.00    +0.000 C 
BRANCH  18  19
ATOM     19  O   UNL     1       2.352   8.565  18.704  0.00  0.00    +0.000 OA
BRANCH  19  20
ATOM     20  C   UNL     1       1.436   8.934  19.648  0.00  0.00    +0.000 A 
ATOM     21  C   UNL     1       0.546   9.933  19.246  0.00  0.00    +0.000 A 
ATOM     22  C   UNL     1      -0.416  10.422  20.130  0.00  0.00    +0.000 A 
ATOM     23  C   UNL     1      -0.501   9.899  21.418  0.00  0.00    +0.000 A 
ATOM     24  C   UNL     1       0.358   8.875  21.812  0.00  0.00    +0.000 A 
ATOM     25  C   UNL     1       1.323   8.386  20.925  0.00  0.00    +0.000 A 
ENDBRANCH  19  20
ENDBRANCH  18  19
ENDBRANCH   1  18
TORSDOF 7
ENDMDL
