MODEL 1
REMARK VINA RESULT:      -5.3      0.000      0.000
REMARK  Name = 
REMARK  25 active torsions:
REMARK  status: ('A' for Active; 'I' for Inactive)
REMARK    1  A    between atoms: C_1  and  C_2
REMARK    2  A    between atoms: C_2  and  C_3
REMARK    3  A    between atoms: C_4  and  C_5
REMARK    4  A    between atoms: C_5  and  C_6
REMARK    5  A    between atoms: C_6  and  C_7
REMARK    6  A    between atoms: C_7  and  C_8
REMARK    7  A    between atoms: C_9  and  C_10
REMARK    8  A    between atoms: C_10  and  C_11
REMARK    9  A    between atoms: C_11  and  C_12
REMARK   10  A    between atoms: C_12  and  C_13
REMARK   11  A    between atoms: C_14  and  C_15
REMARK   12  A    between atoms: C_15  and  N_16
REMARK   13  A    between atoms: N_16  and  C_17
REMARK   14  A    between atoms: C_17  and  C_18
REMARK   15  A    between atoms: C_18  and  C_19
REMARK   16  A    between atoms: C_19  and  O_20
REMARK   17  A    between atoms: O_20  and  C_21
REMARK   18  A    between atoms: C_21  and  C_22
REMARK   19  A    between atoms: C_22  and  C_23
REMARK   20  A    between atoms: C_23  and  C_24
REMARK   21  A    between atoms: C_24  and  O_25
REMARK   22  A    between atoms: O_25  and  C_26
REMARK   23  A    between atoms: C_26  and  C_27
REMARK   24  A    between atoms: C_27  and  C_28
REMARK   25  A    between atoms: C_28  and  N_29
REMARK                            x       y       z     vdW  Elec       q    Type
REMARK                         _______ _______ _______ _____ _____    ______ ____
ROOT
ATOM      1  N   UNL     1       1.960   5.428  20.920  0.00  0.00    +0.000 NA
ATOM      2  H   UNL     1       1.724   5.572  21.900  0.00  0.00    +0.000 HD
ENDROOT
BRANCH   1   3
ATOM      3  C   UNL     1       1.025   4.472  20.330  0.00  0.00    +0.000 C 
BRANCH   3   4
ATOM      4  C   UNL     1       1.639   3.080  20.337  0.00  0.00    +0.000 C 
BRANCH   4   5
ATOM      5  C   UNL     1       2.701   2.989  19.258  0.00  0.00    +0.000 C 
BRANCH   5   6
ATOM      6  O   UNL     1       3.984   3.203  19.833  0.00  0.00    +0.000 OA
BRANCH   6   7
ATOM      7  C   UNL     1       4.761   4.069  19.016  0.00  0.00    +0.000 C 
BRANCH   7   8
ATOM      8  C   UNL     1       3.976   4.423  17.770  0.00  0.00    +0.000 C 
BRANCH   8   9
ATOM      9  C   UNL     1       4.179   5.897  17.414  0.00  0.00    +0.000 C 
BRANCH   9  10
ATOM     10  C   UNL     1       5.101   6.035  16.222  0.00  0.00    +0.000 C 
BRANCH  10  11
ATOM     11  O   UNL     1       6.072   7.040  16.488  0.00  0.00    +0.000 OA
BRANCH  11  12
ATOM     12  C   UNL     1       7.313   6.442  16.837  0.00  0.00    +0.000 C 
BRANCH  12  13
ATOM     13  C   UNL     1       7.578   6.647  18.317  0.00  0.00    +0.000 C 
BRANCH  13  14
ATOM     14  C   UNL     1       8.008   5.334  18.963  0.00  0.00    +0.000 C 
BRANCH  14  15
ATOM     15  N   UNL     1       8.154   5.517  20.401  0.00  0.00    +0.000 NA
ATOM     16  H   UNL     1       8.917   6.162  20.591  0.00  0.00    +0.000 HD
ATOM     17  H   UNL     1       8.390   4.624  20.833  0.00  0.00    +0.000 HD
ENDBRANCH  14  15
ENDBRANCH  13  14
ENDBRANCH  12  13
ENDBRANCH  11  12
ENDBRANCH  10  11
ENDBRANCH   9  10
ENDBRANCH   8   9
ENDBRANCH   7   8
ENDBRANCH   6   7
ENDBRANCH   5   6
ENDBRANCH   4   5
ENDBRANCH   3   4
ENDBRANCH   1   3
BRANCH   1  18
ATOM     18  C   UNL     1       1.828   6.690  20.212  0.00  0.00    +0.000 C 
BRANCH  18  21
ATOM     19  C   UNL     1       0.748   8.463  21.599  0.00  0.00    +0.000 C 
ATOM     20  C   UNL     1      -0.613   8.016  21.102  0.00  0.00    +0.000 C 
ATOM     21  C   UNL     1       1.853   7.821  21.172  0.00  0.00    +0.000 C 
BRANCH  19  22
ATOM     22  C   UNL     1       0.829   9.629  22.568  0.00  0.00    +0.000 C 
BRANCH  22  23
ATOM     23  C   UNL     1       0.044  10.849  22.073  0.00  0.00    +0.000 C 
BRANCH  23  26
ATOM     24  C   UNL     1      -1.904  12.274  22.719  0.00  0.00    +0.000 C 
ATOM     25  C   UNL     1      -3.125  12.469  23.569  0.00  0.00    +0.000 C 
ATOM     26  C   UNL     1      -1.172  11.163  22.867  0.00  0.00    +0.000 C 
BRANCH  24  27
ATOM     27  C   UNL     1      -1.478  13.314  21.700  0.00  0.00    +0.000 C 
BRANCH  27  28
ATOM     28  C   UNL     1      -2.412  13.406  20.516  0.00  0.00    +0.000 C 
BRANCH  28  32
ATOM     29  C   UNL     1      -1.742  10.608  17.959  0.00  0.00    +0.000 C 
ATOM     30  C   UNL     1      -1.643  11.885  18.739  0.00  0.00    +0.000 C 
ATOM     31  C   UNL     1      -0.555  12.866  18.366  0.00  0.00    +0.000 C 
ATOM     32  C   UNL     1      -2.489  12.132  19.719  0.00  0.00    +0.000 C 
ENDBRANCH  28  32
ENDBRANCH  27  28
ENDBRANCH  24  27
ENDBRANCH  23  26
ENDBRANCH  22  23
ENDBRANCH  19  22
ENDBRANCH  18  21
ENDBRANCH   1  18
TORSDOF 21
ENDMDL
MODEL 2
REMARK VINA RESULT:      -5.3      4.074     10.478
REMARK  Name = 
REMARK  25 active torsions:
REMARK  status: ('A' for Active; 'I' for Inactive)
REMARK    1  A    between atoms: C_1  and  C_2
REMARK    2  A    between atoms: C_2  and  C_3
REMARK    3  A    between atoms: C_4  and  C_5
REMARK    4  A    between atoms: C_5  and  C_6
REMARK    5  A    between atoms: C_6  and  C_7
REMARK    6  A    between atoms: C_7  and  C_8
REMARK    7  A    between atoms: C_9  and  C_10
REMARK    8  A    between atoms: C_10  and  C_11
REMARK    9  A    between atoms: C_11  and  C_12
REMARK   10  A    between atoms: C_12  and  C_13
REMARK   11  A    between atoms: C_14  and  C_15
REMARK   12  A    between atoms: C_15  and  N_16
REMARK   13  A    between atoms: N_16  and  C_17
REMARK   14  A    between atoms: C_17  and  C_18
REMARK   15  A    between atoms: C_18  and  C_19
REMARK   16  A    between atoms: C_19  and  O_20
REMARK   17  A    between atoms: O_20  and  C_21
REMARK   18  A    between atoms: C_21  and  C_22
REMARK   19  A    between atoms: C_22  and  C_23
REMARK   20  A    between atoms: C_23  and  C_24
REMARK   21  A    between atoms: C_24  and  O_25
REMARK   22  A    between atoms: O_25  and  C_26
REMARK   23  A    between atoms: C_26  and  C_27
REMARK   24  A    between atoms: C_27  and  C_28
REMARK   25  A    between atoms: C_28  and  N_29
REMARK                            x       y       z     vdW  Elec       q    Type
REMARK                         _______ _______ _______ _____ _____    ______ ____
ROOT
ATOM      1  N   UNL     1       1.500   8.301  21.795  0.00  0.00    +0.000 NA
ATOM      2  H   UNL     1       2.512   8.179  21.787  0.00  0.00    +0.000 HD
ENDROOT
BRANCH   1   3
ATOM      3  C   UNL     1       1.152   9.418  22.670  0.00  0.00    +0.000 C 
BRANCH   3   4
ATOM      4  C   UNL     1      -0.355   9.459  22.879  0.00  0.00    +0.000 C 
BRANCH   4   5
ATOM      5  C   UNL     1      -0.836  10.897  22.816  0.00  0.00    +0.000 C 
BRANCH   5   6
ATOM      6  O   UNL     1       0.127  11.692  22.136  0.00  0.00    +0.000 OA
BRANCH   6   7
ATOM      7  C   UNL     1      -0.496  12.809  21.515  0.00  0.00    +0.000 C 
BRANCH   7   8
ATOM      8  C   UNL     1      -0.274  14.045  22.362  0.00  0.00    +0.000 C 
BRANCH   8   9
ATOM      9  C   UNL     1      -1.607  14.738  22.653  0.00  0.00    +0.000 C 
BRANCH   9  10
ATOM     10  C   UNL     1      -2.203  14.225  23.946  0.00  0.00    +0.000 C 
BRANCH  10  11
ATOM     11  O   UNL     1      -3.589  14.540  23.986  0.00  0.00    +0.000 OA
BRANCH  11  12
ATOM     12  C   UNL     1      -4.186  14.291  22.720  0.00  0.00    +0.000 C 
BRANCH  12  13
ATOM     13  C   UNL     1      -4.939  12.974  22.765  0.00  0.00    +0.000 C 
BRANCH  13  14
ATOM     14  C   UNL     1      -5.711  12.852  24.075  0.00  0.00    +0.000 C 
BRANCH  14  15
ATOM     15  N   UNL     1      -4.960  12.029  25.014  0.00  0.00    +0.000 NA
ATOM     16  H   UNL     1      -4.202  12.574  25.420  0.00  0.00    +0.000 HD
ATOM     17  H   UNL     1      -4.544  11.243  24.517  0.00  0.00    +0.000 HD
ENDBRANCH  14  15
ENDBRANCH  13  14
ENDBRANCH  12  13
ENDBRANCH  11  12
ENDBRANCH  10  11
ENDBRANCH   9  10
ENDBRANCH   8   9
ENDBRANCH   7   8
ENDBRANCH   6   7
ENDBRANCH   5   6
ENDBRANCH   4   5
ENDBRANCH   3   4
ENDBRANCH   1   3
BRANCH   1  18
ATOM     18  C   UNL     1       1.051   8.617  20.451  0.00  0.00    +0.000 C 
BRANCH  18  21
ATOM     19  C   UNL     1       2.277   8.540  18.277  0.00  0.00    +0.000 C 
ATOM     20  C   UNL     1       1.760   9.924  17.942  0.00  0.00    +0.000 C 
ATOM     21  C   UNL     1       1.935   7.970  19.450  0.00  0.00    +0.000 C 
BRANCH  19  22
ATOM     22  C   UNL     1       3.170   7.827  17.278  0.00  0.00    +0.000 C 
BRANCH  22  23
ATOM     23  C   UNL     1       3.602   6.441  17.772  0.00  0.00    +0.000 C 
BRANCH  23  26
ATOM     24  C   UNL     1       5.651   5.018  17.634  0.00  0.00    +0.000 C 
ATOM     25  C   UNL     1       6.810   4.512  16.826  0.00  0.00    +0.000 C 
ATOM     26  C   UNL     1       4.795   5.885  17.081  0.00  0.00    +0.000 C 
BRANCH  24  27
ATOM     27  C   UNL     1       5.434   4.572  19.068  0.00  0.00    +0.000 C 
BRANCH  27  28
ATOM     28  C   UNL     1       4.546   3.355  19.186  0.00  0.00    +0.000 C 
BRANCH  28  32
ATOM     29  C   UNL     1       0.863   3.838  20.197  0.00  0.00    +0.000 C 
ATOM     30  C   UNL     1       2.102   3.577  19.394  0.00  0.00    +0.000 C 
ATOM     31  C   UNL     1       1.946   3.276  17.920  0.00  0.00    +0.000 C 
ATOM     32  C   UNL     1       3.287   3.613  19.970  0.00  0.00    +0.000 C 
ENDBRANCH  28  32
ENDBRANCH  27  28
ENDBRANCH  24  27
ENDBRANCH  23  26
ENDBRANCH  22  23
ENDBRANCH  19  22
ENDBRANCH  18  21
ENDBRANCH   1  18
TORSDOF 21
ENDMDL
MODEL 3
REMARK VINA RESULT:      -5.3      5.428      9.832
REMARK  Name = 
REMARK  25 active torsions:
REMARK  status: ('A' for Active; 'I' for Inactive)
REMARK    1  A    between atoms: C_1  and  C_2
REMARK    2  A    between atoms: C_2  and  C_3
REMARK    3  A    between atoms: C_4  and  C_5
REMARK    4  A    between atoms: C_5  and  C_6
REMARK    5  A    between atoms: C_6  and  C_7
REMARK    6  A    between atoms: C_7  and  C_8
REMARK    7  A    between atoms: C_9  and  C_10
REMARK    8  A    between atoms: C_10  and  C_11
REMARK    9  A    between atoms: C_11  and  C_12
REMARK   10  A    between atoms: C_12  and  C_13
REMARK   11  A    between atoms: C_14  and  C_15
REMARK   12  A    between atoms: C_15  and  N_16
REMARK   13  A    between atoms: N_16  and  C_17
REMARK   14  A    between atoms: C_17  and  C_18
REMARK   15  A    between atoms: C_18  and  C_19
REMARK   16  A    between atoms: C_19  and  O_20
REMARK   17  A    between atoms: O_20  and  C_21
REMARK   18  A    between atoms: C_21  and  C_22
REMARK   19  A    between atoms: C_22  and  C_23
REMARK   20  A    between atoms: C_23  and  C_24
REMARK   21  A    between atoms: C_24  and  O_25
REMARK   22  A    between atoms: O_25  and  C_26
REMARK   23  A    between atoms: C_26  and  C_27
REMARK   24  A    between atoms: C_27  and  C_28
REMARK   25  A    between atoms: C_28  and  N_29
REMARK                            x       y       z     vdW  Elec       q    Type
REMARK                         _______ _______ _______ _____ _____    ______ ____
ROOT
ATOM      1  N   UNL     1       8.761  10.125  17.837  0.00  0.00    +0.000 NA
ATOM      2  H   UNL     1       7.976  10.774  17.895  0.00  0.00    +0.000 HD
ENDROOT
BRANCH   1   3
ATOM      3  C   UNL     1       9.889  10.657  18.599  0.00  0.00    +0.000 C 
BRANCH   3   4
ATOM      4  C   UNL     1       9.512  11.999  19.209  0.00  0.00    +0.000 C 
BRANCH   4   5
ATOM      5  C   UNL     1      10.280  12.202  20.502  0.00  0.00    +0.000 C 
BRANCH   5   6
ATOM      6  O   UNL     1       9.521  11.695  21.592  0.00  0.00    +0.000 OA
BRANCH   6   7
ATOM      7  C   UNL     1       8.786  12.739  22.218  0.00  0.00    +0.000 C 
BRANCH   7   8
ATOM      8  C   UNL     1       7.787  12.140  23.187  0.00  0.00    +0.000 C 
BRANCH   8   9
ATOM      9  C   UNL     1       6.664  13.138  23.479  0.00  0.00    +0.000 C 
BRANCH   9  10
ATOM     10  C   UNL     1       5.892  12.724  24.712  0.00  0.00    +0.000 C 
BRANCH  10  11
ATOM     11  O   UNL     1       6.240  11.390  25.065  0.00  0.00    +0.000 OA
BRANCH  11  12
ATOM     12  C   UNL     1       6.215  11.234  26.477  0.00  0.00    +0.000 C 
BRANCH  12  13
ATOM     13  C   UNL     1       4.779  11.285  26.968  0.00  0.00    +0.000 C 
BRANCH  13  14
ATOM     14  C   UNL     1       4.224   9.872  27.117  0.00  0.00    +0.000 C 
BRANCH  14  15
ATOM     15  N   UNL     1       2.811   9.933  27.471  0.00  0.00    +0.000 NA
ATOM     16  H   UNL     1       2.708  10.287  28.419  0.00  0.00    +0.000 HD
ATOM     17  H   UNL     1       2.416   8.994  27.447  0.00  0.00    +0.000 HD
ENDBRANCH  14  15
ENDBRANCH  13  14
ENDBRANCH  12  13
ENDBRANCH  11  12
ENDBRANCH  10  11
ENDBRANCH   9  10
ENDBRANCH   8   9
ENDBRANCH   7   8
ENDBRANCH   6   7
ENDBRANCH   5   6
ENDBRANCH   4   5
ENDBRANCH   3   4
ENDBRANCH   1   3
BRANCH   1  18
ATOM     18  C   UNL     1       8.369   8.858  18.428  0.00  0.00    +0.000 C 
BRANCH  18  21
ATOM     19  C   UNL     1       7.501   6.675  17.580  0.00  0.00    +0.000 C 
ATOM     20  C   UNL     1       7.893   6.017  18.887  0.00  0.00    +0.000 C 
ATOM     21  C   UNL     1       7.729   7.992  17.407  0.00  0.00    +0.000 C 
BRANCH  19  22
ATOM     22  C   UNL     1       6.860   5.829  16.495  0.00  0.00    +0.000 C 
BRANCH  22  23
ATOM     23  C   UNL     1       5.502   5.263  16.928  0.00  0.00    +0.000 C 
BRANCH  23  26
ATOM     24  C   UNL     1       3.761   6.688  18.013  0.00  0.00    +0.000 C 
ATOM     25  C   UNL     1       2.664   7.704  17.873  0.00  0.00    +0.000 C 
ATOM     26  C   UNL     1       4.391   6.251  16.916  0.00  0.00    +0.000 C 
BRANCH  24  27
ATOM     27  C   UNL     1       4.163   6.143  19.370  0.00  0.00    +0.000 C 
BRANCH  27  28
ATOM     28  C   UNL     1       3.237   5.061  19.876  0.00  0.00    +0.000 C 
BRANCH  28  32
ATOM     29  C   UNL     1       3.407   1.660  18.081  0.00  0.00    +0.000 C 
ATOM     30  C   UNL     1       2.982   3.037  18.497  0.00  0.00    +0.000 C 
ATOM     31  C   UNL     1       1.786   3.654  17.807  0.00  0.00    +0.000 C 
ATOM     32  C   UNL     1       3.643   3.680  19.439  0.00  0.00    +0.000 C 
ENDBRANCH  28  32
ENDBRANCH  27  28
ENDBRANCH  24  27
ENDBRANCH  23  26
ENDBRANCH  22  23
ENDBRANCH  19  22
ENDBRANCH  18  21
ENDBRANCH   1  18
TORSDOF 21
ENDMDL
MODEL 4
REMARK VINA RESULT:      -5.3      3.783      9.375
REMARK  Name = 
REMARK  25 active torsions:
REMARK  status: ('A' for Active; 'I' for Inactive)
REMARK    1  A    between atoms: C_1  and  C_2
REMARK    2  A    between atoms: C_2  and  C_3
REMARK    3  A    between atoms: C_4  and  C_5
REMARK    4  A    between atoms: C_5  and  C_6
REMARK    5  A    between atoms: C_6  and  C_7
REMARK    6  A    between atoms: C_7  and  C_8
REMARK    7  A    between atoms: C_9  and  C_10
REMARK    8  A    between atoms: C_10  and  C_11
REMARK    9  A    between atoms: C_11  and  C_12
REMARK   10  A    between atoms: C_12  and  C_13
REMARK   11  A    between atoms: C_14  and  C_15
REMARK   12  A    between atoms: C_15  and  N_16
REMARK   13  A    between atoms: N_16  and  C_17
REMARK   14  A    between atoms: C_17  and  C_18
REMARK   15  A    between atoms: C_18  and  C_19
REMARK   16  A    between atoms: C_19  and  O_20
REMARK   17  A    between atoms: O_20  and  C_21
REMARK   18  A    between atoms: C_21  and  C_22
REMARK   19  A    between atoms: C_22  and  C_23
REMARK   20  A    between atoms: C_23  and  C_24
REMARK   21  A    between atoms: C_24  and  O_25
REMARK   22  A    between atoms: O_25  and  C_26
REMARK   23  A    between atoms: C_26  and  C_27
REMARK   24  A    between atoms: C_27  and  C_28
REMARK   25  A    between atoms: C_28  and  N_29
REMARK                            x       y       z     vdW  Elec       q    Type
REMARK                         _______ _______ _______ _____ _____    ______ ____
ROOT
ATOM      1  N   UNL     1       2.326  10.709  18.017  0.00  0.00    +0.000 NA
ATOM      2  H   UNL     1       2.544  11.153  17.127  0.00  0.00    +0.000 HD
ENDROOT
BRANCH   1   3
ATOM      3  C   UNL     1       1.617  11.658  18.873  0.00  0.00    +0.000 C 
BRANCH   3   4
ATOM      4  C   UNL     1       1.755  13.065  18.308  0.00  0.00    +0.000 C 
BRANCH   4   5
ATOM      5  C   UNL     1       2.857  13.801  19.046  0.00  0.00    +0.000 C 
BRANCH   5   6
ATOM      6  O   UNL     1       2.294  14.564  20.105  0.00  0.00    +0.000 OA
BRANCH   6   7
ATOM      7  C   UNL     1       1.237  15.385  19.624  0.00  0.00    +0.000 C 
BRANCH   7   8
ATOM      8  C   UNL     1       0.007  15.177  20.483  0.00  0.00    +0.000 C 
BRANCH   8   9
ATOM      9  C   UNL     1       0.411  14.796  21.909  0.00  0.00    +0.000 C 
BRANCH   9  10
ATOM     10  C   UNL     1      -0.361  13.580  22.374  0.00  0.00    +0.000 C 
BRANCH  10  11
ATOM     11  O   UNL     1      -0.665  12.756  21.256  0.00  0.00    +0.000 OA
BRANCH  11  12
ATOM     12  C   UNL     1      -1.571  11.728  21.635  0.00  0.00    +0.000 C 
BRANCH  12  13
ATOM     13  C   UNL     1      -1.257  11.271  23.048  0.00  0.00    +0.000 C 
BRANCH  13  14
ATOM     14  C   UNL     1      -0.663   9.866  23.027  0.00  0.00    +0.000 C 
BRANCH  14  15
ATOM     15  N   UNL     1       0.791   9.944  23.091  0.00  0.00    +0.000 NA
ATOM     16  H   UNL     1       1.199   9.374  22.354  0.00  0.00    +0.000 HD
ATOM     17  H   UNL     1       1.110   9.570  23.983  0.00  0.00    +0.000 HD
ENDBRANCH  14  15
ENDBRANCH  13  14
ENDBRANCH  12  13
ENDBRANCH  11  12
ENDBRANCH  10  11
ENDBRANCH   9  10
ENDBRANCH   8   9
ENDBRANCH   7   8
ENDBRANCH   6   7
ENDBRANCH   5   6
ENDBRANCH   4   5
ENDBRANCH   3   4
ENDBRANCH   1   3
BRANCH   1  18
ATOM     18  C   UNL     1       1.453   9.573  17.777  0.00  0.00    +0.000 C 
BRANCH  18  21
ATOM     19  C   UNL     1       2.709   7.561  18.556  0.00  0.00    +0.000 C 
ATOM     20  C   UNL     1       3.566   7.617  17.308  0.00  0.00    +0.000 C 
ATOM     21  C   UNL     1       1.748   8.486  18.743  0.00  0.00    +0.000 C 
BRANCH  19  22
ATOM     22  C   UNL     1       2.957   6.456  19.568  0.00  0.00    +0.000 C 
BRANCH  22  23
ATOM     23  C   UNL     1       1.722   6.174  20.432  0.00  0.00    +0.000 C 
BRANCH  23  26
ATOM     24  C   UNL     1       1.480   3.707  20.736  0.00  0.00    +0.000 C 
ATOM     25  C   UNL     1       1.614   2.504  21.624  0.00  0.00    +0.000 C 
ATOM     26  C   UNL     1       1.795   4.915  21.218  0.00  0.00    +0.000 C 
BRANCH  24  27
ATOM     27  C   UNL     1       0.989   3.582  19.306  0.00  0.00    +0.000 C 
BRANCH  27  28
ATOM     28  C   UNL     1       1.779   2.585  18.489  0.00  0.00    +0.000 C 
BRANCH  28  32
ATOM     29  C   UNL     1       4.615   4.178  16.431  0.00  0.00    +0.000 C 
ATOM     30  C   UNL     1       3.844   3.542  17.549  0.00  0.00    +0.000 C 
ATOM     31  C   UNL     1       4.562   3.284  18.854  0.00  0.00    +0.000 C 
ATOM     32  C   UNL     1       2.575   3.223  17.383  0.00  0.00    +0.000 C 
ENDBRANCH  28  32
ENDBRANCH  27  28
ENDBRANCH  24  27
ENDBRANCH  23  26
ENDBRANCH  22  23
ENDBRANCH  19  22
ENDBRANCH  18  21
ENDBRANCH   1  18
TORSDOF 21
ENDMDL
MODEL 5
REMARK VINA RESULT:      -5.3      2.646      3.584
REMARK  Name = 
REMARK  25 active torsions:
REMARK  status: ('A' for Active; 'I' for Inactive)
REMARK    1  A    between atoms: C_1  and  C_2
REMARK    2  A    between atoms: C_2  and  C_3
REMARK    3  A    between atoms: C_4  and  C_5
REMARK    4  A    between atoms: C_5  and  C_6
REMARK    5  A    between atoms: C_6  and  C_7
REMARK    6  A    between atoms: C_7  and  C_8
REMARK    7  A    between atoms: C_9  and  C_10
REMARK    8  A    between atoms: C_10  and  C_11
REMARK    9  A    between atoms: C_11  and  C_12
REMARK   10  A    between atoms: C_12  and  C_13
REMARK   11  A    between atoms: C_14  and  C_15
REMARK   12  A    between atoms: C_15  and  N_16
REMARK   13  A    between atoms: N_16  and  C_17
REMARK   14  A    between atoms: C_17  and  C_18
REMARK   15  A    between atoms: C_18  and  C_19
REMARK   16  A    between atoms: C_19  and  O_20
REMARK   17  A    between atoms: O_20  and  C_21
REMARK   18  A    between atoms: C_21  and  C_22
REMARK   19  A    between atoms: C_22  and  C_23
REMARK   20  A    between atoms: C_23  and  C_24
REMARK   21  A    between atoms: C_24  and  O_25
REMARK   22  A    between atoms: O_25  and  C_26
REMARK   23  A    between atoms: C_26  and  C_27
REMARK   24  A    between atoms: C_27  and  C_28
REMARK   25  A    between atoms: C_28  and  N_29
REMARK                            x       y       z     vdW  Elec       q    Type
REMARK                         _______ _______ _______ _____ _____    ______ ____
ROOT
ATOM      1  N   UNL     1       0.550   3.418  20.428  0.00  0.00    +0.000 NA
ATOM      2  H   UNL     1      -0.073   4.220  20.349  0.00  0.00    +0.000 HD
ENDROOT
BRANCH   1   3
ATOM      3  C   UNL     1       0.915   2.951  19.092  0.00  0.00    +0.000 C 
BRANCH   3   4
ATOM      4  C   UNL     1       1.834   1.743  19.201  0.00  0.00    +0.000 C 
BRANCH   4   5
ATOM      5  C   UNL     1       3.008   1.913  18.256  0.00  0.00    +0.000 C 
BRANCH   5   6
ATOM      6  O   UNL     1       2.678   2.865  17.253  0.00  0.00    +0.000 OA
BRANCH   6   7
ATOM      7  C   UNL     1       3.627   3.924  17.236  0.00  0.00    +0.000 C 
BRANCH   7   8
ATOM      8  C   UNL     1       4.652   3.664  16.151  0.00  0.00    +0.000 C 
BRANCH   8   9
ATOM      9  C   UNL     1       5.573   4.874  15.987  0.00  0.00    +0.000 C 
BRANCH   9  10
ATOM     10  C   UNL     1       7.009   4.430  15.807  0.00  0.00    +0.000 C 
BRANCH  10  11
ATOM     11  O   UNL     1       7.773   4.826  16.940  0.00  0.00    +0.000 OA
BRANCH  11  12
ATOM     12  C   UNL     1       6.926   5.401  17.926  0.00  0.00    +0.000 C 
BRANCH  12  13
ATOM     13  C   UNL     1       7.761   6.200  18.909  0.00  0.00    +0.000 C 
BRANCH  13  14
ATOM     14  C   UNL     1       8.233   7.500  18.265  0.00  0.00    +0.000 C 
BRANCH  14  15
ATOM     15  N   UNL     1       7.373   7.831  17.137  0.00  0.00    +0.000 NA
ATOM     16  H   UNL     1       7.326   8.841  17.025  0.00  0.00    +0.000 HD
ATOM     17  H   UNL     1       6.428   7.497  17.322  0.00  0.00    +0.000 HD
ENDBRANCH  14  15
ENDBRANCH  13  14
ENDBRANCH  12  13
ENDBRANCH  11  12
ENDBRANCH  10  11
ENDBRANCH   9  10
ENDBRANCH   8   9
ENDBRANCH   7   8
ENDBRANCH   6   7
ENDBRANCH   5   6
ENDBRANCH   4   5
ENDBRANCH   3   4
ENDBRANCH   1   3
BRANCH   1  18
ATOM     18  C   UNL     1       1.763   3.829  21.114  0.00  0.00    +0.000 C 
BRANCH  18  21
ATOM     19  C   UNL     1       2.254   6.084  20.159  0.00  0.00    +0.000 C 
ATOM     20  C   UNL     1       1.097   6.664  20.947  0.00  0.00    +0.000 C 
ATOM     21  C   UNL     1       2.536   4.771  20.268  0.00  0.00    +0.000 C 
BRANCH  19  22
ATOM     22  C   UNL     1       3.066   7.001  19.263  0.00  0.00    +0.000 C 
BRANCH  22  23
ATOM     23  C   UNL     1       2.194   7.720  18.227  0.00  0.00    +0.000 C 
BRANCH  23  26
ATOM     24  C   UNL     1       1.782  10.183  18.190  0.00  0.00    +0.000 C 
ATOM     25  C   UNL     1       2.294  11.566  17.909  0.00  0.00    +0.000 C 
ATOM     26  C   UNL     1       2.580   9.132  17.970  0.00  0.00    +0.000 C 
BRANCH  24  27
ATOM     27  C   UNL     1       0.376   9.954  18.710  0.00  0.00    +0.000 C 
BRANCH  27  28
ATOM     28  C   UNL     1      -0.601  11.024  18.279  0.00  0.00    +0.000 C 
BRANCH  28  32
ATOM     29  C   UNL     1      -4.306  10.112  17.772  0.00  0.00    +0.000 C 
ATOM     30  C   UNL     1      -2.878  10.488  17.510  0.00  0.00    +0.000 C 
ATOM     31  C   UNL     1      -2.442  10.679  16.075  0.00  0.00    +0.000 C 
ATOM     32  C   UNL     1      -2.038  10.645  18.514  0.00  0.00    +0.000 C 
ENDBRANCH  28  32
ENDBRANCH  27  28
ENDBRANCH  24  27
ENDBRANCH  23  26
ENDBRANCH  22  23
ENDBRANCH  19  22
ENDBRANCH  18  21
ENDBRANCH   1  18
TORSDOF 21
ENDMDL
MODEL 6
REMARK VINA RESULT:      -5.2      4.522     10.995
REMARK  Name = 
REMARK  25 active torsions:
REMARK  status: ('A' for Active; 'I' for Inactive)
REMARK    1  A    between atoms: C_1  and  C_2
REMARK    2  A    between atoms: C_2  and  C_3
REMARK    3  A    between atoms: C_4  and  C_5
REMARK    4  A    between atoms: C_5  and  C_6
REMARK    5  A    between atoms: C_6  and  C_7
REMARK    6  A    between atoms: C_7  and  C_8
REMARK    7  A    between atoms: C_9  and  C_10
REMARK    8  A    between atoms: C_10  and  C_11
REMARK    9  A    between atoms: C_11  and  C_12
REMARK   10  A    between atoms: C_12  and  C_13
REMARK   11  A    between atoms: C_14  and  C_15
REMARK   12  A    between atoms: C_15  and  N_16
REMARK   13  A    between atoms: N_16  and  C_17
REMARK   14  A    between atoms: C_17  and  C_18
REMARK   15  A    between atoms: C_18  and  C_19
REMARK   16  A    between atoms: C_19  and  O_20
REMARK   17  A    between atoms: O_20  and  C_21
REMARK   18  A    between atoms: C_21  and  C_22
REMARK   19  A    between atoms: C_22  and  C_23
REMARK   20  A    between atoms: C_23  and  C_24
REMARK   21  A    between atoms: C_24  and  O_25
REMARK   22  A    between atoms: O_25  and  C_26
REMARK   23  A    between atoms: C_26  and  C_27
REMARK   24  A    between atoms: C_27  and  C_28
REMARK   25  A    between atoms: C_28  and  N_29
REMARK                            x       y       z     vdW  Elec       q    Type
REMARK                         _______ _______ _______ _____ _____    ______ ____
ROOT
ATOM      1  N   UNL     1       0.639   9.081  22.242  0.00  0.00    +0.000 NA
ATOM      2  H   UNL     1       1.575   9.272  22.595  0.00  0.00    +0.000 HD
ENDROOT
BRANCH   1   3
ATOM      3  C   UNL     1      -0.313   9.998  22.866  0.00  0.00    +0.000 C 
BRANCH   3   4
ATOM      4  C   UNL     1      -0.826  10.990  21.831  0.00  0.00    +0.000 C 
BRANCH   4   5
ATOM      5  C   UNL     1      -0.715  12.399  22.382  0.00  0.00    +0.000 C 
BRANCH   5   6
ATOM      6  O   UNL     1      -1.436  12.492  23.604  0.00  0.00    +0.000 OA
BRANCH   6   7
ATOM      7  C   UNL     1      -2.808  12.180  23.400  0.00  0.00    +0.000 C 
BRANCH   7   8
ATOM      8  C   UNL     1      -3.618  13.460  23.384  0.00  0.00    +0.000 C 
BRANCH   8   9
ATOM      9  C   UNL     1      -5.098  13.158  23.631  0.00  0.00    +0.000 C 
BRANCH   9  10
ATOM     10  C   UNL     1      -5.872  13.189  22.331  0.00  0.00    +0.000 C 
BRANCH  10  11
ATOM     11  O   UNL     1      -6.677  12.020  22.231  0.00  0.00    +0.000 OA
BRANCH  11  12
ATOM     12  C   UNL     1      -7.098  11.829  20.887  0.00  0.00    +0.000 C 
BRANCH  12  13
ATOM     13  C   UNL     1      -7.748  10.465  20.748  0.00  0.00    +0.000 C 
BRANCH  13  14
ATOM     14  C   UNL     1      -7.088   9.680  19.618  0.00  0.00    +0.000 C 
BRANCH  14  15
ATOM     15  N   UNL     1      -7.359   8.258  19.782  0.00  0.00    +0.000 NA
ATOM     16  H   UNL     1      -7.261   7.783  18.887  0.00  0.00    +0.000 HD
ATOM     17  H   UNL     1      -8.321   8.131  20.094  0.00  0.00    +0.000 HD
ENDBRANCH  14  15
ENDBRANCH  13  14
ENDBRANCH  12  13
ENDBRANCH  11  12
ENDBRANCH  10  11
ENDBRANCH   9  10
ENDBRANCH   8   9
ENDBRANCH   7   8
ENDBRANCH   6   7
ENDBRANCH   5   6
ENDBRANCH   4   5
ENDBRANCH   3   4
ENDBRANCH   1   3
BRANCH   1  18
ATOM     18  C   UNL     1       0.619   9.308  20.808  0.00  0.00    +0.000 C 
BRANCH  18  21
ATOM     19  C   UNL     1       1.924   8.511  18.834  0.00  0.00    +0.000 C 
ATOM     20  C   UNL     1       1.334   9.629  17.999  0.00  0.00    +0.000 C 
ATOM     21  C   UNL     1       1.576   8.399  20.131  0.00  0.00    +0.000 C 
BRANCH  19  22
ATOM     22  C   UNL     1       2.894   7.542  18.184  0.00  0.00    +0.000 C 
BRANCH  22  23
ATOM     23  C   UNL     1       2.990   6.217  18.950  0.00  0.00    +0.000 C 
BRANCH  23  26
ATOM     24  C   UNL     1       3.306   3.918  18.025  0.00  0.00    +0.000 C 
ATOM     25  C   UNL     1       2.761   2.768  17.228  0.00  0.00    +0.000 C 
ATOM     26  C   UNL     1       2.567   5.024  18.170  0.00  0.00    +0.000 C 
BRANCH  24  27
ATOM     27  C   UNL     1       4.681   3.853  18.663  0.00  0.00    +0.000 C 
BRANCH  27  28
ATOM     28  C   UNL     1       5.673   4.809  18.039  0.00  0.00    +0.000 C 
BRANCH  28  32
ATOM     29  C   UNL     1       6.607   4.457  14.322  0.00  0.00    +0.000 C 
ATOM     30  C   UNL     1       6.037   4.972  15.610  0.00  0.00    +0.000 C 
ATOM     31  C   UNL     1       5.238   6.255  15.573  0.00  0.00    +0.000 C 
ATOM     32  C   UNL     1       6.235   4.314  16.734  0.00  0.00    +0.000 C 
ENDBRANCH  28  32
ENDBRANCH  27  28
ENDBRANCH  24  27
ENDBRANCH  23  26
ENDBRANCH  22  23
ENDBRANCH  19  22
ENDBRANCH  18  21
ENDBRANCH   1  18
TORSDOF 21
ENDMDL
MODEL 7
REMARK VINA RESULT:      -5.2      1.695      2.689
REMARK  Name = 
REMARK  25 active torsions:
REMARK  status: ('A' for Active; 'I' for Inactive)
REMARK    1  A    between atoms: C_1  and  C_2
REMARK    2  A    between atoms: C_2  and  C_3
REMARK    3  A    between atoms: C_4  and  C_5
REMARK    4  A    between atoms: C_5  and  C_6
REMARK    5  A    between atoms: C_6  and  C_7
REMARK    6  A    between atoms: C_7  and  C_8
REMARK    7  A    between atoms: C_9  and  C_10
REMARK    8  A    between atoms: C_10  and  C_11
REMARK    9  A    between atoms: C_11  and  C_12
REMARK   10  A    between atoms: C_12  and  C_13
REMARK   11  A    between atoms: C_14  and  C_15
REMARK   12  A    between atoms: C_15  and  N_16
REMARK   13  A    between atoms: N_16  and  C_17
REMARK   14  A    between atoms: C_17  and  C_18
REMARK   15  A    between atoms: C_18  and  C_19
REMARK   16  A    between atoms: C_19  and  O_20
REMARK   17  A    between atoms: O_20  and  C_21
REMARK   18  A    between atoms: C_21  and  C_22
REMARK   19  A    between atoms: C_22  and  C_23
REMARK   20  A    between atoms: C_23  and  C_24
REMARK   21  A    between atoms: C_24  and  O_25
REMARK   22  A    between atoms: O_25  and  C_26
REMARK   23  A    between atoms: C_26  and  C_27
REMARK   24  A    between atoms: C_27  and  C_28
REMARK   25  A    between atoms: C_28  and  N_29
REMARK                            x       y       z     vdW  Elec       q    Type
REMARK                         _______ _______ _______ _____ _____    ______ ____
ROOT
ATOM      1  N   UNL     1       2.627   5.367  21.092  0.00  0.00    +0.000 NA
ATOM      2  H   UNL     1       2.598   5.942  21.933  0.00  0.00    +0.000 HD
ENDROOT
BRANCH   1   3
ATOM      3  C   UNL     1       2.131   4.027  21.402  0.00  0.00    +0.000 C 
BRANCH   3   4
ATOM      4  C   UNL     1       0.947   3.695  20.505  0.00  0.00    +0.000 C 
BRANCH   4   5
ATOM      5  C   UNL     1       1.293   2.506  19.629  0.00  0.00    +0.000 C 
BRANCH   5   6
ATOM      6  O   UNL     1       2.706   2.350  19.574  0.00  0.00    +0.000 OA
BRANCH   6   7
ATOM      7  C   UNL     1       3.181   2.566  18.252  0.00  0.00    +0.000 C 
BRANCH   7   8
ATOM      8  C   UNL     1       4.259   3.630  18.272  0.00  0.00    +0.000 C 
BRANCH   8   9
ATOM      9  C   UNL     1       3.949   4.723  17.246  0.00  0.00    +0.000 C 
BRANCH   9  10
ATOM     10  C   UNL     1       5.053   4.814  16.215  0.00  0.00    +0.000 C 
BRANCH  10  11
ATOM     11  O   UNL     1       6.272   5.168  16.857  0.00  0.00    +0.000 OA
BRANCH  11  12
ATOM     12  C   UNL     1       6.274   6.554  17.173  0.00  0.00    +0.000 C 
BRANCH  12  13
ATOM     13  C   UNL     1       7.519   6.890  17.975  0.00  0.00    +0.000 C 
BRANCH  13  14
ATOM     14  C   UNL     1       7.941   5.692  18.819  0.00  0.00    +0.000 C 
BRANCH  14  15
ATOM     15  N   UNL     1       6.911   5.398  19.807  0.00  0.00    +0.000 NA
ATOM     16  H   UNL     1       7.291   5.508  20.744  0.00  0.00    +0.000 HD
ATOM     17  H   UNL     1       6.613   4.428  19.707  0.00  0.00    +0.000 HD
ENDBRANCH  14  15
ENDBRANCH  13  14
ENDBRANCH  12  13
ENDBRANCH  11  12
ENDBRANCH  10  11
ENDBRANCH   9  10
ENDBRANCH   8   9
ENDBRANCH   7   8
ENDBRANCH   6   7
ENDBRANCH   5   6
ENDBRANCH   4   5
ENDBRANCH   3   4
ENDBRANCH   1   3
BRANCH   1  18
ATOM     18  C   UNL     1       1.757   5.954  20.089  0.00  0.00    +0.000 C 
BRANCH  18  21
ATOM     19  C   UNL     1       1.136   8.319  20.595  0.00  0.00    +0.000 C 
ATOM     20  C   UNL     1      -0.074   7.831  21.365  0.00  0.00    +0.000 C 
ATOM     21  C   UNL     1       1.964   7.421  20.025  0.00  0.00    +0.000 C 
BRANCH  19  22
ATOM     22  C   UNL     1       1.384   9.813  20.484  0.00  0.00    +0.000 C 
BRANCH  22  23
ATOM     23  C   UNL     1       1.343  10.300  19.031  0.00  0.00    +0.000 C 
BRANCH  23  26
ATOM     24  C   UNL     1      -1.090  10.728  18.659  0.00  0.00    +0.000 C 
ATOM     25  C   UNL     1      -2.340  10.438  17.880  0.00  0.00    +0.000 C 
ATOM     26  C   UNL     1       0.041  10.086  18.346  0.00  0.00    +0.000 C 
BRANCH  24  27
ATOM     27  C   UNL     1      -1.085  11.728  19.800  0.00  0.00    +0.000 C 
BRANCH  27  28
ATOM     28  C   UNL     1      -0.969  13.161  19.336  0.00  0.00    +0.000 C 
BRANCH  28  32
ATOM     29  C   UNL     1       2.109  15.470  19.210  0.00  0.00    +0.000 C 
ATOM     30  C   UNL     1       0.705  14.952  19.104  0.00  0.00    +0.000 C 
ATOM     31  C   UNL     1      -0.368  15.896  18.613  0.00  0.00    +0.000 C 
ATOM     32  C   UNL     1       0.431  13.706  19.434  0.00  0.00    +0.000 C 
ENDBRANCH  28  32
ENDBRANCH  27  28
ENDBRANCH  24  27
ENDBRANCH  23  26
ENDBRANCH  22  23
ENDBRANCH  19  22
ENDBRANCH  18  21
ENDBRANCH   1  18
TORSDOF 21
ENDMDL
MODEL 8
REMARK VINA RESULT:      -5.2      1.750      2.337
REMARK  Name = 
REMARK  25 active torsions:
REMARK  status: ('A' for Active; 'I' for Inactive)
REMARK    1  A    between atoms: C_1  and  C_2
REMARK    2  A    between atoms: C_2  and  C_3
REMARK    3  A    between atoms: C_4  and  C_5
REMARK    4  A    between atoms: C_5  and  C_6
REMARK    5  A    between atoms: C_6  and  C_7
REMARK    6  A    between atoms: C_7  and  C_8
REMARK    7  A    between atoms: C_9  and  C_10
REMARK    8  A    between atoms: C_10  and  C_11
REMARK    9  A    between atoms: C_11  and  C_12
REMARK   10  A    between atoms: C_12  and  C_13
REMARK   11  A    between atoms: C_14  and  C_15
REMARK   12  A    between atoms: C_15  and  N_16
REMARK   13  A    between atoms: N_16  and  C_17
REMARK   14  A    between atoms: C_17  and  C_18
REMARK   15  A    between atoms: C_18  and  C_19
REMARK   16  A    between atoms: C_19  and  O_20
REMARK   17  A    between atoms: O_20  and  C_21
REMARK   18  A    between atoms: C_21  and  C_22
REMARK   19  A    between atoms: C_22  and  C_23
REMARK   20  A    between atoms: C_23  and  C_24
REMARK   21  A    between atoms: C_24  and  O_25
REMARK   22  A    between atoms: O_25  and  C_26
REMARK   23  A    between atoms: C_26  and  C_27
REMARK   24  A    between atoms: C_27  and  C_28
REMARK   25  A    between atoms: C_28  and  N_29
REMARK                            x       y       z     vdW  Elec       q    Type
REMARK                         _______ _______ _______ _____ _____    ______ ____
ROOT
ATOM      1  N   UNL     1       1.957   6.336  20.908  0.00  0.00    +0.000 NA
ATOM      2  H   UNL     1       1.104   6.306  21.466  0.00  0.00    +0.000 HD
ENDROOT
BRANCH   1   3
ATOM      3  C   UNL     1       1.943   5.241  19.940  0.00  0.00    +0.000 C 
BRANCH   3   4
ATOM      4  C   UNL     1       1.065   4.109  20.454  0.00  0.00    +0.000 C 
BRANCH   4   5
ATOM      5  C   UNL     1       1.709   2.777  20.120  0.00  0.00    +0.000 C 
BRANCH   5   6
ATOM      6  O   UNL     1       3.054   2.768  20.583  0.00  0.00    +0.000 OA
BRANCH   6   7
ATOM      7  C   UNL     1       3.899   2.102  19.654  0.00  0.00    +0.000 C 
BRANCH   7   8
ATOM      8  C   UNL     1       3.403   2.363  18.247  0.00  0.00    +0.000 C 
BRANCH   8   9
ATOM      9  C   UNL     1       4.352   3.315  17.515  0.00  0.00    +0.000 C 
BRANCH   9  10
ATOM     10  C   UNL     1       5.192   4.093  18.505  0.00  0.00    +0.000 C 
BRANCH  10  11
ATOM     11  O   UNL     1       5.465   5.387  17.981  0.00  0.00    +0.000 OA
BRANCH  11  12
ATOM     12  C   UNL     1       4.466   5.755  17.039  0.00  0.00    +0.000 C 
BRANCH  12  13
ATOM     13  C   UNL     1       5.116   6.438  15.850  0.00  0.00    +0.000 C 
BRANCH  13  14
ATOM     14  C   UNL     1       5.953   5.437  15.060  0.00  0.00    +0.000 C 
BRANCH  14  15
ATOM     15  N   UNL     1       7.324   5.442  15.555  0.00  0.00    +0.000 NA
ATOM     16  H   UNL     1       7.667   4.487  15.626  0.00  0.00    +0.000 HD
ATOM     17  H   UNL     1       7.344   5.848  16.490  0.00  0.00    +0.000 HD
ENDBRANCH  14  15
ENDBRANCH  13  14
ENDBRANCH  12  13
ENDBRANCH  11  12
ENDBRANCH  10  11
ENDBRANCH   9  10
ENDBRANCH   8   9
ENDBRANCH   7   8
ENDBRANCH   6   7
ENDBRANCH   5   6
ENDBRANCH   4   5
ENDBRANCH   3   4
ENDBRANCH   1   3
BRANCH   1  18
ATOM     18  C   UNL     1       1.998   7.590  20.177  0.00  0.00    +0.000 C 
BRANCH  18  21
ATOM     19  C   UNL     1       0.554   9.149  21.488  0.00  0.00    +0.000 C 
ATOM     20  C   UNL     1       1.650   9.286  22.525  0.00  0.00    +0.000 C 
ATOM     21  C   UNL     1       0.754   8.363  20.412  0.00  0.00    +0.000 C 
BRANCH  19  22
ATOM     22  C   UNL     1      -0.748   9.904  21.690  0.00  0.00    +0.000 C 
BRANCH  22  23
ATOM     23  C   UNL     1      -0.758  10.699  23.002  0.00  0.00    +0.000 C 
BRANCH  23  26
ATOM     24  C   UNL     1      -1.906  12.917  22.937  0.00  0.00    +0.000 C 
ATOM     25  C   UNL     1      -3.162  13.718  23.121  0.00  0.00    +0.000 C 
ATOM     26  C   UNL     1      -1.930  11.598  23.167  0.00  0.00    +0.000 C 
BRANCH  24  27
ATOM     27  C   UNL     1      -0.609  13.572  22.503  0.00  0.00    +0.000 C 
BRANCH  27  28
ATOM     28  C   UNL     1      -0.504  13.755  21.007  0.00  0.00    +0.000 C 
BRANCH  28  32
ATOM     29  C   UNL     1       1.702  11.605  18.699  0.00  0.00    +0.000 C 
ATOM     30  C   UNL     1       0.526  12.329  19.284  0.00  0.00    +0.000 C 
ATOM     31  C   UNL     1      -0.799  12.239  18.562  0.00  0.00    +0.000 C 
ATOM     32  C   UNL     1       0.660  13.021  20.398  0.00  0.00    +0.000 C 
ENDBRANCH  28  32
ENDBRANCH  27  28
ENDBRANCH  24  27
ENDBRANCH  23  26
ENDBRANCH  22  23
ENDBRANCH  19  22
ENDBRANCH  18  21
ENDBRANCH   1  18
TORSDOF 21
ENDMDL
MODEL 9
REMARK VINA RESULT:      -5.2      4.015     10.260
REMARK  Name = 
REMARK  25 active torsions:
REMARK  status: ('A' for Active; 'I' for Inactive)
REMARK    1  A    between atoms: C_1  and  C_2
REMARK    2  A    between atoms: C_2  and  C_3
REMARK    3  A    between atoms: C_4  and  C_5
REMARK    4  A    between atoms: C_5  and  C_6
REMARK    5  A    between atoms: C_6  and  C_7
REMARK    6  A    between atoms: C_7  and  C_8
REMARK    7  A    between atoms: C_9  and  C_10
REMARK    8  A    between atoms: C_10  and  C_11
REMARK    9  A    between atoms: C_11  and  C_12
REMARK   10  A    between atoms: C_12  and  C_13
REMARK   11  A    between atoms: C_14  and  C_15
REMARK   12  A    between atoms: C_15  and  N_16
REMARK   13  A    between atoms: N_16  and  C_17
REMARK   14  A    between atoms: C_17  and  C_18
REMARK   15  A    between atoms: C_18  and  C_19
REMARK   16  A    between atoms: C_19  and  O_20
REMARK   17  A    between atoms: O_20  and  C_21
REMARK   18  A    between atoms: C_21  and  C_22
REMARK   19  A    between atoms: C_22  and  C_23
REMARK   20  A    between atoms: C_23  and  C_24
REMARK   21  A    between atoms: C_24  and  O_25
REMARK   22  A    between atoms: O_25  and  C_26
REMARK   23  A    between atoms: C_26  and  C_27
REMARK   24  A    between atoms: C_27  and  C_28
REMARK   25  A    between atoms: C_28  and  N_29
REMARK                            x       y       z     vdW  Elec       q    Type
REMARK                         _______ _______ _______ _____ _____    ______ ____
ROOT
ATOM      1  N   UNL     1      -0.414  10.017  20.859  0.00  0.00    +0.000 NA
ATOM      2  H   UNL     1      -1.005   9.218  20.636  0.00  0.00    +0.000 HD
ENDROOT
BRANCH   1   3
ATOM      3  C   UNL     1       0.027   9.922  22.249  0.00  0.00    +0.000 C 
BRANCH   3   4
ATOM      4  C   UNL     1      -1.036  10.506  23.169  0.00  0.00    +0.000 C 
BRANCH   4   5
ATOM      5  C   UNL     1      -1.248  11.970  22.832  0.00  0.00    +0.000 C 
BRANCH   5   6
ATOM      6  O   UNL     1      -2.335  12.097  21.923  0.00  0.00    +0.000 OA
BRANCH   6   7
ATOM      7  C   UNL     1      -2.349  13.393  21.339  0.00  0.00    +0.000 C 
BRANCH   7   8
ATOM      8  C   UNL     1      -3.668  13.609  20.626  0.00  0.00    +0.000 C 
BRANCH   8   9
ATOM      9  C   UNL     1      -4.772  12.778  21.283  0.00  0.00    +0.000 C 
BRANCH   9  10
ATOM     10  C   UNL     1      -5.725  12.238  20.238  0.00  0.00    +0.000 C 
BRANCH  10  11
ATOM     11  O   UNL     1      -4.982  11.641  19.183  0.00  0.00    +0.000 OA
BRANCH  11  12
ATOM     12  C   UNL     1      -5.704  11.733  17.962  0.00  0.00    +0.000 C 
BRANCH  12  13
ATOM     13  C   UNL     1      -4.733  11.730  16.796  0.00  0.00    +0.000 C 
BRANCH  13  14
ATOM     14  C   UNL     1      -3.343  11.315  17.268  0.00  0.00    +0.000 C 
BRANCH  14  15
ATOM     15  N   UNL     1      -2.382  11.495  16.189  0.00  0.00    +0.000 NA
ATOM     16  H   UNL     1      -2.689  12.246  15.576  0.00  0.00    +0.000 HD
ATOM     17  H   UNL     1      -2.335  10.642  15.632  0.00  0.00    +0.000 HD
ENDBRANCH  14  15
ENDBRANCH  13  14
ENDBRANCH  12  13
ENDBRANCH  11  12
ENDBRANCH  10  11
ENDBRANCH   9  10
ENDBRANCH   8   9
ENDBRANCH   7   8
ENDBRANCH   6   7
ENDBRANCH   5   6
ENDBRANCH   4   5
ENDBRANCH   3   4
ENDBRANCH   1   3
BRANCH   1  18
ATOM     18  C   UNL     1       0.760   9.988  20.005  0.00  0.00    +0.000 C 
BRANCH  18  21
ATOM     19  C   UNL     1       2.049   8.049  19.102  0.00  0.00    +0.000 C 
ATOM     20  C   UNL     1       2.039   8.688  17.728  0.00  0.00    +0.000 C 
ATOM     21  C   UNL     1       1.455   8.683  20.132  0.00  0.00    +0.000 C 
BRANCH  19  22
ATOM     22  C   UNL     1       2.731   6.705  19.282  0.00  0.00    +0.000 C 
BRANCH  22  23
ATOM     23  C   UNL     1       2.700   5.863  18.000  0.00  0.00    +0.000 C 
BRANCH  23  26
ATOM     24  C   UNL     1       4.973   4.829  18.010  0.00  0.00    +0.000 C 
ATOM     25  C   UNL     1       6.281   4.599  17.310  0.00  0.00    +0.000 C 
ATOM     26  C   UNL     1       4.037   5.580  17.417  0.00  0.00    +0.000 C 
BRANCH  24  27
ATOM     27  C   UNL     1       4.695   4.234  19.377  0.00  0.00    +0.000 C 
BRANCH  27  28
ATOM     28  C   UNL     1       4.401   2.753  19.334  0.00  0.00    +0.000 C 
BRANCH  28  32
ATOM     29  C   UNL     1       0.622   2.170  18.887  0.00  0.00    +0.000 C 
ATOM     30  C   UNL     1       1.957   2.496  19.489  0.00  0.00    +0.000 C 
ATOM     31  C   UNL     1       2.004   2.896  20.946  0.00  0.00    +0.000 C 
ATOM     32  C   UNL     1       3.050   2.432  18.755  0.00  0.00    +0.000 C 
ENDBRANCH  28  32
ENDBRANCH  27  28
ENDBRANCH  24  27
ENDBRANCH  23  26
ENDBRANCH  22  23
ENDBRANCH  19  22
ENDBRANCH  18  21
ENDBRANCH   1  18
TORSDOF 21
ENDMDL
