MODEL 1
REMARK VINA RESULT:      -7.2      0.000      0.000
REMARK  Name = 
REMARK  1 active torsions:
REMARK  status: ('A' for Active; 'I' for Inactive)
REMARK    1  A    between atoms: N_1  and  C_2
REMARK                            x       y       z     vdW  Elec       q    Type
REMARK                         _______ _______ _______ _____ _____    ______ ____
ROOT
ATOM      1  C   UNL     1       6.595   6.163  16.665  0.00  0.00    +0.000 A 
ATOM      2  C   UNL     1       6.581   5.044  15.825  0.00  0.00    +0.000 A 
ATOM      3  C   UNL     1       5.572   4.079  15.926  0.00  0.00    +0.000 A 
ATOM      4  C   UNL     1       4.586   4.204  16.903  0.00  0.00    +0.000 A 
ATOM      5  O   UNL     1       3.638   3.214  16.958  0.00  0.00    +0.000 OA
ATOM      6  C   UNL     1       2.670   3.287  17.933  0.00  0.00    +0.000 A 
ATOM      7  N   UNL     1       1.788   2.259  17.919  0.00  0.00    +0.000 NA
ATOM      8  C   UNL     1       0.807   2.275  18.851  0.00  0.00    +0.000 A 
ATOM      9  C   UNL     1       0.658   3.273  19.801  0.00  0.00    +0.000 A 
ATOM     10  C   UNL     1       1.572   4.320  19.801  0.00  0.00    +0.000 A 
ATOM     11  C   UNL     1       2.593   4.323  18.851  0.00  0.00    +0.000 A 
ATOM     12  C   UNL     1       3.587   5.396  18.803  0.00  0.00    +0.000 A 
ATOM     13  O   UNL     1       3.551   6.335  19.588  0.00  0.00    +0.000 OA
ATOM     14  C   UNL     1       4.623   5.291  17.769  0.00  0.00    +0.000 A 
ATOM     15  C   UNL     1       5.631   6.256  17.669  0.00  0.00    +0.000 A 
ENDROOT
BRANCH   1  16
ATOM     16  N   UNL     1       7.685   7.039  16.656  0.00  0.00    +0.000 N 
ATOM     17  H   UNL     1       8.566   6.618  16.932  0.00  0.00    +0.000 HD
ATOM     18  H   UNL     1       7.769   7.590  15.807  0.00  0.00    +0.000 HD
ENDBRANCH   1  16
TORSDOF 1
ENDMDL
MODEL 2
REMARK VINA RESULT:      -7.1      1.513      2.450
REMARK  Name = 
REMARK  1 active torsions:
REMARK  status: ('A' for Active; 'I' for Inactive)
REMARK    1  A    between atoms: N_1  and  C_2
REMARK                            x       y       z     vdW  Elec       q    Type
REMARK                         _______ _______ _______ _____ _____    ______ ____
ROOT
ATOM      1  C   UNL     1       6.649   4.923  16.053  0.00  0.00    +0.000 A 
ATOM      2  C   UNL     1       7.169   5.456  17.238  0.00  0.00    +0.000 A 
ATOM      3  C   UNL     1       6.453   5.379  18.438  0.00  0.00    +0.000 A 
ATOM      4  C   UNL     1       5.185   4.802  18.456  0.00  0.00    +0.000 A 
ATOM      5  O   UNL     1       4.532   4.775  19.662  0.00  0.00    +0.000 OA
ATOM      6  C   UNL     1       3.263   4.244  19.709  0.00  0.00    +0.000 A 
ATOM      7  N   UNL     1       2.693   4.276  20.937  0.00  0.00    +0.000 NA
ATOM      8  C   UNL     1       1.445   3.764  21.051  0.00  0.00    +0.000 A 
ATOM      9  C   UNL     1       0.734   3.216  19.994  0.00  0.00    +0.000 A 
ATOM     10  C   UNL     1       1.334   3.193  18.741  0.00  0.00    +0.000 A 
ATOM     11  C   UNL     1       2.619   3.718  18.600  0.00  0.00    +0.000 A 
ATOM     12  C   UNL     1       3.302   3.726  17.306  0.00  0.00    +0.000 A 
ATOM     13  O   UNL     1       2.774   3.261  16.303  0.00  0.00    +0.000 OA
ATOM     14  C   UNL     1       4.646   4.313  17.271  0.00  0.00    +0.000 A 
ATOM     15  C   UNL     1       5.360   4.389  16.071  0.00  0.00    +0.000 A 
ENDROOT
BRANCH   1  16
ATOM     16  N   UNL     1       7.303   5.137  14.837  0.00  0.00    +0.000 N 
ATOM     17  H   UNL     1       6.973   4.555  14.073  0.00  0.00    +0.000 HD
ATOM     18  H   UNL     1       7.381   6.115  14.571  0.00  0.00    +0.000 HD
ENDBRANCH   1  16
TORSDOF 1
ENDMDL
MODEL 3
REMARK VINA RESULT:      -7.0      1.947      2.835
REMARK  Name = 
REMARK  1 active torsions:
REMARK  status: ('A' for Active; 'I' for Inactive)
REMARK    1  A    between atoms: N_1  and  C_2
REMARK                            x       y       z     vdW  Elec       q    Type
REMARK                         _______ _______ _______ _____ _____    ______ ____
ROOT
ATOM      1  C   UNL     1       5.851   4.270  14.988  0.00  0.00    +0.000 A 
ATOM      2  C   UNL     1       5.805   5.664  15.109  0.00  0.00    +0.000 A 
ATOM      3  C   UNL     1       5.094   6.273  16.149  0.00  0.00    +0.000 A 
ATOM      4  C   UNL     1       4.384   5.492  17.058  0.00  0.00    +0.000 A 
ATOM      5  O   UNL     1       3.695   6.155  18.042  0.00  0.00    +0.000 OA
ATOM      6  C   UNL     1       2.955   5.416  18.936  0.00  0.00    +0.000 A 
ATOM      7  N   UNL     1       2.297   6.157  19.859  0.00  0.00    +0.000 NA
ATOM      8  C   UNL     1       1.553   5.488  20.771  0.00  0.00    +0.000 A 
ATOM      9  C   UNL     1       1.434   4.107  20.810  0.00  0.00    +0.000 A 
ATOM     10  C   UNL     1       2.115   3.363  19.855  0.00  0.00    +0.000 A 
ATOM     11  C   UNL     1       2.885   4.032  18.903  0.00  0.00    +0.000 A 
ATOM     12  C   UNL     1       3.623   3.303  17.870  0.00  0.00    +0.000 A 
ATOM     13  O   UNL     1       3.598   2.081  17.811  0.00  0.00    +0.000 OA
ATOM     14  C   UNL     1       4.391   4.109  16.914  0.00  0.00    +0.000 A 
ATOM     15  C   UNL     1       5.101   3.498  15.875  0.00  0.00    +0.000 A 
ENDROOT
BRANCH   1  16
ATOM     16  N   UNL     1       6.438   3.678  13.866  0.00  0.00    +0.000 N 
ATOM     17  H   UNL     1       5.827   3.050  13.353  0.00  0.00    +0.000 HD
ATOM     18  H   UNL     1       6.922   4.330  13.255  0.00  0.00    +0.000 HD
ENDBRANCH   1  16
TORSDOF 1
ENDMDL
MODEL 4
REMARK VINA RESULT:      -7.0      1.973      5.180
REMARK  Name = 
REMARK  1 active torsions:
REMARK  status: ('A' for Active; 'I' for Inactive)
REMARK    1  A    between atoms: N_1  and  C_2
REMARK                            x       y       z     vdW  Elec       q    Type
REMARK                         _______ _______ _______ _____ _____    ______ ____
ROOT
ATOM      1  C   UNL     1       2.176   2.859  20.633  0.00  0.00    +0.000 A 
ATOM      2  C   UNL     1       1.361   2.614  19.522  0.00  0.00    +0.000 A 
ATOM      3  C   UNL     1       1.829   2.837  18.222  0.00  0.00    +0.000 A 
ATOM      4  C   UNL     1       3.109   3.349  18.022  0.00  0.00    +0.000 A 
ATOM      5  O   UNL     1       3.498   3.559  16.723  0.00  0.00    +0.000 OA
ATOM      6  C   UNL     1       4.743   4.097  16.490  0.00  0.00    +0.000 A 
ATOM      7  N   UNL     1       5.032   4.283  15.180  0.00  0.00    +0.000 NA
ATOM      8  C   UNL     1       6.245   4.805  14.884  0.00  0.00    +0.000 A 
ATOM      9  C   UNL     1       7.192   5.151  15.835  0.00  0.00    +0.000 A 
ATOM     10  C   UNL     1       6.878   4.954  17.175  0.00  0.00    +0.000 A 
ATOM     11  C   UNL     1       5.632   4.420  17.503  0.00  0.00    +0.000 A 
ATOM     12  C   UNL     1       5.243   4.192  18.896  0.00  0.00    +0.000 A 
ATOM     13  O   UNL     1       6.002   4.452  19.821  0.00  0.00    +0.000 OA
ATOM     14  C   UNL     1       3.905   3.636  19.125  0.00  0.00    +0.000 A 
ATOM     15  C   UNL     1       3.439   3.415  20.425  0.00  0.00    +0.000 A 
ENDROOT
BRANCH   1  16
ATOM     16  N   UNL     1       1.650   2.776  21.926  0.00  0.00    +0.000 N 
ATOM     17  H   UNL     1       0.711   3.150  22.024  0.00  0.00    +0.000 HD
ATOM     18  H   UNL     1       1.749   1.862  22.358  0.00  0.00    +0.000 HD
ENDBRANCH   1  16
TORSDOF 1
ENDMDL
MODEL 5
REMARK VINA RESULT:      -6.9      1.763      1.854
REMARK  Name = 
REMARK  1 active torsions:
REMARK  status: ('A' for Active; 'I' for Inactive)
REMARK    1  A    between atoms: N_1  and  C_2
REMARK                            x       y       z     vdW  Elec       q    Type
REMARK                         _______ _______ _______ _____ _____    ______ ____
ROOT
ATOM      1  C   UNL     1       6.884   6.803  17.478  0.00  0.00    +0.000 A 
ATOM      2  C   UNL     1       7.621   5.783  18.089  0.00  0.00    +0.000 A 
ATOM      3  C   UNL     1       6.981   4.732  18.757  0.00  0.00    +0.000 A 
ATOM      4  C   UNL     1       5.591   4.716  18.857  0.00  0.00    +0.000 A 
ATOM      5  O   UNL     1       5.031   3.666  19.541  0.00  0.00    +0.000 OA
ATOM      6  C   UNL     1       3.663   3.637  19.688  0.00  0.00    +0.000 A 
ATOM      7  N   UNL     1       3.202   2.574  20.390  0.00  0.00    +0.000 NA
ATOM      8  C   UNL     1       1.864   2.484  20.567  0.00  0.00    +0.000 A 
ATOM      9  C   UNL     1       0.954   3.406  20.074  0.00  0.00    +0.000 A 
ATOM     10  C   UNL     1       1.444   4.492  19.357  0.00  0.00    +0.000 A 
ATOM     11  C   UNL     1       2.821   4.605  19.165  0.00  0.00    +0.000 A 
ATOM     12  C   UNL     1       3.397   5.727  18.422  0.00  0.00    +0.000 A 
ATOM     13  O   UNL     1       2.690   6.599  17.933  0.00  0.00    +0.000 OA
ATOM     14  C   UNL     1       4.858   5.752  18.290  0.00  0.00    +0.000 A 
ATOM     15  C   UNL     1       5.496   6.803  17.622  0.00  0.00    +0.000 A 
ENDROOT
BRANCH   1  16
ATOM     16  N   UNL     1       7.533   7.920  16.945  0.00  0.00    +0.000 N 
ATOM     17  H   UNL     1       7.825   8.607  17.634  0.00  0.00    +0.000 HD
ATOM     18  H   UNL     1       8.271   7.698  16.284  0.00  0.00    +0.000 HD
ENDBRANCH   1  16
TORSDOF 1
ENDMDL
MODEL 6
REMARK VINA RESULT:      -6.9      1.785      5.436
REMARK  Name = 
REMARK  1 active torsions:
REMARK  status: ('A' for Active; 'I' for Inactive)
REMARK    1  A    between atoms: N_1  and  C_2
REMARK                            x       y       z     vdW  Elec       q    Type
REMARK                         _______ _______ _______ _____ _____    ______ ____
ROOT
ATOM      1  C   UNL     1       1.901   3.335  21.013  0.00  0.00    +0.000 A 
ATOM      2  C   UNL     1       1.833   4.727  21.146  0.00  0.00    +0.000 A 
ATOM      3  C   UNL     1       2.405   5.570  20.186  0.00  0.00    +0.000 A 
ATOM      4  C   UNL     1       3.090   5.026  19.101  0.00  0.00    +0.000 A 
ATOM      5  O   UNL     1       3.641   5.911  18.209  0.00  0.00    +0.000 OA
ATOM      6  C   UNL     1       4.354   5.408  17.144  0.00  0.00    +0.000 A 
ATOM      7  N   UNL     1       4.874   6.355  16.327  0.00  0.00    +0.000 NA
ATOM      8  C   UNL     1       5.583   5.925  15.258  0.00  0.00    +0.000 A 
ATOM      9  C   UNL     1       5.800   4.589  14.959  0.00  0.00    +0.000 A 
ATOM     10  C   UNL     1       5.261   3.631  15.809  0.00  0.00    +0.000 A 
ATOM     11  C   UNL     1       4.529   4.052  16.919  0.00  0.00    +0.000 A 
ATOM     12  C   UNL     1       3.939   3.091  17.853  0.00  0.00    +0.000 A 
ATOM     13  O   UNL     1       4.059   1.883  17.686  0.00  0.00    +0.000 OA
ATOM     14  C   UNL     1       3.198   3.644  18.991  0.00  0.00    +0.000 A 
ATOM     15  C   UNL     1       2.628   2.800  19.949  0.00  0.00    +0.000 A 
ENDROOT
BRANCH   1  16
ATOM     16  N   UNL     1       1.459   2.506  22.048  0.00  0.00    +0.000 N 
ATOM     17  H   UNL     1       0.837   1.760  21.754  0.00  0.00    +0.000 HD
ATOM     18  H   UNL     1       2.198   2.173  22.661  0.00  0.00    +0.000 HD
ENDBRANCH   1  16
TORSDOF 1
ENDMDL
MODEL 7
REMARK VINA RESULT:      -6.8      1.382      2.520
REMARK  Name = 
REMARK  1 active torsions:
REMARK  status: ('A' for Active; 'I' for Inactive)
REMARK    1  A    between atoms: N_1  and  C_2
REMARK                            x       y       z     vdW  Elec       q    Type
REMARK                         _______ _______ _______ _____ _____    ______ ____
ROOT
ATOM      1  C   UNL     1       6.704   5.230  16.003  0.00  0.00    +0.000 A 
ATOM      2  C   UNL     1       6.554   6.479  16.617  0.00  0.00    +0.000 A 
ATOM      3  C   UNL     1       5.594   6.680  17.615  0.00  0.00    +0.000 A 
ATOM      4  C   UNL     1       4.742   5.640  17.981  0.00  0.00    +0.000 A 
ATOM      5  O   UNL     1       3.813   5.911  18.953  0.00  0.00    +0.000 OA
ATOM      6  C   UNL     1       2.932   4.917  19.313  0.00  0.00    +0.000 A 
ATOM      7  N   UNL     1       2.043   5.281  20.267  0.00  0.00    +0.000 NA
ATOM      8  C   UNL     1       1.151   4.346  20.670  0.00  0.00    +0.000 A 
ATOM      9  C   UNL     1       1.104   3.055  20.167  0.00  0.00    +0.000 A 
ATOM     10  C   UNL     1       2.023   2.698  19.187  0.00  0.00    +0.000 A 
ATOM     11  C   UNL     1       2.949   3.648  18.756  0.00  0.00    +0.000 A 
ATOM     12  C   UNL     1       3.940   3.333  17.726  0.00  0.00    +0.000 A 
ATOM     13  O   UNL     1       3.999   2.222  17.215  0.00  0.00    +0.000 OA
ATOM     14  C   UNL     1       4.858   4.411  17.340  0.00  0.00    +0.000 A 
ATOM     15  C   UNL     1       5.817   4.208  16.343  0.00  0.00    +0.000 A 
ENDROOT
BRANCH   1  16
ATOM     16  N   UNL     1       7.561   5.080  14.908  0.00  0.00    +0.000 N 
ATOM     17  H   UNL     1       7.176   5.402  14.025  0.00  0.00    +0.000 HD
ATOM     18  H   UNL     1       8.504   5.423  15.067  0.00  0.00    +0.000 HD
ENDBRANCH   1  16
TORSDOF 1
ENDMDL
MODEL 8
REMARK VINA RESULT:      -6.8      1.927      5.418
REMARK  Name = 
REMARK  1 active torsions:
REMARK  status: ('A' for Active; 'I' for Inactive)
REMARK    1  A    between atoms: N_1  and  C_2
REMARK                            x       y       z     vdW  Elec       q    Type
REMARK                         _______ _______ _______ _____ _____    ______ ____
ROOT
ATOM      1  C   UNL     1       1.839   2.907  18.950  0.00  0.00    +0.000 A 
ATOM      2  C   UNL     1       2.709   2.184  19.774  0.00  0.00    +0.000 A 
ATOM      3  C   UNL     1       4.026   2.612  19.982  0.00  0.00    +0.000 A 
ATOM      4  C   UNL     1       4.498   3.750  19.332  0.00  0.00    +0.000 A 
ATOM      5  O   UNL     1       5.803   4.103  19.568  0.00  0.00    +0.000 OA
ATOM      6  C   UNL     1       6.313   5.202  18.915  0.00  0.00    +0.000 A 
ATOM      7  N   UNL     1       7.612   5.463  19.197  0.00  0.00    +0.000 NA
ATOM      8  C   UNL     1       8.172   6.535  18.590  0.00  0.00    +0.000 A 
ATOM      9  C   UNL     1       7.496   7.367  17.710  0.00  0.00    +0.000 A 
ATOM     10  C   UNL     1       6.164   7.083  17.431  0.00  0.00    +0.000 A 
ATOM     11  C   UNL     1       5.568   5.982  18.044  0.00  0.00    +0.000 A 
ATOM     12  C   UNL     1       4.170   5.630  17.788  0.00  0.00    +0.000 A 
ATOM     13  O   UNL     1       3.473   6.298  17.035  0.00  0.00    +0.000 OA
ATOM     14  C   UNL     1       3.649   4.445  18.477  0.00  0.00    +0.000 A 
ATOM     15  C   UNL     1       2.334   4.019  18.268  0.00  0.00    +0.000 A 
ENDROOT
BRANCH   1  16
ATOM     16  N   UNL     1       0.579   2.392  18.632  0.00  0.00    +0.000 N 
ATOM     17  H   UNL     1       0.251   1.663  19.257  0.00  0.00    +0.000 HD
ATOM     18  H   UNL     1      -0.129   3.101  18.458  0.00  0.00    +0.000 HD
ENDBRANCH   1  16
TORSDOF 1
ENDMDL
MODEL 9
REMARK VINA RESULT:      -6.6      3.094      5.076
REMARK  Name = 
REMARK  1 active torsions:
REMARK  status: ('A' for Active; 'I' for Inactive)
REMARK    1  A    between atoms: N_1  and  C_2
REMARK                            x       y       z     vdW  Elec       q    Type
REMARK                         _______ _______ _______ _____ _____    ______ ____
ROOT
ATOM      1  C   UNL     1       3.929   2.790  19.838  0.00  0.00    +0.000 A 
ATOM      2  C   UNL     1       3.143   2.946  20.985  0.00  0.00    +0.000 A 
ATOM      3  C   UNL     1       2.413   4.120  21.203  0.00  0.00    +0.000 A 
ATOM      4  C   UNL     1       2.495   5.171  20.292  0.00  0.00    +0.000 A 
ATOM      5  O   UNL     1       1.767   6.298  20.576  0.00  0.00    +0.000 OA
ATOM      6  C   UNL     1       1.853   7.368  19.715  0.00  0.00    +0.000 A 
ATOM      7  N   UNL     1       1.113   8.440  20.086  0.00  0.00    +0.000 NA
ATOM      8  C   UNL     1       1.150   9.526  19.278  0.00  0.00    +0.000 A 
ATOM      9  C   UNL     1       1.892   9.594  18.109  0.00  0.00    +0.000 A 
ATOM     10  C   UNL     1       2.646   8.485  17.744  0.00  0.00    +0.000 A 
ATOM     11  C   UNL     1       2.624   7.357  18.564  0.00  0.00    +0.000 A 
ATOM     12  C   UNL     1       3.400   6.160  18.235  0.00  0.00    +0.000 A 
ATOM     13  O   UNL     1       4.086   6.103  17.222  0.00  0.00    +0.000 OA
ATOM     14  C   UNL     1       3.311   5.036  19.174  0.00  0.00    +0.000 A 
ATOM     15  C   UNL     1       4.042   3.864  18.954  0.00  0.00    +0.000 A 
ENDROOT
BRANCH   1  16
ATOM     16  N   UNL     1       4.768   1.680  19.703  0.00  0.00    +0.000 N 
ATOM     17  H   UNL     1       5.221   1.387  20.563  0.00  0.00    +0.000 HD
ATOM     18  H   UNL     1       4.352   0.902  19.199  0.00  0.00    +0.000 HD
ENDBRANCH   1  16
TORSDOF 1
ENDMDL
