MODEL 1
REMARK VINA RESULT:      -8.7      0.000      0.000
REMARK  Name = 
REMARK  9 active torsions:
REMARK  status: ('A' for Active; 'I' for Inactive)
REMARK    1  A    between atoms: C_1  and  O_2
REMARK    2  A    between atoms: O_2  and  C_3
REMARK    3  A    between atoms: C_6  and  C_7
REMARK    4  A    between atoms: C_7  and  N_8
REMARK    5  A    between atoms: C_13  and  C_14
REMARK    6  A    between atoms: C_16  and  C_17
REMARK    7  A    between atoms: C_17  and  C_18
REMARK    8  A    between atoms: C_22  and  C_23
REMARK    9  A    between atoms: C_27  and  C_28
REMARK                            x       y       z     vdW  Elec       q    Type
REMARK                         _______ _______ _______ _____ _____    ______ ____
ROOT
ATOM      1  C   UNL     1      -1.082  11.070  19.337  0.00  0.00    +0.000 A 
ATOM      2  N   UNL     1      -2.129  10.510  18.633  0.00  0.00    +0.000 N 
ATOM      3  C   UNL     1      -2.497  11.361  17.623  0.00  0.00    +0.000 A 
ATOM      4  N   UNL     1      -1.707  12.413  17.598  0.00  0.00    +0.000 NA
ATOM      5  C   UNL     1      -0.811  12.239  18.635  0.00  0.00    +0.000 A 
ATOM      6  H   UNL     1      -2.594   9.642  18.853  0.00  0.00    +0.000 HD
ENDROOT
BRANCH   1  12
ATOM      7  N   UNL     1       1.574   7.657  21.276  0.00  0.00    +0.000 N 
ATOM      8  C   UNL     1       0.828   8.811  21.395  0.00  0.00    +0.000 A 
ATOM      9  N   UNL     1       0.610   9.212  22.653  0.00  0.00    +0.000 NA
ATOM     10  C   UNL     1      -0.210  10.261  22.831  0.00  0.00    +0.000 A 
ATOM     11  C   UNL     1      -0.819  10.930  21.801  0.00  0.00    +0.000 A 
ATOM     12  C   UNL     1      -0.511  10.472  20.542  0.00  0.00    +0.000 A 
ATOM     13  N   UNL     1       0.322   9.432  20.326  0.00  0.00    +0.000 NA
ATOM     14  H   UNL     1       2.091   7.536  22.138  0.00  0.00    +0.000 HD
BRANCH   7  15
ATOM     15  C   UNL     1       2.331   7.449  20.062  0.00  0.00    +0.000 C 
BRANCH  15  19
ATOM     16  C   UNL     1       2.626   3.169  19.383  0.00  0.00    +0.000 A 
ATOM     17  C   UNL     1       1.634   3.687  20.214  0.00  0.00    +0.000 A 
ATOM     18  C   UNL     1       1.518   5.068  20.411  0.00  0.00    +0.000 A 
ATOM     19  C   UNL     1       2.416   5.956  19.797  0.00  0.00    +0.000 A 
ATOM     20  C   UNL     1       3.408   5.425  18.961  0.00  0.00    +0.000 A 
ATOM     21  C   UNL     1       3.512   4.044  18.756  0.00  0.00    +0.000 A 
BRANCH  16  23
ATOM     22  C   UNL     1       3.588   1.270  18.348  0.00  0.00    +0.000 C 
ATOM     23  O   UNL     1       2.666   1.803  19.294  0.00  0.00    +0.000 OA
ENDBRANCH  16  23
ENDBRANCH  15  19
ENDBRANCH   7  15
ENDBRANCH   1  12
BRANCH   5  24
ATOM     24  C   UNL     1       0.258  13.192  18.895  0.00  0.00    +0.000 A 
ATOM     25  C   UNL     1       0.016  14.302  19.716  0.00  0.00    +0.000 A 
ATOM     26  C   UNL     1       1.032  15.232  19.962  0.00  0.00    +0.000 A 
ATOM     27  C   UNL     1       2.285  15.049  19.387  0.00  0.00    +0.000 A 
ATOM     28  F   UNL     1       3.256  15.941  19.617  0.00  0.00    +0.000 F 
ATOM     29  C   UNL     1       2.544  13.958  18.569  0.00  0.00    +0.000 A 
ATOM     30  C   UNL     1       1.526  13.041  18.310  0.00  0.00    +0.000 A 
ENDBRANCH   5  24
BRANCH   3  31
ATOM     31  C   UNL     1      -3.658  11.088  16.722  0.00  0.00    +0.000 C 
BRANCH  31  32
ATOM     32  C   UNL     1      -4.984  11.469  17.344  0.00  0.00    +0.000 A 
ATOM     33  C   UNL     1      -5.726  12.556  16.859  0.00  0.00    +0.000 A 
ATOM     34  C   UNL     1      -6.945  12.901  17.445  0.00  0.00    +0.000 A 
ATOM     35  C   UNL     1      -7.436  12.169  18.526  0.00  0.00    +0.000 A 
ATOM     36  C   UNL     1      -6.704  11.087  19.028  0.00  0.00    +0.000 A 
ATOM     37  C   UNL     1      -5.482  10.745  18.440  0.00  0.00    +0.000 A 
BRANCH  36  38
ATOM     38  C   UNL     1      -7.207  10.335  20.137  0.00  0.00    +0.000 C 
ATOM     39  N   UNL     1      -7.627   9.732  21.038  0.00  0.00    +0.000 NA
ENDBRANCH  36  38
ENDBRANCH  31  32
ENDBRANCH   3  31
TORSDOF 8
ENDMDL
MODEL 2
REMARK VINA RESULT:      -8.6      4.171      9.075
REMARK  Name = 
REMARK  9 active torsions:
REMARK  status: ('A' for Active; 'I' for Inactive)
REMARK    1  A    between atoms: C_1  and  O_2
REMARK    2  A    between atoms: O_2  and  C_3
REMARK    3  A    between atoms: C_6  and  C_7
REMARK    4  A    between atoms: C_7  and  N_8
REMARK    5  A    between atoms: C_13  and  C_14
REMARK    6  A    between atoms: C_16  and  C_17
REMARK    7  A    between atoms: C_17  and  C_18
REMARK    8  A    between atoms: C_22  and  C_23
REMARK    9  A    between atoms: C_27  and  C_28
REMARK                            x       y       z     vdW  Elec       q    Type
REMARK                         _______ _______ _______ _____ _____    ______ ____
ROOT
ATOM      1  C   UNL     1       0.589  11.272  18.687  0.00  0.00    +0.000 A 
ATOM      2  N   UNL     1       1.785  10.587  18.615  0.00  0.00    +0.000 N 
ATOM      3  C   UNL     1       1.567   9.361  18.042  0.00  0.00    +0.000 A 
ATOM      4  N   UNL     1       0.307   9.238  17.686  0.00  0.00    +0.000 NA
ATOM      5  C   UNL     1      -0.309  10.418  18.055  0.00  0.00    +0.000 A 
ATOM      6  H   UNL     1       2.673  10.906  18.974  0.00  0.00    +0.000 HD
ENDROOT
BRANCH   1  12
ATOM      7  N   UNL     1      -1.507  13.906  22.024  0.00  0.00    +0.000 N 
ATOM      8  C   UNL     1      -0.584  13.767  21.008  0.00  0.00    +0.000 A 
ATOM      9  N   UNL     1       0.021  14.902  20.639  0.00  0.00    +0.000 NA
ATOM     10  C   UNL     1       0.840  14.845  19.575  0.00  0.00    +0.000 A 
ATOM     11  C   UNL     1       1.081  13.699  18.865  0.00  0.00    +0.000 A 
ATOM     12  C   UNL     1       0.444  12.574  19.335  0.00  0.00    +0.000 A 
ATOM     13  N   UNL     1      -0.371  12.591  20.411  0.00  0.00    +0.000 NA
ATOM     14  H   UNL     1      -1.293  14.765  22.515  0.00  0.00    +0.000 HD
BRANCH   7  15
ATOM     15  C   UNL     1      -1.783  12.761  22.863  0.00  0.00    +0.000 C 
BRANCH  15  19
ATOM     16  C   UNL     1      -6.054  12.715  23.652  0.00  0.00    +0.000 A 
ATOM     17  C   UNL     1      -5.573  13.012  22.378  0.00  0.00    +0.000 A 
ATOM     18  C   UNL     1      -4.199  12.998  22.114  0.00  0.00    +0.000 A 
ATOM     19  C   UNL     1      -3.277  12.712  23.133  0.00  0.00    +0.000 A 
ATOM     20  C   UNL     1      -3.771  12.412  24.410  0.00  0.00    +0.000 A 
ATOM     21  C   UNL     1      -5.148  12.413  24.667  0.00  0.00    +0.000 A 
BRANCH  16  23
ATOM     22  C   UNL     1      -7.917  14.056  24.231  0.00  0.00    +0.000 C 
ATOM     23  O   UNL     1      -7.413  12.794  23.802  0.00  0.00    +0.000 OA
ENDBRANCH  16  23
ENDBRANCH  15  19
ENDBRANCH   7  15
ENDBRANCH   1  12
BRANCH   5  24
ATOM     24  C   UNL     1      -1.715  10.671  17.779  0.00  0.00    +0.000 A 
ATOM     25  C   UNL     1      -2.288  10.193  16.592  0.00  0.00    +0.000 A 
ATOM     26  C   UNL     1      -3.635  10.442  16.309  0.00  0.00    +0.000 A 
ATOM     27  C   UNL     1      -4.405  11.164  17.213  0.00  0.00    +0.000 A 
ATOM     28  F   UNL     1      -5.693  11.407  16.940  0.00  0.00    +0.000 F 
ATOM     29  C   UNL     1      -3.857  11.648  18.392  0.00  0.00    +0.000 A 
ATOM     30  C   UNL     1      -2.510  11.415  18.666  0.00  0.00    +0.000 A 
ENDBRANCH   5  24
BRANCH   3  31
ATOM     31  C   UNL     1       2.647   8.339  17.891  0.00  0.00    +0.000 C 
BRANCH  31  32
ATOM     32  C   UNL     1       2.350   7.058  18.642  0.00  0.00    +0.000 A 
ATOM     33  C   UNL     1       2.043   7.077  20.011  0.00  0.00    +0.000 A 
ATOM     34  C   UNL     1       1.776   5.889  20.695  0.00  0.00    +0.000 A 
ATOM     35  C   UNL     1       1.819   4.668  20.022  0.00  0.00    +0.000 A 
ATOM     36  C   UNL     1       2.132   4.631  18.658  0.00  0.00    +0.000 A 
ATOM     37  C   UNL     1       2.401   5.822  17.976  0.00  0.00    +0.000 A 
BRANCH  36  38
ATOM     38  C   UNL     1       2.176   3.379  17.967  0.00  0.00    +0.000 C 
ATOM     39  N   UNL     1       2.219   2.367  17.397  0.00  0.00    +0.000 NA
ENDBRANCH  36  38
ENDBRANCH  31  32
ENDBRANCH   3  31
TORSDOF 8
ENDMDL
MODEL 3
REMARK VINA RESULT:      -8.5      4.471     10.455
REMARK  Name = 
REMARK  9 active torsions:
REMARK  status: ('A' for Active; 'I' for Inactive)
REMARK    1  A    between atoms: C_1  and  O_2
REMARK    2  A    between atoms: O_2  and  C_3
REMARK    3  A    between atoms: C_6  and  C_7
REMARK    4  A    between atoms: C_7  and  N_8
REMARK    5  A    between atoms: C_13  and  C_14
REMARK    6  A    between atoms: C_16  and  C_17
REMARK    7  A    between atoms: C_17  and  C_18
REMARK    8  A    between atoms: C_22  and  C_23
REMARK    9  A    between atoms: C_27  and  C_28
REMARK                            x       y       z     vdW  Elec       q    Type
REMARK                         _______ _______ _______ _____ _____    ______ ____
ROOT
ATOM      1  C   UNL     1       2.309   7.493  19.052  0.00  0.00    +0.000 A 
ATOM      2  N   UNL     1       2.985   8.048  17.985  0.00  0.00    +0.000 N 
ATOM      3  C   UNL     1       3.755   7.082  17.390  0.00  0.00    +0.000 A 
ATOM      4  N   UNL     1       3.570   5.920  17.979  0.00  0.00    +0.000 NA
ATOM      5  C   UNL     1       2.661   6.150  18.994  0.00  0.00    +0.000 A 
ATOM      6  H   UNL     1       2.967   9.019  17.712  0.00  0.00    +0.000 HD
ENDROOT
BRANCH   1  12
ATOM      7  N   UNL     1      -0.214  11.424  19.861  0.00  0.00    +0.000 N 
ATOM      8  C   UNL     1       0.234  10.182  20.260  0.00  0.00    +0.000 A 
ATOM      9  N   UNL     1      -0.062   9.856  21.523  0.00  0.00    +0.000 NA
ATOM     10  C   UNL     1       0.452   8.711  22.001  0.00  0.00    +0.000 A 
ATOM     11  C   UNL     1       1.250   7.874  21.265  0.00  0.00    +0.000 A 
ATOM     12  C   UNL     1       1.474   8.270  19.968  0.00  0.00    +0.000 A 
ATOM     13  N   UNL     1       0.959   9.405  19.450  0.00  0.00    +0.000 NA
ATOM     14  H   UNL     1      -0.964  11.693  20.485  0.00  0.00    +0.000 HD
BRANCH   7  15
ATOM     15  C   UNL     1      -0.463  11.645  18.454  0.00  0.00    +0.000 C 
BRANCH  15  19
ATOM     16  C   UNL     1      -4.740  11.246  17.801  0.00  0.00    +0.000 A 
ATOM     17  C   UNL     1      -4.254  11.888  18.940  0.00  0.00    +0.000 A 
ATOM     18  C   UNL     1      -2.878  12.044  19.138  0.00  0.00    +0.000 A 
ATOM     19  C   UNL     1      -1.958  11.533  18.207  0.00  0.00    +0.000 A 
ATOM     20  C   UNL     1      -2.456  10.894  17.064  0.00  0.00    +0.000 A 
ATOM     21  C   UNL     1      -3.835  10.751  16.863  0.00  0.00    +0.000 A 
BRANCH  16  23
ATOM     22  C   UNL     1      -6.834  12.339  17.657  0.00  0.00    +0.000 C 
ATOM     23  O   UNL     1      -6.101  11.120  17.731  0.00  0.00    +0.000 OA
ENDBRANCH  16  23
ENDBRANCH  15  19
ENDBRANCH   7  15
ENDBRANCH   1  12
BRANCH   5  24
ATOM     24  C   UNL     1       2.172   5.075  19.845  0.00  0.00    +0.000 A 
ATOM     25  C   UNL     1       2.788   4.831  21.080  0.00  0.00    +0.000 A 
ATOM     26  C   UNL     1       2.335   3.792  21.900  0.00  0.00    +0.000 A 
ATOM     27  C   UNL     1       1.269   3.004  21.485  0.00  0.00    +0.000 A 
ATOM     28  F   UNL     1       0.839   2.005  22.268  0.00  0.00    +0.000 F 
ATOM     29  C   UNL     1       0.646   3.227  20.266  0.00  0.00    +0.000 A 
ATOM     30  C   UNL     1       1.110   4.251  19.440  0.00  0.00    +0.000 A 
ENDBRANCH   5  24
BRANCH   3  31
ATOM     31  C   UNL     1       4.677   7.374  16.250  0.00  0.00    +0.000 C 
BRANCH  31  32
ATOM     32  C   UNL     1       5.565   6.199  15.899  0.00  0.00    +0.000 A 
ATOM     33  C   UNL     1       6.611   5.805  16.747  0.00  0.00    +0.000 A 
ATOM     34  C   UNL     1       7.428   4.724  16.410  0.00  0.00    +0.000 A 
ATOM     35  C   UNL     1       7.213   4.027  15.221  0.00  0.00    +0.000 A 
ATOM     36  C   UNL     1       6.180   4.412  14.360  0.00  0.00    +0.000 A 
ATOM     37  C   UNL     1       5.365   5.497  14.699  0.00  0.00    +0.000 A 
BRANCH  36  38
ATOM     38  C   UNL     1       5.959   3.697  13.141  0.00  0.00    +0.000 C 
ATOM     39  N   UNL     1       5.793   3.113  12.150  0.00  0.00    +0.000 NA
ENDBRANCH  36  38
ENDBRANCH  31  32
ENDBRANCH   3  31
TORSDOF 8
ENDMDL
MODEL 4
REMARK VINA RESULT:      -8.5      5.853      9.543
REMARK  Name = 
REMARK  9 active torsions:
REMARK  status: ('A' for Active; 'I' for Inactive)
REMARK    1  A    between atoms: C_1  and  O_2
REMARK    2  A    between atoms: O_2  and  C_3
REMARK    3  A    between atoms: C_6  and  C_7
REMARK    4  A    between atoms: C_7  and  N_8
REMARK    5  A    between atoms: C_13  and  C_14
REMARK    6  A    between atoms: C_16  and  C_17
REMARK    7  A    between atoms: C_17  and  C_18
REMARK    8  A    between atoms: C_22  and  C_23
REMARK    9  A    between atoms: C_27  and  C_28
REMARK                            x       y       z     vdW  Elec       q    Type
REMARK                         _______ _______ _______ _____ _____    ______ ____
ROOT
ATOM      1  C   UNL     1       3.934   7.010  17.649  0.00  0.00    +0.000 A 
ATOM      2  N   UNL     1       3.338   8.251  17.740  0.00  0.00    +0.000 N 
ATOM      3  C   UNL     1       2.036   8.096  18.143  0.00  0.00    +0.000 A 
ATOM      4  N   UNL     1       1.775   6.828  18.373  0.00  0.00    +0.000 NA
ATOM      5  C   UNL     1       2.942   6.143  18.096  0.00  0.00    +0.000 A 
ATOM      6  H   UNL     1       3.765   9.133  17.498  0.00  0.00    +0.000 HD
ENDROOT
BRANCH   1  12
ATOM      7  N   UNL     1       8.482   8.343  17.665  0.00  0.00    +0.000 N 
ATOM      8  C   UNL     1       7.484   7.484  17.253  0.00  0.00    +0.000 A 
ATOM      9  N   UNL     1       7.856   6.592  16.327  0.00  0.00    +0.000 NA
ATOM     10  C   UNL     1       6.897   5.811  15.804  0.00  0.00    +0.000 A 
ATOM     11  C   UNL     1       5.578   5.883  16.170  0.00  0.00    +0.000 A 
ATOM     12  C   UNL     1       5.292   6.803  17.151  0.00  0.00    +0.000 A 
ATOM     13  N   UNL     1       6.234   7.591  17.711  0.00  0.00    +0.000 NA
ATOM     14  H   UNL     1       9.369   7.910  17.442  0.00  0.00    +0.000 HD
BRANCH   7  15
ATOM     15  C   UNL     1       8.387   8.924  18.985  0.00  0.00    +0.000 C 
BRANCH  15  19
ATOM     16  C   UNL     1      10.910  12.459  19.081  0.00  0.00    +0.000 A 
ATOM     17  C   UNL     1      10.517  11.903  17.864  0.00  0.00    +0.000 A 
ATOM     18  C   UNL     1       9.680  10.782  17.831  0.00  0.00    +0.000 A 
ATOM     19  C   UNL     1       9.242  10.179  19.021  0.00  0.00    +0.000 A 
ATOM     20  C   UNL     1       9.640  10.748  20.239  0.00  0.00    +0.000 A 
ATOM     21  C   UNL     1      10.467  11.878  20.268  0.00  0.00    +0.000 A 
BRANCH  16  23
ATOM     22  C   UNL     1      11.356  14.699  19.700  0.00  0.00    +0.000 C 
ATOM     23  O   UNL     1      11.758  13.531  18.992  0.00  0.00    +0.000 OA
ENDBRANCH  16  23
ENDBRANCH  15  19
ENDBRANCH   7  15
ENDBRANCH   1  12
BRANCH   5  24
ATOM     24  C   UNL     1       3.051   4.704  18.281  0.00  0.00    +0.000 A 
ATOM     25  C   UNL     1       3.883   4.192  19.287  0.00  0.00    +0.000 A 
ATOM     26  C   UNL     1       4.006   2.810  19.465  0.00  0.00    +0.000 A 
ATOM     27  C   UNL     1       3.298   1.945  18.639  0.00  0.00    +0.000 A 
ATOM     28  F   UNL     1       3.420   0.622  18.805  0.00  0.00    +0.000 F 
ATOM     29  C   UNL     1       2.471   2.431  17.636  0.00  0.00    +0.000 A 
ATOM     30  C   UNL     1       2.362   3.808  17.447  0.00  0.00    +0.000 A 
ENDBRANCH   5  24
BRANCH   3  31
ATOM     31  C   UNL     1       1.087   9.245  18.262  0.00  0.00    +0.000 C 
BRANCH  31  32
ATOM     32  C   UNL     1       0.708   9.545  19.696  0.00  0.00    +0.000 A 
ATOM     33  C   UNL     1       1.274   8.827  20.760  0.00  0.00    +0.000 A 
ATOM     34  C   UNL     1       0.912   9.108  22.079  0.00  0.00    +0.000 A 
ATOM     35  C   UNL     1      -0.023  10.107  22.351  0.00  0.00    +0.000 A 
ATOM     36  C   UNL     1      -0.604  10.828  21.301  0.00  0.00    +0.000 A 
ATOM     37  C   UNL     1      -0.240  10.542  19.981  0.00  0.00    +0.000 A 
BRANCH  36  38
ATOM     38  C   UNL     1      -1.562  11.852  21.580  0.00  0.00    +0.000 C 
ATOM     39  N   UNL     1      -2.332  12.694  21.804  0.00  0.00    +0.000 NA
ENDBRANCH  36  38
ENDBRANCH  31  32
ENDBRANCH   3  31
TORSDOF 8
ENDMDL
MODEL 5
REMARK VINA RESULT:      -8.5      5.049      8.582
REMARK  Name = 
REMARK  9 active torsions:
REMARK  status: ('A' for Active; 'I' for Inactive)
REMARK    1  A    between atoms: C_1  and  O_2
REMARK    2  A    between atoms: O_2  and  C_3
REMARK    3  A    between atoms: C_6  and  C_7
REMARK    4  A    between atoms: C_7  and  N_8
REMARK    5  A    between atoms: C_13  and  C_14
REMARK    6  A    between atoms: C_16  and  C_17
REMARK    7  A    between atoms: C_17  and  C_18
REMARK    8  A    between atoms: C_22  and  C_23
REMARK    9  A    between atoms: C_27  and  C_28
REMARK                            x       y       z     vdW  Elec       q    Type
REMARK                         _______ _______ _______ _____ _____    ______ ____
ROOT
ATOM      1  C   UNL     1       4.012   6.502  18.229  0.00  0.00    +0.000 A 
ATOM      2  N   UNL     1       3.843   7.861  18.057  0.00  0.00    +0.000 N 
ATOM      3  C   UNL     1       2.506   8.133  17.921  0.00  0.00    +0.000 A 
ATOM      4  N   UNL     1       1.798   7.033  18.053  0.00  0.00    +0.000 NA
ATOM      5  C   UNL     1       2.710   6.018  18.268  0.00  0.00    +0.000 A 
ATOM      6  H   UNL     1       4.581   8.546  17.985  0.00  0.00    +0.000 HD
ENDROOT
BRANCH   1  12
ATOM      7  N   UNL     1       7.730   4.636  15.956  0.00  0.00    +0.000 N 
ATOM      8  C   UNL     1       7.104   5.014  17.126  0.00  0.00    +0.000 A 
ATOM      9  N   UNL     1       7.733   4.641  18.246  0.00  0.00    +0.000 NA
ATOM     10  C   UNL     1       7.108   4.877  19.412  0.00  0.00    +0.000 A 
ATOM     11  C   UNL     1       5.879   5.476  19.504  0.00  0.00    +0.000 A 
ATOM     12  C   UNL     1       5.322   5.857  18.306  0.00  0.00    +0.000 A 
ATOM     13  N   UNL     1       5.930   5.651  17.119  0.00  0.00    +0.000 NA
ATOM     14  H   UNL     1       8.702   4.456  16.174  0.00  0.00    +0.000 HD
BRANCH   7  15
ATOM     15  C   UNL     1       7.494   5.422  14.766  0.00  0.00    +0.000 C 
BRANCH  15  19
ATOM     16  C   UNL     1       5.135   3.117  11.939  0.00  0.00    +0.000 A 
ATOM     17  C   UNL     1       6.441   3.494  11.629  0.00  0.00    +0.000 A 
ATOM     18  C   UNL     1       7.213   4.211  12.551  0.00  0.00    +0.000 A 
ATOM     19  C   UNL     1       6.678   4.588  13.793  0.00  0.00    +0.000 A 
ATOM     20  C   UNL     1       5.366   4.202  14.096  0.00  0.00    +0.000 A 
ATOM     21  C   UNL     1       4.601   3.472  13.177  0.00  0.00    +0.000 A 
BRANCH  16  23
ATOM     22  C   UNL     1       3.336   3.127  10.401  0.00  0.00    +0.000 C 
ATOM     23  O   UNL     1       4.464   2.451  10.949  0.00  0.00    +0.000 OA
ENDBRANCH  16  23
ENDBRANCH  15  19
ENDBRANCH   7  15
ENDBRANCH   1  12
BRANCH   5  24
ATOM     24  C   UNL     1       2.290   4.645  18.507  0.00  0.00    +0.000 A 
ATOM     25  C   UNL     1       2.627   3.644  17.587  0.00  0.00    +0.000 A 
ATOM     26  C   UNL     1       2.217   2.323  17.799  0.00  0.00    +0.000 A 
ATOM     27  C   UNL     1       1.473   2.008  18.930  0.00  0.00    +0.000 A 
ATOM     28  F   UNL     1       1.075   0.745  19.131  0.00  0.00    +0.000 F 
ATOM     29  C   UNL     1       1.126   2.985  19.852  0.00  0.00    +0.000 A 
ATOM     30  C   UNL     1       1.520   4.304  19.631  0.00  0.00    +0.000 A 
ENDBRANCH   5  24
BRANCH   3  31
ATOM     31  C   UNL     1       1.988   9.507  17.638  0.00  0.00    +0.000 C 
BRANCH  31  32
ATOM     32  C   UNL     1       0.912   9.939  18.611  0.00  0.00    +0.000 A 
ATOM     33  C   UNL     1      -0.253  10.580  18.165  0.00  0.00    +0.000 A 
ATOM     34  C   UNL     1      -1.236  10.979  19.072  0.00  0.00    +0.000 A 
ATOM     35  C   UNL     1      -1.065  10.748  20.437  0.00  0.00    +0.000 A 
ATOM     36  C   UNL     1       0.096  10.118  20.901  0.00  0.00    +0.000 A 
ATOM     37  C   UNL     1       1.080   9.721  19.989  0.00  0.00    +0.000 A 
BRANCH  36  38
ATOM     38  C   UNL     1       0.272   9.881  22.301  0.00  0.00    +0.000 C 
ATOM     39  N   UNL     1       0.403   9.694  23.440  0.00  0.00    +0.000 NA
ENDBRANCH  36  38
ENDBRANCH  31  32
ENDBRANCH   3  31
TORSDOF 8
ENDMDL
MODEL 6
REMARK VINA RESULT:      -8.5      5.879      9.572
REMARK  Name = 
REMARK  9 active torsions:
REMARK  status: ('A' for Active; 'I' for Inactive)
REMARK    1  A    between atoms: C_1  and  O_2
REMARK    2  A    between atoms: O_2  and  C_3
REMARK    3  A    between atoms: C_6  and  C_7
REMARK    4  A    between atoms: C_7  and  N_8
REMARK    5  A    between atoms: C_13  and  C_14
REMARK    6  A    between atoms: C_16  and  C_17
REMARK    7  A    between atoms: C_17  and  C_18
REMARK    8  A    between atoms: C_22  and  C_23
REMARK    9  A    between atoms: C_27  and  C_28
REMARK                            x       y       z     vdW  Elec       q    Type
REMARK                         _______ _______ _______ _____ _____    ______ ____
ROOT
ATOM      1  C   UNL     1       3.947   6.954  17.661  0.00  0.00    +0.000 A 
ATOM      2  N   UNL     1       3.326   8.183  17.751  0.00  0.00    +0.000 N 
ATOM      3  C   UNL     1       2.027   8.002  18.150  0.00  0.00    +0.000 A 
ATOM      4  N   UNL     1       1.790   6.728  18.378  0.00  0.00    +0.000 NA
ATOM      5  C   UNL     1       2.972   6.067  18.104  0.00  0.00    +0.000 A 
ATOM      6  H   UNL     1       3.737   9.073  17.511  0.00  0.00    +0.000 HD
ENDROOT
BRANCH   1  12
ATOM      7  N   UNL     1       8.452   8.426  17.628  0.00  0.00    +0.000 N 
ATOM      8  C   UNL     1       7.481   7.525  17.243  0.00  0.00    +0.000 A 
ATOM      9  N   UNL     1       7.879   6.619  16.343  0.00  0.00    +0.000 NA
ATOM     10  C   UNL     1       6.943   5.794  15.845  0.00  0.00    +0.000 A 
ATOM     11  C   UNL     1       5.624   5.836  16.211  0.00  0.00    +0.000 A 
ATOM     12  C   UNL     1       5.311   6.775  17.166  0.00  0.00    +0.000 A 
ATOM     13  N   UNL     1       6.228   7.607  17.701  0.00  0.00    +0.000 NA
ATOM     14  H   UNL     1       9.352   8.013  17.416  0.00  0.00    +0.000 HD
BRANCH   7  15
ATOM     15  C   UNL     1       8.341   9.041  18.931  0.00  0.00    +0.000 C 
BRANCH  15  19
ATOM     16  C   UNL     1      11.029  12.449  19.117  0.00  0.00    +0.000 A 
ATOM     17  C   UNL     1      10.556  11.856  20.287  0.00  0.00    +0.000 A 
ATOM     18  C   UNL     1       9.714  10.739  20.230  0.00  0.00    +0.000 A 
ATOM     19  C   UNL     1       9.307  10.213  18.994  0.00  0.00    +0.000 A 
ATOM     20  C   UNL     1       9.790  10.814  17.824  0.00  0.00    +0.000 A 
ATOM     21  C   UNL     1      10.643  11.924  17.885  0.00  0.00    +0.000 A 
BRANCH  16  23
ATOM     22  C   UNL     1      11.245  14.604  20.073  0.00  0.00    +0.000 C 
ATOM     23  O   UNL     1      11.815  13.556  19.294  0.00  0.00    +0.000 OA
ENDBRANCH  16  23
ENDBRANCH  15  19
ENDBRANCH   7  15
ENDBRANCH   1  12
BRANCH   5  24
ATOM     24  C   UNL     1       3.108   4.630  18.287  0.00  0.00    +0.000 A 
ATOM     25  C   UNL     1       2.407   3.752  17.450  0.00  0.00    +0.000 A 
ATOM     26  C   UNL     1       2.520   2.369  17.626  0.00  0.00    +0.000 A 
ATOM     27  C   UNL     1       3.334   1.869  18.635  0.00  0.00    +0.000 A 
ATOM     28  F   UNL     1       3.438   0.545  18.807  0.00  0.00    +0.000 F 
ATOM     29  C   UNL     1       4.035   2.721  19.476  0.00  0.00    +0.000 A 
ATOM     30  C   UNL     1       3.908   4.100  19.312  0.00  0.00    +0.000 A 
ENDBRANCH   5  24
BRANCH   3  31
ATOM     31  C   UNL     1       1.055   9.132  18.268  0.00  0.00    +0.000 C 
BRANCH  31  32
ATOM     32  C   UNL     1       0.711   9.461  19.705  0.00  0.00    +0.000 A 
ATOM     33  C   UNL     1       1.287   8.749  20.768  0.00  0.00    +0.000 A 
ATOM     34  C   UNL     1       0.957   9.057  22.090  0.00  0.00    +0.000 A 
ATOM     35  C   UNL     1       0.044  10.075  22.365  0.00  0.00    +0.000 A 
ATOM     36  C   UNL     1      -0.547  10.789  21.316  0.00  0.00    +0.000 A 
ATOM     37  C   UNL     1      -0.216  10.476  19.994  0.00  0.00    +0.000 A 
BRANCH  36  38
ATOM     38  C   UNL     1      -1.483  11.833  21.599  0.00  0.00    +0.000 C 
ATOM     39  N   UNL     1      -2.252  12.673  21.832  0.00  0.00    +0.000 NA
ENDBRANCH  36  38
ENDBRANCH  31  32
ENDBRANCH   3  31
TORSDOF 8
ENDMDL
MODEL 7
REMARK VINA RESULT:      -8.5      4.546     10.623
REMARK  Name = 
REMARK  9 active torsions:
REMARK  status: ('A' for Active; 'I' for Inactive)
REMARK    1  A    between atoms: C_1  and  O_2
REMARK    2  A    between atoms: O_2  and  C_3
REMARK    3  A    between atoms: C_6  and  C_7
REMARK    4  A    between atoms: C_7  and  N_8
REMARK    5  A    between atoms: C_13  and  C_14
REMARK    6  A    between atoms: C_16  and  C_17
REMARK    7  A    between atoms: C_17  and  C_18
REMARK    8  A    between atoms: C_22  and  C_23
REMARK    9  A    between atoms: C_27  and  C_28
REMARK                            x       y       z     vdW  Elec       q    Type
REMARK                         _______ _______ _______ _____ _____    ______ ____
ROOT
ATOM      1  C   UNL     1       2.319   7.483  19.017  0.00  0.00    +0.000 A 
ATOM      2  N   UNL     1       3.013   8.037  17.961  0.00  0.00    +0.000 N 
ATOM      3  C   UNL     1       3.825   7.082  17.406  0.00  0.00    +0.000 A 
ATOM      4  N   UNL     1       3.650   5.925  18.009  0.00  0.00    +0.000 NA
ATOM      5  C   UNL     1       2.705   6.148  18.992  0.00  0.00    +0.000 A 
ATOM      6  H   UNL     1       2.979   9.004  17.671  0.00  0.00    +0.000 HD
ENDROOT
BRANCH   1  12
ATOM      7  N   UNL     1      -0.620  11.162  19.559  0.00  0.00    +0.000 N 
ATOM      8  C   UNL     1      -0.010  10.030  20.057  0.00  0.00    +0.000 A 
ATOM      9  N   UNL     1      -0.210   9.811  21.362  0.00  0.00    +0.000 NA
ATOM     10  C   UNL     1       0.458   8.791  21.924  0.00  0.00    +0.000 A 
ATOM     11  C   UNL     1       1.318   7.976  21.235  0.00  0.00    +0.000 A 
ATOM     12  C   UNL     1       1.437   8.253  19.893  0.00  0.00    +0.000 A 
ATOM     13  N   UNL     1       0.767   9.259  19.292  0.00  0.00    +0.000 NA
ATOM     14  H   UNL     1      -1.370  11.409  20.193  0.00  0.00    +0.000 HD
BRANCH   7  15
ATOM     15  C   UNL     1      -0.955  11.201  18.153  0.00  0.00    +0.000 C 
BRANCH  15  19
ATOM     16  C   UNL     1      -5.244  11.755  17.738  0.00  0.00    +0.000 A 
ATOM     17  C   UNL     1      -4.492  11.236  16.684  0.00  0.00    +0.000 A 
ATOM     18  C   UNL     1      -3.115  11.029  16.826  0.00  0.00    +0.000 A 
ATOM     19  C   UNL     1      -2.460  11.365  18.022  0.00  0.00    +0.000 A 
ATOM     20  C   UNL     1      -3.225  11.882  19.076  0.00  0.00    +0.000 A 
ATOM     21  C   UNL     1      -4.605  12.076  18.934  0.00  0.00    +0.000 A 
BRANCH  16  23
ATOM     22  C   UNL     1      -6.971  13.299  17.252  0.00  0.00    +0.000 C 
ATOM     23  O   UNL     1      -6.573  11.949  17.473  0.00  0.00    +0.000 OA
ENDBRANCH  16  23
ENDBRANCH  15  19
ENDBRANCH   7  15
ENDBRANCH   1  12
BRANCH   5  24
ATOM     24  C   UNL     1       2.218   5.076  19.846  0.00  0.00    +0.000 A 
ATOM     25  C   UNL     1       1.141   4.285  19.423  0.00  0.00    +0.000 A 
ATOM     26  C   UNL     1       0.654   3.260  20.242  0.00  0.00    +0.000 A 
ATOM     27  C   UNL     1       1.247   3.029  21.478  0.00  0.00    +0.000 A 
ATOM     28  F   UNL     1       0.778   2.052  22.265  0.00  0.00    +0.000 F 
ATOM     29  C   UNL     1       2.312   3.802  21.916  0.00  0.00    +0.000 A 
ATOM     30  C   UNL     1       2.785   4.835  21.108  0.00  0.00    +0.000 A 
ENDBRANCH   5  24
BRANCH   3  31
ATOM     31  C   UNL     1       4.773   7.379  16.289  0.00  0.00    +0.000 C 
BRANCH  31  32
ATOM     32  C   UNL     1       5.630   6.188  15.916  0.00  0.00    +0.000 A 
ATOM     33  C   UNL     1       6.673   5.757  16.750  0.00  0.00    +0.000 A 
ATOM     34  C   UNL     1       7.460   4.660  16.393  0.00  0.00    +0.000 A 
ATOM     35  C   UNL     1       7.220   3.985  15.197  0.00  0.00    +0.000 A 
ATOM     36  C   UNL     1       6.189   4.407  14.349  0.00  0.00    +0.000 A 
ATOM     37  C   UNL     1       5.404   5.507  14.709  0.00  0.00    +0.000 A 
BRANCH  36  38
ATOM     38  C   UNL     1       5.942   3.714  13.122  0.00  0.00    +0.000 C 
ATOM     39  N   UNL     1       5.729   3.152  12.127  0.00  0.00    +0.000 NA
ENDBRANCH  36  38
ENDBRANCH  31  32
ENDBRANCH   3  31
TORSDOF 8
ENDMDL
MODEL 8
REMARK VINA RESULT:      -8.3      4.034      9.017
REMARK  Name = 
REMARK  9 active torsions:
REMARK  status: ('A' for Active; 'I' for Inactive)
REMARK    1  A    between atoms: C_1  and  O_2
REMARK    2  A    between atoms: O_2  and  C_3
REMARK    3  A    between atoms: C_6  and  C_7
REMARK    4  A    between atoms: C_7  and  N_8
REMARK    5  A    between atoms: C_13  and  C_14
REMARK    6  A    between atoms: C_16  and  C_17
REMARK    7  A    between atoms: C_17  and  C_18
REMARK    8  A    between atoms: C_22  and  C_23
REMARK    9  A    between atoms: C_27  and  C_28
REMARK                            x       y       z     vdW  Elec       q    Type
REMARK                         _______ _______ _______ _____ _____    ______ ____
ROOT
ATOM      1  C   UNL     1       0.782   9.436  19.688  0.00  0.00    +0.000 A 
ATOM      2  N   UNL     1       1.984   8.802  19.450  0.00  0.00    +0.000 N 
ATOM      3  C   UNL     1       2.077   8.501  18.116  0.00  0.00    +0.000 A 
ATOM      4  N   UNL     1       1.027   8.957  17.468  0.00  0.00    +0.000 NA
ATOM      5  C   UNL     1       0.226   9.559  18.419  0.00  0.00    +0.000 A 
ATOM      6  H   UNL     1       2.667   8.545  20.148  0.00  0.00    +0.000 HD
ENDROOT
BRANCH   1  12
ATOM      7  N   UNL     1      -0.852  12.798  22.602  0.00  0.00    +0.000 N 
ATOM      8  C   UNL     1      -0.514  11.484  22.355  0.00  0.00    +0.000 A 
ATOM      9  N   UNL     1      -0.545  10.685  23.428  0.00  0.00    +0.000 NA
ATOM     10  C   UNL     1      -0.110   9.424  23.269  0.00  0.00    +0.000 A 
ATOM     11  C   UNL     1       0.353   8.926  22.079  0.00  0.00    +0.000 A 
ATOM     12  C   UNL     1       0.317   9.806  21.023  0.00  0.00    +0.000 A 
ATOM     13  N   UNL     1      -0.130  11.074  21.143  0.00  0.00    +0.000 NA
ATOM     14  H   UNL     1      -1.382  12.821  23.464  0.00  0.00    +0.000 HD
BRANCH   7  15
ATOM     15  C   UNL     1      -1.394  13.584  21.516  0.00  0.00    +0.000 C 
BRANCH  15  19
ATOM     16  C   UNL     1      -5.690  13.816  22.118  0.00  0.00    +0.000 A 
ATOM     17  C   UNL     1      -4.854  14.827  22.591  0.00  0.00    +0.000 A 
ATOM     18  C   UNL     1      -3.472  14.768  22.372  0.00  0.00    +0.000 A 
ATOM     19  C   UNL     1      -2.900  13.679  21.697  0.00  0.00    +0.000 A 
ATOM     20  C   UNL     1      -3.750  12.670  21.223  0.00  0.00    +0.000 A 
ATOM     21  C   UNL     1      -5.133  12.738  21.432  0.00  0.00    +0.000 A 
BRANCH  16  23
ATOM     22  C   UNL     1      -7.769  12.754  22.508  0.00  0.00    +0.000 C 
ATOM     23  O   UNL     1      -7.018  13.961  22.422  0.00  0.00    +0.000 OA
ENDBRANCH  16  23
ENDBRANCH  15  19
ENDBRANCH   7  15
ENDBRANCH   1  12
BRANCH   5  24
ATOM     24  C   UNL     1      -1.019  10.225  18.066  0.00  0.00    +0.000 A 
ATOM     25  C   UNL     1      -2.031   9.508  17.414  0.00  0.00    +0.000 A 
ATOM     26  C   UNL     1      -3.226  10.141  17.057  0.00  0.00    +0.000 A 
ATOM     27  C   UNL     1      -3.406  11.487  17.354  0.00  0.00    +0.000 A 
ATOM     28  F   UNL     1      -4.548  12.095  17.008  0.00  0.00    +0.000 F 
ATOM     29  C   UNL     1      -2.416  12.215  17.998  0.00  0.00    +0.000 A 
ATOM     30  C   UNL     1      -1.217  11.588  18.337  0.00  0.00    +0.000 A 
ENDBRANCH   5  24
BRANCH   3  31
ATOM     31  C   UNL     1       3.226   7.737  17.540  0.00  0.00    +0.000 C 
BRANCH  31  32
ATOM     32  C   UNL     1       3.361   6.349  18.131  0.00  0.00    +0.000 A 
ATOM     33  C   UNL     1       4.563   5.926  18.716  0.00  0.00    +0.000 A 
ATOM     34  C   UNL     1       4.678   4.642  19.253  0.00  0.00    +0.000 A 
ATOM     35  C   UNL     1       3.596   3.764  19.206  0.00  0.00    +0.000 A 
ATOM     36  C   UNL     1       2.392   4.167  18.618  0.00  0.00    +0.000 A 
ATOM     37  C   UNL     1       2.281   5.453  18.079  0.00  0.00    +0.000 A 
BRANCH  36  38
ATOM     38  C   UNL     1       1.281   3.266  18.570  0.00  0.00    +0.000 C 
ATOM     39  N   UNL     1       0.381   2.530  18.543  0.00  0.00    +0.000 NA
ENDBRANCH  36  38
ENDBRANCH  31  32
ENDBRANCH   3  31
TORSDOF 8
ENDMDL
MODEL 9
REMARK VINA RESULT:      -8.2      4.044      7.379
REMARK  Name = 
REMARK  9 active torsions:
REMARK  status: ('A' for Active; 'I' for Inactive)
REMARK    1  A    between atoms: C_1  and  O_2
REMARK    2  A    between atoms: O_2  and  C_3
REMARK    3  A    between atoms: C_6  and  C_7
REMARK    4  A    between atoms: C_7  and  N_8
REMARK    5  A    between atoms: C_13  and  C_14
REMARK    6  A    between atoms: C_16  and  C_17
REMARK    7  A    between atoms: C_17  and  C_18
REMARK    8  A    between atoms: C_22  and  C_23
REMARK    9  A    between atoms: C_27  and  C_28
REMARK                            x       y       z     vdW  Elec       q    Type
REMARK                         _______ _______ _______ _____ _____    ______ ____
ROOT
ATOM      1  C   UNL     1      -1.201  11.969  18.608  0.00  0.00    +0.000 A 
ATOM      2  N   UNL     1      -2.396  12.306  18.006  0.00  0.00    +0.000 N 
ATOM      3  C   UNL     1      -2.838  11.243  17.261  0.00  0.00    +0.000 A 
ATOM      4  N   UNL     1      -2.024  10.218  17.395  0.00  0.00    +0.000 NA
ATOM      5  C   UNL     1      -1.019  10.640  18.243  0.00  0.00    +0.000 A 
ATOM      6  H   UNL     1      -2.851  13.206  18.054  0.00  0.00    +0.000 HD
ENDROOT
BRANCH   1  12
ATOM      7  N   UNL     1      -0.560  14.275  22.700  0.00  0.00    +0.000 N 
ATOM      8  C   UNL     1      -0.141  13.950  21.427  0.00  0.00    +0.000 A 
ATOM      9  N   UNL     1       0.925  14.633  20.995  0.00  0.00    +0.000 NA
ATOM     10  C   UNL     1       1.303  14.443  19.720  0.00  0.00    +0.000 A 
ATOM     11  C   UNL     1       0.660  13.594  18.858  0.00  0.00    +0.000 A 
ATOM     12  C   UNL     1      -0.403  12.908  19.396  0.00  0.00    +0.000 A 
ATOM     13  N   UNL     1      -0.799  13.061  20.677  0.00  0.00    +0.000 NA
ATOM     14  H   UNL     1       0.219  14.711  23.177  0.00  0.00    +0.000 HD
BRANCH   7  15
ATOM     15  C   UNL     1      -1.278  13.278  23.463  0.00  0.00    +0.000 C 
BRANCH  15  19
ATOM     16  C   UNL     1      -5.511  14.203  23.157  0.00  0.00    +0.000 A 
ATOM     17  C   UNL     1      -5.013  12.997  22.667  0.00  0.00    +0.000 A 
ATOM     18  C   UNL     1      -3.655  12.683  22.791  0.00  0.00    +0.000 A 
ATOM     19  C   UNL     1      -2.763  13.590  23.386  0.00  0.00    +0.000 A 
ATOM     20  C   UNL     1      -3.273  14.798  23.879  0.00  0.00    +0.000 A 
ATOM     21  C   UNL     1      -4.636  15.103  23.764  0.00  0.00    +0.000 A 
BRANCH  16  23
ATOM     22  C   UNL     1      -7.685  14.274  24.090  0.00  0.00    +0.000 C 
ATOM     23  O   UNL     1      -6.847  14.418  22.947  0.00  0.00    +0.000 OA
ENDBRANCH  16  23
ENDBRANCH  15  19
ENDBRANCH   7  15
ENDBRANCH   1  12
BRANCH   5  24
ATOM     24  C   UNL     1       0.054   9.752  18.665  0.00  0.00    +0.000 A 
ATOM     25  C   UNL     1       0.959   9.254  17.717  0.00  0.00    +0.000 A 
ATOM     26  C   UNL     1       1.985   8.389  18.109  0.00  0.00    +0.000 A 
ATOM     27  C   UNL     1       2.105   8.025  19.445  0.00  0.00    +0.000 A 
ATOM     28  F   UNL     1       3.084   7.192  19.820  0.00  0.00    +0.000 F 
ATOM     29  C   UNL     1       1.219   8.505  20.399  0.00  0.00    +0.000 A 
ATOM     30  C   UNL     1       0.184   9.353  20.005  0.00  0.00    +0.000 A 
ENDBRANCH   5  24
BRANCH   3  31
ATOM     31  C   UNL     1      -4.069  11.309  16.415  0.00  0.00    +0.000 C 
BRANCH  31  32
ATOM     32  C   UNL     1      -5.300  11.703  17.202  0.00  0.00    +0.000 A 
ATOM     33  C   UNL     1      -6.057  12.829  16.846  0.00  0.00    +0.000 A 
ATOM     34  C   UNL     1      -7.188  13.187  17.583  0.00  0.00    +0.000 A 
ATOM     35  C   UNL     1      -7.574  12.427  18.688  0.00  0.00    +0.000 A 
ATOM     36  C   UNL     1      -6.825  11.305  19.062  0.00  0.00    +0.000 A 
ATOM     37  C   UNL     1      -5.691  10.951  18.322  0.00  0.00    +0.000 A 
BRANCH  36  38
ATOM     38  C   UNL     1      -7.220  10.526  20.194  0.00  0.00    +0.000 C 
ATOM     39  N   UNL     1      -7.529   9.889  21.116  0.00  0.00    +0.000 NA
ENDBRANCH  36  38
ENDBRANCH  31  32
ENDBRANCH   3  31
TORSDOF 8
ENDMDL
