MODEL 1
REMARK VINA RESULT:      -8.3      0.000      0.000
REMARK  Name = 
REMARK  5 active torsions:
REMARK  status: ('A' for Active; 'I' for Inactive)
REMARK    1  A    between atoms: C_1  and  N_2
REMARK    2  A    between atoms: C_6  and  C_8
REMARK    3  A    between atoms: C_15  and  C_16
REMARK    4  A    between atoms: N_18  and  C_19
REMARK    5  A    between atoms: C_22  and  C_23
REMARK                            x       y       z     vdW  Elec       q    Type
REMARK                         _______ _______ _______ _____ _____    ______ ____
ROOT
ATOM      1  C   UNL     1      -3.155  12.540  21.980  0.00  0.00    +0.000 A 
ATOM      2  C   UNL     1      -2.327  11.974  22.952  0.00  0.00    +0.000 A 
ATOM      3  C   UNL     1      -0.946  11.947  22.772  0.00  0.00    +0.000 A 
ATOM      4  C   UNL     1      -0.396  12.369  21.567  0.00  0.00    +0.000 A 
ATOM      5  C   UNL     1      -1.229  12.734  20.505  0.00  0.00    +0.000 A 
ATOM      6  C   UNL     1      -2.608  12.869  20.731  0.00  0.00    +0.000 A 
ATOM      7  C   UNL     1      -0.660  12.942  19.129  0.00  0.00    +0.000 C 
ATOM      8  C   UNL     1       0.744  12.339  19.046  0.00  0.00    +0.000 C 
ATOM      9  C   UNL     1       1.525  12.810  20.259  0.00  0.00    +0.000 C 
ATOM     10  O   UNL     1       0.971  12.306  21.483  0.00  0.00    +0.000 OA
ENDROOT
BRANCH   1  16
ATOM     11  C   UNL     1      -7.914  13.763  17.806  0.00  0.00    +0.000 C 
ATOM     12  N   UNL     1      -7.317  12.989  18.889  0.00  0.00    +0.000 NA
ATOM     13  C   UNL     1      -7.601  13.604  20.207  0.00  0.00    +0.000 C 
ATOM     14  C   UNL     1      -6.939  12.846  21.381  0.00  0.00    +0.000 C 
ATOM     15  N   UNL     1      -5.513  12.605  21.135  0.00  0.00    +0.000 N 
ATOM     16  C   UNL     1      -4.615  12.747  22.195  0.00  0.00    +0.000 C 
ATOM     17  O   UNL     1      -4.988  13.047  23.327  0.00  0.00    +0.000 OA
ATOM     18  C   UNL     1      -5.267  11.979  19.830  0.00  0.00    +0.000 C 
ATOM     19  C   UNL     1      -5.859  12.855  18.708  0.00  0.00    +0.000 C 
ENDBRANCH   1  16
BRANCH   8  20
ATOM     20  C   UNL     1       0.655  10.817  18.859  0.00  0.00    +0.000 C 
ATOM     21  O   UNL     1      -0.376  10.352  18.370  0.00  0.00    +0.000 OA
ATOM     22  N   UNL     1       1.734  10.067  19.296  0.00  0.00    +0.000 N 
ATOM     23  H   UNL     1       2.432  10.543  19.860  0.00  0.00    +0.000 HD
BRANCH  22  24
ATOM     24  C   UNL     1       1.857   8.661  19.251  0.00  0.00    +0.000 A 
ATOM     25  C   UNL     1       1.640   7.844  20.356  0.00  0.00    +0.000 A 
ATOM     26  C   UNL     1       1.822   6.461  20.271  0.00  0.00    +0.000 A 
ATOM     27  C   UNL     1       2.214   5.861  19.071  0.00  0.00    +0.000 A 
ATOM     28  C   UNL     1       2.403   6.676  17.948  0.00  0.00    +0.000 A 
ATOM     29  C   UNL     1       2.220   8.065  18.036  0.00  0.00    +0.000 A 
BRANCH  27  30
ATOM     30  C   UNL     1       2.396   4.423  18.996  0.00  0.00    +0.000 A 
ATOM     31  C   UNL     1       2.857   3.492  19.956  0.00  0.00    +0.000 A 
ATOM     32  N   UNL     1       2.906   2.243  19.484  0.00  0.00    +0.000 NA
ATOM     33  N   UNL     1       2.475   2.368  18.220  0.00  0.00    +0.000 N 
ATOM     34  C   UNL     1       2.147   3.648  17.882  0.00  0.00    +0.000 A 
ATOM     35  H   UNL     1       2.434   1.537  17.639  0.00  0.00    +0.000 HD
ENDBRANCH  27  30
ENDBRANCH  22  24
ENDBRANCH   8  20
TORSDOF 4
ENDMDL
MODEL 2
REMARK VINA RESULT:      -8.2      0.472      1.049
REMARK  Name = 
REMARK  5 active torsions:
REMARK  status: ('A' for Active; 'I' for Inactive)
REMARK    1  A    between atoms: C_1  and  N_2
REMARK    2  A    between atoms: C_6  and  C_8
REMARK    3  A    between atoms: C_15  and  C_16
REMARK    4  A    between atoms: N_18  and  C_19
REMARK    5  A    between atoms: C_22  and  C_23
REMARK                            x       y       z     vdW  Elec       q    Type
REMARK                         _______ _______ _______ _____ _____    ______ ____
ROOT
ATOM      1  C   UNL     1      -3.179  12.633  21.817  0.00  0.00    +0.000 A 
ATOM      2  C   UNL     1      -2.350  12.121  22.818  0.00  0.00    +0.000 A 
ATOM      3  C   UNL     1      -0.968  12.091  22.641  0.00  0.00    +0.000 A 
ATOM      4  C   UNL     1      -0.418  12.454  21.418  0.00  0.00    +0.000 A 
ATOM      5  C   UNL     1      -1.252  12.761  20.337  0.00  0.00    +0.000 A 
ATOM      6  C   UNL     1      -2.631  12.901  20.554  0.00  0.00    +0.000 A 
ATOM      7  C   UNL     1      -0.681  12.901  18.953  0.00  0.00    +0.000 C 
ATOM      8  C   UNL     1       0.727  12.300  18.903  0.00  0.00    +0.000 C 
ATOM      9  C   UNL     1       1.503  12.836  20.092  0.00  0.00    +0.000 C 
ATOM     10  O   UNL     1       0.949  12.392  21.339  0.00  0.00    +0.000 OA
ENDROOT
BRANCH   1  16
ATOM     11  C   UNL     1      -7.914  13.757  17.589  0.00  0.00    +0.000 C 
ATOM     12  N   UNL     1      -7.323  13.008  18.694  0.00  0.00    +0.000 NA
ATOM     13  C   UNL     1      -7.615  13.654  19.995  0.00  0.00    +0.000 C 
ATOM     14  C   UNL     1      -6.959  12.924  21.190  0.00  0.00    +0.000 C 
ATOM     15  N   UNL     1      -5.532  12.678  20.958  0.00  0.00    +0.000 N 
ATOM     16  C   UNL     1      -4.640  12.845  22.019  0.00  0.00    +0.000 C 
ATOM     17  O   UNL     1      -5.020  13.170  23.141  0.00  0.00    +0.000 OA
ATOM     18  C   UNL     1      -5.279  12.022  19.669  0.00  0.00    +0.000 C 
ATOM     19  C   UNL     1      -5.864  12.870  18.524  0.00  0.00    +0.000 C 
ENDBRANCH   1  16
BRANCH   8  20
ATOM     20  C   UNL     1       0.644  10.770  18.794  0.00  0.00    +0.000 C 
ATOM     21  O   UNL     1      -0.388  10.276  18.337  0.00  0.00    +0.000 OA
ATOM     22  N   UNL     1       1.731  10.049  19.260  0.00  0.00    +0.000 N 
ATOM     23  H   UNL     1       2.430  10.556  19.794  0.00  0.00    +0.000 HD
BRANCH  22  24
ATOM     24  C   UNL     1       1.861   8.643  19.285  0.00  0.00    +0.000 A 
ATOM     25  C   UNL     1       2.332   7.905  18.203  0.00  0.00    +0.000 A 
ATOM     26  C   UNL     1       2.397   6.511  18.262  0.00  0.00    +0.000 A 
ATOM     27  C   UNL     1       2.003   5.822  19.412  0.00  0.00    +0.000 A 
ATOM     28  C   UNL     1       1.558   6.561  20.515  0.00  0.00    +0.000 A 
ATOM     29  C   UNL     1       1.494   7.963  20.454  0.00  0.00    +0.000 A 
BRANCH  27  30
ATOM     30  C   UNL     1       2.079   4.372  19.460  0.00  0.00    +0.000 A 
ATOM     31  C   UNL     1       2.885   3.458  18.742  0.00  0.00    +0.000 A 
ATOM     32  N   UNL     1       2.633   2.186  19.059  0.00  0.00    +0.000 NA
ATOM     33  N   UNL     1       1.664   2.278  19.983  0.00  0.00    +0.000 N 
ATOM     34  C   UNL     1       1.305   3.563  20.266  0.00  0.00    +0.000 A 
ATOM     35  H   UNL     1       1.288   1.422  20.376  0.00  0.00    +0.000 HD
ENDBRANCH  27  30
ENDBRANCH  22  24
ENDBRANCH   8  20
TORSDOF 4
ENDMDL
MODEL 3
REMARK VINA RESULT:      -8.2      1.842      2.142
REMARK  Name = 
REMARK  5 active torsions:
REMARK  status: ('A' for Active; 'I' for Inactive)
REMARK    1  A    between atoms: C_1  and  N_2
REMARK    2  A    between atoms: C_6  and  C_8
REMARK    3  A    between atoms: C_15  and  C_16
REMARK    4  A    between atoms: N_18  and  C_19
REMARK    5  A    between atoms: C_22  and  C_23
REMARK                            x       y       z     vdW  Elec       q    Type
REMARK                         _______ _______ _______ _____ _____    ______ ____
ROOT
ATOM      1  C   UNL     1      -2.942  12.627  22.533  0.00  0.00    +0.000 A 
ATOM      2  C   UNL     1      -1.673  12.549  23.112  0.00  0.00    +0.000 A 
ATOM      3  C   UNL     1      -0.532  12.722  22.333  0.00  0.00    +0.000 A 
ATOM      4  C   UNL     1      -0.647  12.847  20.954  0.00  0.00    +0.000 A 
ATOM      5  C   UNL     1      -1.896  12.709  20.338  0.00  0.00    +0.000 A 
ATOM      6  C   UNL     1      -3.049  12.651  21.135  0.00  0.00    +0.000 A 
ATOM      7  C   UNL     1      -1.997  12.585  18.843  0.00  0.00    +0.000 C 
ATOM      8  C   UNL     1      -0.625  12.253  18.250  0.00  0.00    +0.000 C 
ATOM      9  C   UNL     1       0.386  13.210  18.856  0.00  0.00    +0.000 C 
ATOM     10  O   UNL     1       0.530  13.013  20.271  0.00  0.00    +0.000 OA
ENDROOT
BRANCH   1  16
ATOM     11  C   UNL     1      -7.786  16.867  22.879  0.00  0.00    +0.000 C 
ATOM     12  N   UNL     1      -7.266  15.518  22.683  0.00  0.00    +0.000 NA
ATOM     13  C   UNL     1      -7.083  14.822  23.978  0.00  0.00    +0.000 C 
ATOM     14  C   UNL     1      -6.478  13.407  23.820  0.00  0.00    +0.000 C 
ATOM     15  N   UNL     1      -5.277  13.421  22.980  0.00  0.00    +0.000 N 
ATOM     16  C   UNL     1      -4.192  12.619  23.344  0.00  0.00    +0.000 C 
ATOM     17  O   UNL     1      -4.227  11.891  24.333  0.00  0.00    +0.000 OA
ATOM     18  C   UNL     1      -5.497  14.102  21.698  0.00  0.00    +0.000 C 
ATOM     19  C   UNL     1      -5.988  15.541  21.946  0.00  0.00    +0.000 C 
ENDBRANCH   1  16
BRANCH   8  20
ATOM     20  C   UNL     1      -0.320  10.758  18.427  0.00  0.00    +0.000 C 
ATOM     21  O   UNL     1      -1.251   9.960  18.316  0.00  0.00    +0.000 OA
ATOM     22  N   UNL     1       0.985  10.418  18.744  0.00  0.00    +0.000 N 
ATOM     23  H   UNL     1       1.611  11.173  19.004  0.00  0.00    +0.000 HD
BRANCH  22  24
ATOM     24  C   UNL     1       1.483   9.118  18.978  0.00  0.00    +0.000 A 
ATOM     25  C   UNL     1       1.368   8.470  20.205  0.00  0.00    +0.000 A 
ATOM     26  C   UNL     1       1.921   7.202  20.399  0.00  0.00    +0.000 A 
ATOM     27  C   UNL     1       2.593   6.545  19.364  0.00  0.00    +0.000 A 
ATOM     28  C   UNL     1       2.684   7.179  18.119  0.00  0.00    +0.000 A 
ATOM     29  C   UNL     1       2.127   8.454  17.926  0.00  0.00    +0.000 A 
BRANCH  27  30
ATOM     30  C   UNL     1       3.160   5.226  19.580  0.00  0.00    +0.000 A 
ATOM     31  C   UNL     1       2.673   4.110  20.299  0.00  0.00    +0.000 A 
ATOM     32  N   UNL     1       3.516   3.074  20.282  0.00  0.00    +0.000 NA
ATOM     33  N   UNL     1       4.547   3.522  19.549  0.00  0.00    +0.000 N 
ATOM     34  C   UNL     1       4.379   4.798  19.096  0.00  0.00    +0.000 A 
ATOM     35  H   UNL     1       5.338   2.904  19.400  0.00  0.00    +0.000 HD
ENDBRANCH  27  30
ENDBRANCH  22  24
ENDBRANCH   8  20
TORSDOF 4
ENDMDL
MODEL 4
REMARK VINA RESULT:      -8.1      1.834      2.362
REMARK  Name = 
REMARK  5 active torsions:
REMARK  status: ('A' for Active; 'I' for Inactive)
REMARK    1  A    between atoms: C_1  and  N_2
REMARK    2  A    between atoms: C_6  and  C_8
REMARK    3  A    between atoms: C_15  and  C_16
REMARK    4  A    between atoms: N_18  and  C_19
REMARK    5  A    between atoms: C_22  and  C_23
REMARK                            x       y       z     vdW  Elec       q    Type
REMARK                         _______ _______ _______ _____ _____    ______ ____
ROOT
ATOM      1  C   UNL     1      -3.145  12.839  21.777  0.00  0.00    +0.000 A 
ATOM      2  C   UNL     1      -2.303  12.355  22.780  0.00  0.00    +0.000 A 
ATOM      3  C   UNL     1      -0.926  12.299  22.578  0.00  0.00    +0.000 A 
ATOM      4  C   UNL     1      -0.396  12.605  21.330  0.00  0.00    +0.000 A 
ATOM      5  C   UNL     1      -1.247  12.881  20.255  0.00  0.00    +0.000 A 
ATOM      6  C   UNL     1      -2.620  13.049  20.493  0.00  0.00    +0.000 A 
ATOM      7  C   UNL     1      -0.704  12.958  18.855  0.00  0.00    +0.000 C 
ATOM      8  C   UNL     1       0.695  12.337  18.800  0.00  0.00    +0.000 C 
ATOM      9  C   UNL     1       1.502  12.908  19.951  0.00  0.00    +0.000 C 
ATOM     10  O   UNL     1       0.968  12.522  21.226  0.00  0.00    +0.000 OA
ENDROOT
BRANCH   1  16
ATOM     11  C   UNL     1      -6.274  17.959  24.134  0.00  0.00    +0.000 C 
ATOM     12  N   UNL     1      -6.050  16.946  23.107  0.00  0.00    +0.000 NA
ATOM     13  C   UNL     1      -6.775  15.693  23.425  0.00  0.00    +0.000 C 
ATOM     14  C   UNL     1      -6.520  14.571  22.392  0.00  0.00    +0.000 C 
ATOM     15  N   UNL     1      -5.087  14.379  22.144  0.00  0.00    +0.000 N 
ATOM     16  C   UNL     1      -4.599  13.078  22.000  0.00  0.00    +0.000 C 
ATOM     17  O   UNL     1      -5.337  12.098  22.056  0.00  0.00    +0.000 OA
ATOM     18  C   UNL     1      -4.402  15.635  21.815  0.00  0.00    +0.000 C 
ATOM     19  C   UNL     1      -4.611  16.659  22.947  0.00  0.00    +0.000 C 
ENDBRANCH   1  16
BRANCH   8  20
ATOM     20  C   UNL     1       0.590  10.805  18.754  0.00  0.00    +0.000 C 
ATOM     21  O   UNL     1      -0.445  10.308  18.306  0.00  0.00    +0.000 OA
ATOM     22  N   UNL     1       1.660  10.088  19.262  0.00  0.00    +0.000 N 
ATOM     23  H   UNL     1       2.361  10.606  19.782  0.00  0.00    +0.000 HD
BRANCH  22  24
ATOM     24  C   UNL     1       1.769   8.682  19.346  0.00  0.00    +0.000 A 
ATOM     25  C   UNL     1       1.486   7.967  20.506  0.00  0.00    +0.000 A 
ATOM     26  C   UNL     1       1.655   6.581  20.552  0.00  0.00    +0.000 A 
ATOM     27  C   UNL     1       2.101   5.875  19.430  0.00  0.00    +0.000 A 
ATOM     28  C   UNL     1       2.357   6.586  18.252  0.00  0.00    +0.000 A 
ATOM     29  C   UNL     1       2.186   7.979  18.208  0.00  0.00    +0.000 A 
BRANCH  27  30
ATOM     30  C   UNL     1       2.270   4.434  19.492  0.00  0.00    +0.000 A 
ATOM     31  C   UNL     1       1.402   3.414  19.947  0.00  0.00    +0.000 A 
ATOM     32  N   UNL     1       1.945   2.197  19.863  0.00  0.00    +0.000 NA
ATOM     33  N   UNL     1       3.163   2.431  19.350  0.00  0.00    +0.000 N 
ATOM     34  C   UNL     1       3.403   3.751  19.100  0.00  0.00    +0.000 A 
ATOM     35  H   UNL     1       3.784   1.643  19.201  0.00  0.00    +0.000 HD
ENDBRANCH  27  30
ENDBRANCH  22  24
ENDBRANCH   8  20
TORSDOF 4
ENDMDL
MODEL 5
REMARK VINA RESULT:      -8.1      3.758      7.723
REMARK  Name = 
REMARK  5 active torsions:
REMARK  status: ('A' for Active; 'I' for Inactive)
REMARK    1  A    between atoms: C_1  and  N_2
REMARK    2  A    between atoms: C_6  and  C_8
REMARK    3  A    between atoms: C_15  and  C_16
REMARK    4  A    between atoms: N_18  and  C_19
REMARK    5  A    between atoms: C_22  and  C_23
REMARK                            x       y       z     vdW  Elec       q    Type
REMARK                         _______ _______ _______ _____ _____    ______ ____
ROOT
ATOM      1  C   UNL     1       3.437  14.596  19.539  0.00  0.00    +0.000 A 
ATOM      2  C   UNL     1       3.350  13.959  18.298  0.00  0.00    +0.000 A 
ATOM      3  C   UNL     1       2.236  13.185  17.981  0.00  0.00    +0.000 A 
ATOM      4  C   UNL     1       1.265  12.939  18.944  0.00  0.00    +0.000 A 
ATOM      5  C   UNL     1       1.448  13.391  20.256  0.00  0.00    +0.000 A 
ATOM      6  C   UNL     1       2.510  14.264  20.537  0.00  0.00    +0.000 A 
ATOM      7  C   UNL     1       0.541  12.916  21.356  0.00  0.00    +0.000 C 
ATOM      8  C   UNL     1      -0.240  11.682  20.897  0.00  0.00    +0.000 C 
ATOM      9  C   UNL     1      -0.818  11.982  19.526  0.00  0.00    +0.000 C 
ATOM     10  O   UNL     1       0.207  12.167  18.539  0.00  0.00    +0.000 OA
ENDROOT
BRANCH   1  16
ATOM     11  C   UNL     1       9.727  14.545  18.127  0.00  0.00    +0.000 C 
ATOM     12  N   UNL     1       8.414  15.182  18.140  0.00  0.00    +0.000 NA
ATOM     13  C   UNL     1       8.169  15.876  19.427  0.00  0.00    +0.000 C 
ATOM     14  C   UNL     1       6.764  16.518  19.506  0.00  0.00    +0.000 C 
ATOM     15  N   UNL     1       5.711  15.567  19.136  0.00  0.00    +0.000 N 
ATOM     16  C   UNL     1       4.519  15.567  19.864  0.00  0.00    +0.000 C 
ATOM     17  O   UNL     1       4.323  16.352  20.788  0.00  0.00    +0.000 OA
ATOM     18  C   UNL     1       5.976  14.910  17.849  0.00  0.00    +0.000 C 
ATOM     19  C   UNL     1       7.342  14.199  17.894  0.00  0.00    +0.000 C 
ENDBRANCH   1  16
BRANCH   8  20
ATOM     20  C   UNL     1       0.647  10.431  20.988  0.00  0.00    +0.000 C 
ATOM     21  O   UNL     1       1.317  10.269  22.009  0.00  0.00    +0.000 OA
ATOM     22  N   UNL     1       0.661   9.591  19.888  0.00  0.00    +0.000 N 
ATOM     23  H   UNL     1       0.226   9.933  19.037  0.00  0.00    +0.000 HD
BRANCH  22  24
ATOM     24  C   UNL     1       1.418   8.408  19.740  0.00  0.00    +0.000 A 
ATOM     25  C   UNL     1       2.243   8.166  18.646  0.00  0.00    +0.000 A 
ATOM     26  C   UNL     1       2.935   6.959  18.523  0.00  0.00    +0.000 A 
ATOM     27  C   UNL     1       2.826   5.967  19.503  0.00  0.00    +0.000 A 
ATOM     28  C   UNL     1       2.023   6.218  20.622  0.00  0.00    +0.000 A 
ATOM     29  C   UNL     1       1.329   7.433  20.742  0.00  0.00    +0.000 A 
BRANCH  27  30
ATOM     30  C   UNL     1       3.554   4.718  19.364  0.00  0.00    +0.000 A 
ATOM     31  C   UNL     1       3.120   3.374  19.444  0.00  0.00    +0.000 A 
ATOM     32  N   UNL     1       4.116   2.498  19.284  0.00  0.00    +0.000 NA
ATOM     33  N   UNL     1       5.192   3.277  19.098  0.00  0.00    +0.000 N 
ATOM     34  C   UNL     1       4.909   4.611  19.126  0.00  0.00    +0.000 A 
ATOM     35  H   UNL     1       6.093   2.832  18.963  0.00  0.00    +0.000 HD
ENDBRANCH  27  30
ENDBRANCH  22  24
ENDBRANCH   8  20
TORSDOF 4
ENDMDL
MODEL 6
REMARK VINA RESULT:      -8.1      4.953     11.976
REMARK  Name = 
REMARK  5 active torsions:
REMARK  status: ('A' for Active; 'I' for Inactive)
REMARK    1  A    between atoms: C_1  and  N_2
REMARK    2  A    between atoms: C_6  and  C_8
REMARK    3  A    between atoms: C_15  and  C_16
REMARK    4  A    between atoms: N_18  and  C_19
REMARK    5  A    between atoms: C_22  and  C_23
REMARK                            x       y       z     vdW  Elec       q    Type
REMARK                         _______ _______ _______ _____ _____    ______ ____
ROOT
ATOM      1  C   UNL     1       6.720   5.104  15.603  0.00  0.00    +0.000 A 
ATOM      2  C   UNL     1       7.129   6.028  16.567  0.00  0.00    +0.000 A 
ATOM      3  C   UNL     1       6.663   5.932  17.877  0.00  0.00    +0.000 A 
ATOM      4  C   UNL     1       5.691   4.993  18.199  0.00  0.00    +0.000 A 
ATOM      5  C   UNL     1       5.114   4.207  17.195  0.00  0.00    +0.000 A 
ATOM      6  C   UNL     1       5.668   4.228  15.906  0.00  0.00    +0.000 A 
ATOM      7  C   UNL     1       3.892   3.380  17.485  0.00  0.00    +0.000 C 
ATOM      8  C   UNL     1       3.245   3.841  18.794  0.00  0.00    +0.000 C 
ATOM      9  C   UNL     1       4.341   3.952  19.839  0.00  0.00    +0.000 C 
ATOM     10  O   UNL     1       5.294   4.973  19.511  0.00  0.00    +0.000 OA
ENDROOT
BRANCH   1  16
ATOM     11  C   UNL     1       5.969   0.865  10.804  0.00  0.00    +0.000 C 
ATOM     12  N   UNL     1       5.957   2.224  11.337  0.00  0.00    +0.000 NA
ATOM     13  C   UNL     1       7.311   2.824  11.302  0.00  0.00    +0.000 C 
ATOM     14  C   UNL     1       7.355   4.245  11.911  0.00  0.00    +0.000 C 
ATOM     15  N   UNL     1       6.723   4.288  13.234  0.00  0.00    +0.000 N 
ATOM     16  C   UNL     1       7.315   5.058  14.237  0.00  0.00    +0.000 C 
ATOM     17  O   UNL     1       8.335   5.713  14.036  0.00  0.00    +0.000 OA
ATOM     18  C   UNL     1       5.377   3.701  13.231  0.00  0.00    +0.000 C 
ATOM     19  C   UNL     1       5.438   2.249  12.718  0.00  0.00    +0.000 C 
ENDBRANCH   1  16
BRANCH   8  20
ATOM     20  C   UNL     1       2.418   5.113  18.555  0.00  0.00    +0.000 C 
ATOM     21  O   UNL     1       1.515   5.068  17.719  0.00  0.00    +0.000 OA
ATOM     22  N   UNL     1       2.779   6.239  19.275  0.00  0.00    +0.000 N 
ATOM     23  H   UNL     1       3.660   6.205  19.780  0.00  0.00    +0.000 HD
BRANCH  22  24
ATOM     24  C   UNL     1       2.182   7.517  19.197  0.00  0.00    +0.000 A 
ATOM     25  C   UNL     1       1.483   8.094  20.253  0.00  0.00    +0.000 A 
ATOM     26  C   UNL     1       0.870   9.340  20.109  0.00  0.00    +0.000 A 
ATOM     27  C   UNL     1       0.952  10.046  18.904  0.00  0.00    +0.000 A 
ATOM     28  C   UNL     1       1.680   9.484  17.850  0.00  0.00    +0.000 A 
ATOM     29  C   UNL     1       2.297   8.231  17.997  0.00  0.00    +0.000 A 
BRANCH  27  30
ATOM     30  C   UNL     1       0.311  11.343  18.770  0.00  0.00    +0.000 A 
ATOM     31  C   UNL     1       0.793  12.649  19.019  0.00  0.00    +0.000 A 
ATOM     32  N   UNL     1      -0.127  13.591  18.797  0.00  0.00    +0.000 NA
ATOM     33  N   UNL     1      -1.203  12.892  18.402  0.00  0.00    +0.000 N 
ATOM     34  C   UNL     1      -0.990  11.546  18.358  0.00  0.00    +0.000 A 
ATOM     35  H   UNL     1      -2.054  13.399  18.181  0.00  0.00    +0.000 HD
ENDBRANCH  27  30
ENDBRANCH  22  24
ENDBRANCH   8  20
TORSDOF 4
ENDMDL
MODEL 7
REMARK VINA RESULT:      -8.0      3.677      7.368
REMARK  Name = 
REMARK  5 active torsions:
REMARK  status: ('A' for Active; 'I' for Inactive)
REMARK    1  A    between atoms: C_1  and  N_2
REMARK    2  A    between atoms: C_6  and  C_8
REMARK    3  A    between atoms: C_15  and  C_16
REMARK    4  A    between atoms: N_18  and  C_19
REMARK    5  A    between atoms: C_22  and  C_23
REMARK                            x       y       z     vdW  Elec       q    Type
REMARK                         _______ _______ _______ _____ _____    ______ ____
ROOT
ATOM      1  C   UNL     1       2.656  14.875  19.502  0.00  0.00    +0.000 A 
ATOM      2  C   UNL     1       2.417  14.306  18.249  0.00  0.00    +0.000 A 
ATOM      3  C   UNL     1       1.352  13.428  18.065  0.00  0.00    +0.000 A 
ATOM      4  C   UNL     1       0.599  13.015  19.158  0.00  0.00    +0.000 A 
ATOM      5  C   UNL     1       0.964  13.407  20.450  0.00  0.00    +0.000 A 
ATOM      6  C   UNL     1       1.962  14.379  20.615  0.00  0.00    +0.000 A 
ATOM      7  C   UNL     1       0.321  12.766  21.649  0.00  0.00    +0.000 C 
ATOM      8  C   UNL     1      -0.396  11.478  21.234  0.00  0.00    +0.000 C 
ATOM      9  C   UNL     1      -1.237  11.789  20.009  0.00  0.00    +0.000 C 
ATOM     10  O   UNL     1      -0.428  12.150  18.880  0.00  0.00    +0.000 OA
ENDROOT
BRANCH   1  16
ATOM     11  C   UNL     1       8.942  15.075  18.084  0.00  0.00    +0.000 C 
ATOM     12  N   UNL     1       7.591  15.624  18.031  0.00  0.00    +0.000 NA
ATOM     13  C   UNL     1       7.296  16.439  19.233  0.00  0.00    +0.000 C 
ATOM     14  C   UNL     1       5.852  16.993  19.244  0.00  0.00    +0.000 C 
ATOM     15  N   UNL     1       4.865  15.940  18.986  0.00  0.00    +0.000 N 
ATOM     16  C   UNL     1       3.672  15.944  19.713  0.00  0.00    +0.000 C 
ATOM     17  O   UNL     1       3.422  16.814  20.545  0.00  0.00    +0.000 OA
ATOM     18  C   UNL     1       5.176  15.163  17.780  0.00  0.00    +0.000 C 
ATOM     19  C   UNL     1       6.586  14.552  17.899  0.00  0.00    +0.000 C 
ENDBRANCH   1  16
BRANCH   8  20
ATOM     20  C   UNL     1       0.619  10.336  21.075  0.00  0.00    +0.000 C 
ATOM     21  O   UNL     1       1.410  10.131  21.996  0.00  0.00    +0.000 OA
ATOM     22  N   UNL     1       0.596   9.640  19.877  0.00  0.00    +0.000 N 
ATOM     23  H   UNL     1       0.038  10.030  19.124  0.00  0.00    +0.000 HD
BRANCH  22  24
ATOM     24  C   UNL     1       1.449   8.578  19.504  0.00  0.00    +0.000 A 
ATOM     25  C   UNL     1       1.681   7.470  20.312  0.00  0.00    +0.000 A 
ATOM     26  C   UNL     1       2.571   6.469  19.917  0.00  0.00    +0.000 A 
ATOM     27  C   UNL     1       3.244   6.548  18.694  0.00  0.00    +0.000 A 
ATOM     28  C   UNL     1       2.990   7.646  17.862  0.00  0.00    +0.000 A 
ATOM     29  C   UNL     1       2.094   8.651  18.262  0.00  0.00    +0.000 A 
BRANCH  27  30
ATOM     30  C   UNL     1       4.164   5.499  18.295  0.00  0.00    +0.000 A 
ATOM     31  C   UNL     1       4.479   4.971  17.020  0.00  0.00    +0.000 A 
ATOM     32  N   UNL     1       5.370   3.978  17.077  0.00  0.00    +0.000 NA
ATOM     33  N   UNL     1       5.633   3.867  18.388  0.00  0.00    +0.000 N 
ATOM     34  C   UNL     1       4.947   4.759  19.158  0.00  0.00    +0.000 A 
ATOM     35  H   UNL     1       6.289   3.154  18.691  0.00  0.00    +0.000 HD
ENDBRANCH  27  30
ENDBRANCH  22  24
ENDBRANCH   8  20
TORSDOF 4
ENDMDL
MODEL 8
REMARK VINA RESULT:      -7.9      2.129      2.573
REMARK  Name = 
REMARK  5 active torsions:
REMARK  status: ('A' for Active; 'I' for Inactive)
REMARK    1  A    between atoms: C_1  and  N_2
REMARK    2  A    between atoms: C_6  and  C_8
REMARK    3  A    between atoms: C_15  and  C_16
REMARK    4  A    between atoms: N_18  and  C_19
REMARK    5  A    between atoms: C_22  and  C_23
REMARK                            x       y       z     vdW  Elec       q    Type
REMARK                         _______ _______ _______ _____ _____    ______ ____
ROOT
ATOM      1  C   UNL     1      -2.269  13.107  22.243  0.00  0.00    +0.000 A 
ATOM      2  C   UNL     1      -1.140  13.531  22.948  0.00  0.00    +0.000 A 
ATOM      3  C   UNL     1      -0.068  14.114  22.276  0.00  0.00    +0.000 A 
ATOM      4  C   UNL     1      -0.063  14.158  20.887  0.00  0.00    +0.000 A 
ATOM      5  C   UNL     1      -1.087  13.541  20.161  0.00  0.00    +0.000 A 
ATOM      6  C   UNL     1      -2.216  13.061  20.843  0.00  0.00    +0.000 A 
ATOM      7  C   UNL     1      -0.962  13.358  18.674  0.00  0.00    +0.000 C 
ATOM      8  C   UNL     1       0.492  13.567  18.241  0.00  0.00    +0.000 C 
ATOM      9  C   UNL     1       0.989  14.848  18.884  0.00  0.00    +0.000 C 
ATOM     10  O   UNL     1       1.033  14.749  20.315  0.00  0.00    +0.000 OA
ENDROOT
BRANCH   1  16
ATOM     11  C   UNL     1      -7.915  16.047  23.262  0.00  0.00    +0.000 C 
ATOM     12  N   UNL     1      -7.113  14.929  22.775  0.00  0.00    +0.000 NA
ATOM     13  C   UNL     1      -6.815  13.970  23.865  0.00  0.00    +0.000 C 
ATOM     14  C   UNL     1      -5.919  12.797  23.405  0.00  0.00    +0.000 C 
ATOM     15  N   UNL     1      -4.729  13.271  22.692  0.00  0.00    +0.000 N 
ATOM     16  C   UNL     1      -3.507  12.636  22.926  0.00  0.00    +0.000 C 
ATOM     17  O   UNL     1      -3.408  11.683  23.696  0.00  0.00    +0.000 OA
ATOM     18  C   UNL     1      -5.060  14.204  21.608  0.00  0.00    +0.000 C 
ATOM     19  C   UNL     1      -5.853  15.400  22.169  0.00  0.00    +0.000 C 
ENDBRANCH   1  16
BRANCH   8  20
ATOM     20  C   UNL     1       1.317  12.306  18.539  0.00  0.00    +0.000 C 
ATOM     21  O   UNL     1       2.536  12.428  18.667  0.00  0.00    +0.000 OA
ATOM     22  N   UNL     1       0.628  11.106  18.600  0.00  0.00    +0.000 N 
ATOM     23  H   UNL     1      -0.335  11.107  18.280  0.00  0.00    +0.000 HD
BRANCH  22  24
ATOM     24  C   UNL     1       1.182   9.827  18.831  0.00  0.00    +0.000 A 
ATOM     25  C   UNL     1       1.854   9.102  17.852  0.00  0.00    +0.000 A 
ATOM     26  C   UNL     1       2.342   7.821  18.118  0.00  0.00    +0.000 A 
ATOM     27  C   UNL     1       2.179   7.238  19.379  0.00  0.00    +0.000 A 
ATOM     28  C   UNL     1       1.531   7.976  20.377  0.00  0.00    +0.000 A 
ATOM     29  C   UNL     1       1.042   9.264  20.107  0.00  0.00    +0.000 A 
BRANCH  27  30
ATOM     30  C   UNL     1       2.694   5.906  19.642  0.00  0.00    +0.000 A 
ATOM     31  C   UNL     1       2.119   4.802  20.314  0.00  0.00    +0.000 A 
ATOM     32  N   UNL     1       2.937   3.748  20.370  0.00  0.00    +0.000 NA
ATOM     33  N   UNL     1       4.039   4.171  19.732  0.00  0.00    +0.000 N 
ATOM     34  C   UNL     1       3.941   5.450  19.268  0.00  0.00    +0.000 A 
ATOM     35  H   UNL     1       4.826   3.535  19.653  0.00  0.00    +0.000 HD
ENDBRANCH  27  30
ENDBRANCH  22  24
ENDBRANCH   8  20
TORSDOF 4
ENDMDL
MODEL 9
REMARK VINA RESULT:      -7.9      1.820      2.391
REMARK  Name = 
REMARK  5 active torsions:
REMARK  status: ('A' for Active; 'I' for Inactive)
REMARK    1  A    between atoms: C_1  and  N_2
REMARK    2  A    between atoms: C_6  and  C_8
REMARK    3  A    between atoms: C_15  and  C_16
REMARK    4  A    between atoms: N_18  and  C_19
REMARK    5  A    between atoms: C_22  and  C_23
REMARK                            x       y       z     vdW  Elec       q    Type
REMARK                         _______ _______ _______ _____ _____    ______ ____
ROOT
ATOM      1  C   UNL     1      -3.937  12.717  21.372  0.00  0.00    +0.000 A 
ATOM      2  C   UNL     1      -3.062  12.577  22.452  0.00  0.00    +0.000 A 
ATOM      3  C   UNL     1      -1.686  12.665  22.260  0.00  0.00    +0.000 A 
ATOM      4  C   UNL     1      -1.171  12.766  20.973  0.00  0.00    +0.000 A 
ATOM      5  C   UNL     1      -2.024  12.689  19.868  0.00  0.00    +0.000 A 
ATOM      6  C   UNL     1      -3.413  12.717  20.071  0.00  0.00    +0.000 A 
ATOM      7  C   UNL     1      -1.462  12.538  18.482  0.00  0.00    +0.000 C 
ATOM      8  C   UNL     1       0.008  12.113  18.556  0.00  0.00    +0.000 C 
ATOM      9  C   UNL     1       0.704  13.021  19.553  0.00  0.00    +0.000 C 
ATOM     10  O   UNL     1       0.195  12.847  20.884  0.00  0.00    +0.000 OA
ENDROOT
BRANCH   1  16
ATOM     11  C   UNL     1      -7.695  17.568  23.350  0.00  0.00    +0.000 C 
ATOM     12  N   UNL     1      -7.326  16.531  22.391  0.00  0.00    +0.000 NA
ATOM     13  C   UNL     1      -7.915  15.224  22.762  0.00  0.00    +0.000 C 
ATOM     14  C   UNL     1      -7.503  14.083  21.802  0.00  0.00    +0.000 C 
ATOM     15  N   UNL     1      -6.051  14.043  21.601  0.00  0.00    +0.000 N 
ATOM     16  C   UNL     1      -5.414  12.800  21.545  0.00  0.00    +0.000 C 
ATOM     17  O   UNL     1      -6.039  11.747  21.640  0.00  0.00    +0.000 OA
ATOM     18  C   UNL     1      -5.501  15.349  21.217  0.00  0.00    +0.000 C 
ATOM     19  C   UNL     1      -5.860  16.403  22.283  0.00  0.00    +0.000 C 
ENDBRANCH   1  16
BRANCH   8  20
ATOM     20  C   UNL     1       0.108  10.607  18.840  0.00  0.00    +0.000 C 
ATOM     21  O   UNL     1      -0.938   9.975  18.993  0.00  0.00    +0.000 OA
ATOM     22  N   UNL     1       1.382  10.073  18.945  0.00  0.00    +0.000 N 
ATOM     23  H   UNL     1       2.156  10.727  18.999  0.00  0.00    +0.000 HD
BRANCH  22  24
ATOM     24  C   UNL     1       1.711   8.729  19.227  0.00  0.00    +0.000 A 
ATOM     25  C   UNL     1       2.277   7.873  18.288  0.00  0.00    +0.000 A 
ATOM     26  C   UNL     1       2.540   6.538  18.603  0.00  0.00    +0.000 A 
ATOM     27  C   UNL     1       2.253   6.030  19.874  0.00  0.00    +0.000 A 
ATOM     28  C   UNL     1       1.713   6.895  20.832  0.00  0.00    +0.000 A 
ATOM     29  C   UNL     1       1.450   8.237  20.513  0.00  0.00    +0.000 A 
BRANCH  27  30
ATOM     30  C   UNL     1       2.535   4.640  20.188  0.00  0.00    +0.000 A 
ATOM     31  C   UNL     1       3.427   3.715  19.598  0.00  0.00    +0.000 A 
ATOM     32  N   UNL     1       3.371   2.508  20.167  0.00  0.00    +0.000 NA
ATOM     33  N   UNL     1       2.444   2.655  21.126  0.00  0.00    +0.000 N 
ATOM     34  C   UNL     1       1.921   3.913  21.187  0.00  0.00    +0.000 A 
ATOM     35  H   UNL     1       2.212   1.851  21.700  0.00  0.00    +0.000 HD
ENDBRANCH  27  30
ENDBRANCH  22  24
ENDBRANCH   8  20
TORSDOF 4
ENDMDL
