MODEL 1
REMARK VINA RESULT:      -6.4      0.000      0.000
REMARK  Name = 
REMARK  5 active torsions:
REMARK  status: ('A' for Active; 'I' for Inactive)
REMARK    1  A    between atoms: C_2  and  N_3
REMARK    2  A    between atoms: C_2  and  N_10
REMARK    3  A    between atoms: N_3  and  C_4
REMARK    4  A    between atoms: C_4  and  C_5
REMARK    5  A    between atoms: N_10  and  C_11
REMARK                            x       y       z     vdW  Elec       q    Type
REMARK                         _______ _______ _______ _____ _____    ______ ____
ROOT
ATOM      1  S   UNL     1       7.629   4.768  18.152  0.00  0.00    +0.000 S 
ATOM      2  C   UNL     1       5.981   4.890  17.920  0.00  0.00    +0.000 C 
ENDROOT
BRANCH   2   3
ATOM      3  N   UNL     1       5.458   6.077  17.524  0.00  0.00    +0.000 N 
ATOM      4  H   UNL     1       5.804   6.856  18.072  0.00  0.00    +0.000 HD
BRANCH   3   5
ATOM      5  C   UNL     1       5.069   6.448  16.169  0.00  0.00    +0.000 C 
BRANCH   5   6
ATOM      6  C   UNL     1       5.655   5.481  15.207  0.00  0.00    +0.000 A 
ATOM      7  C   UNL     1       5.160   4.357  14.580  0.00  0.00    +0.000 A 
ATOM      8  C   UNL     1       6.191   3.892  13.728  0.00  0.00    +0.000 A 
ATOM      9  C   UNL     1       7.248   4.755  13.900  0.00  0.00    +0.000 A 
ATOM     10  O   UNL     1       6.933   5.722  14.800  0.00  0.00    +0.000 OA
ENDBRANCH   5   6
ENDBRANCH   3   5
ENDBRANCH   2   3
BRANCH   2  11
ATOM     11  N   UNL     1       5.203   3.787  18.040  0.00  0.00    +0.000 N 
ATOM     12  H   UNL     1       5.712   2.910  18.006  0.00  0.00    +0.000 HD
BRANCH  11  13
ATOM     13  C   UNL     1       3.855   3.701  18.440  0.00  0.00    +0.000 A 
ATOM     14  C   UNL     1       2.796   3.850  17.538  0.00  0.00    +0.000 A 
ATOM     15  C   UNL     1       1.476   3.707  17.972  0.00  0.00    +0.000 A 
ATOM     16  C   UNL     1       1.214   3.413  19.308  0.00  0.00    +0.000 A 
ATOM     17  C   UNL     1       2.270   3.289  20.209  0.00  0.00    +0.000 A 
ATOM     18 CL   UNL     1       1.947   2.890  21.851  0.00  0.00    +0.000 Cl
ATOM     19  C   UNL     1       3.590   3.457  19.787  0.00  0.00    +0.000 A 
ENDBRANCH  11  13
ENDBRANCH   2  11
TORSDOF 5
ENDMDL
MODEL 2
REMARK VINA RESULT:      -6.4      1.616      1.677
REMARK  Name = 
REMARK  5 active torsions:
REMARK  status: ('A' for Active; 'I' for Inactive)
REMARK    1  A    between atoms: C_2  and  N_3
REMARK    2  A    between atoms: C_2  and  N_10
REMARK    3  A    between atoms: N_3  and  C_4
REMARK    4  A    between atoms: C_4  and  C_5
REMARK    5  A    between atoms: N_10  and  C_11
REMARK                            x       y       z     vdW  Elec       q    Type
REMARK                         _______ _______ _______ _____ _____    ______ ____
ROOT
ATOM      1  S   UNL     1       3.541   7.312  17.737  0.00  0.00    +0.000 S 
ATOM      2  C   UNL     1       4.577   6.044  17.417  0.00  0.00    +0.000 C 
ENDROOT
BRANCH   2   3
ATOM      3  N   UNL     1       5.414   6.130  16.354  0.00  0.00    +0.000 N 
ATOM      4  H   UNL     1       5.393   7.043  15.915  0.00  0.00    +0.000 HD
BRANCH   3   5
ATOM      5  C   UNL     1       6.685   5.435  16.190  0.00  0.00    +0.000 C 
BRANCH   5   6
ATOM      6  C   UNL     1       6.784   4.909  14.806  0.00  0.00    +0.000 A 
ATOM      7  C   UNL     1       6.086   3.941  14.114  0.00  0.00    +0.000 A 
ATOM      8  C   UNL     1       6.614   3.936  12.800  0.00  0.00    +0.000 A 
ATOM      9  C   UNL     1       7.603   4.891  12.781  0.00  0.00    +0.000 A 
ATOM     10  O   UNL     1       7.716   5.485  13.997  0.00  0.00    +0.000 OA
ENDBRANCH   5   6
ENDBRANCH   3   5
ENDBRANCH   2   3
BRANCH   2  11
ATOM     11  N   UNL     1       4.632   4.992  18.269  0.00  0.00    +0.000 N 
ATOM     12  H   UNL     1       5.400   5.028  18.931  0.00  0.00    +0.000 HD
BRANCH  11  13
ATOM     13  C   UNL     1       3.653   4.009  18.518  0.00  0.00    +0.000 A 
ATOM     14  C   UNL     1       3.246   3.095  17.539  0.00  0.00    +0.000 A 
ATOM     15  C   UNL     1       2.309   2.107  17.845  0.00  0.00    +0.000 A 
ATOM     16  C   UNL     1       1.779   2.028  19.131  0.00  0.00    +0.000 A 
ATOM     17  C   UNL     1       2.169   2.955  20.097  0.00  0.00    +0.000 A 
ATOM     18 CL   UNL     1       1.542   2.835  21.695  0.00  0.00    +0.000 Cl
ATOM     19  C   UNL     1       3.085   3.961  19.790  0.00  0.00    +0.000 A 
ENDBRANCH  11  13
ENDBRANCH   2  11
TORSDOF 5
ENDMDL
MODEL 3
REMARK VINA RESULT:      -6.4      3.603      5.741
REMARK  Name = 
REMARK  5 active torsions:
REMARK  status: ('A' for Active; 'I' for Inactive)
REMARK    1  A    between atoms: C_2  and  N_3
REMARK    2  A    between atoms: C_2  and  N_10
REMARK    3  A    between atoms: N_3  and  C_4
REMARK    4  A    between atoms: C_4  and  C_5
REMARK    5  A    between atoms: N_10  and  C_11
REMARK                            x       y       z     vdW  Elec       q    Type
REMARK                         _______ _______ _______ _____ _____    ______ ____
ROOT
ATOM      1  S   UNL     1       2.173   8.072  18.247  0.00  0.00    +0.000 S 
ATOM      2  C   UNL     1       2.749   6.580  18.724  0.00  0.00    +0.000 C 
ENDROOT
BRANCH   2   3
ATOM      3  N   UNL     1       2.724   6.256  20.041  0.00  0.00    +0.000 N 
ATOM      4  H   UNL     1       3.042   7.013  20.634  0.00  0.00    +0.000 HD
BRANCH   3   5
ATOM      5  C   UNL     1       1.778   5.361  20.698  0.00  0.00    +0.000 C 
BRANCH   5   6
ATOM      6  C   UNL     1       1.872   4.012  20.086  0.00  0.00    +0.000 A 
ATOM      7  C   UNL     1       0.942   3.172  19.509  0.00  0.00    +0.000 A 
ATOM      8  C   UNL     1       1.660   2.039  19.056  0.00  0.00    +0.000 A 
ATOM      9  C   UNL     1       2.975   2.258  19.395  0.00  0.00    +0.000 A 
ATOM     10  O   UNL     1       3.113   3.453  20.025  0.00  0.00    +0.000 OA
ENDBRANCH   5   6
ENDBRANCH   3   5
ENDBRANCH   2   3
BRANCH   2  11
ATOM     11  N   UNL     1       3.147   5.684  17.789  0.00  0.00    +0.000 N 
ATOM     12  H   UNL     1       2.389   5.264  17.262  0.00  0.00    +0.000 HD
BRANCH  11  13
ATOM     13  C   UNL     1       4.444   5.446  17.295  0.00  0.00    +0.000 A 
ATOM     14  C   UNL     1       4.770   4.294  16.570  0.00  0.00    +0.000 A 
ATOM     15  C   UNL     1       6.057   4.124  16.057  0.00  0.00    +0.000 A 
ATOM     16  C   UNL     1       7.021   5.107  16.266  0.00  0.00    +0.000 A 
ATOM     17  C   UNL     1       6.702   6.243  17.009  0.00  0.00    +0.000 A 
ATOM     18 CL   UNL     1       7.882   7.474  17.236  0.00  0.00    +0.000 Cl
ATOM     19  C   UNL     1       5.424   6.406  17.546  0.00  0.00    +0.000 A 
ENDBRANCH  11  13
ENDBRANCH   2  11
TORSDOF 5
ENDMDL
MODEL 4
REMARK VINA RESULT:      -6.4      1.646      2.081
REMARK  Name = 
REMARK  5 active torsions:
REMARK  status: ('A' for Active; 'I' for Inactive)
REMARK    1  A    between atoms: C_2  and  N_3
REMARK    2  A    between atoms: C_2  and  N_10
REMARK    3  A    between atoms: N_3  and  C_4
REMARK    4  A    between atoms: C_4  and  C_5
REMARK    5  A    between atoms: N_10  and  C_11
REMARK                            x       y       z     vdW  Elec       q    Type
REMARK                         _______ _______ _______ _____ _____    ______ ____
ROOT
ATOM      1  S   UNL     1       6.337   5.232  18.886  0.00  0.00    +0.000 S 
ATOM      2  C   UNL     1       5.411   5.427  17.512  0.00  0.00    +0.000 C 
ENDROOT
BRANCH   2   3
ATOM      3  N   UNL     1       5.958   5.140  16.304  0.00  0.00    +0.000 N 
ATOM      4  H   UNL     1       6.960   5.287  16.286  0.00  0.00    +0.000 HD
BRANCH   3   5
ATOM      5  C   UNL     1       5.503   4.122  15.364  0.00  0.00    +0.000 C 
BRANCH   5   6
ATOM      6  C   UNL     1       6.272   4.240  14.101  0.00  0.00    +0.000 A 
ATOM      7  C   UNL     1       6.218   3.568  12.898  0.00  0.00    +0.000 A 
ATOM      8  C   UNL     1       7.178   4.183  12.058  0.00  0.00    +0.000 A 
ATOM      9  C   UNL     1       7.760   5.179  12.806  0.00  0.00    +0.000 A 
ATOM     10  O   UNL     1       7.218   5.220  14.050  0.00  0.00    +0.000 OA
ENDBRANCH   5   6
ENDBRANCH   3   5
ENDBRANCH   2   3
BRANCH   2  11
ATOM     11  N   UNL     1       4.108   5.780  17.625  0.00  0.00    +0.000 N 
ATOM     12  H   UNL     1       3.750   6.319  16.844  0.00  0.00    +0.000 HD
BRANCH  11  13
ATOM     13  C   UNL     1       3.144   5.304  18.536  0.00  0.00    +0.000 A 
ATOM     14  C   UNL     1       2.801   6.005  19.697  0.00  0.00    +0.000 A 
ATOM     15  C   UNL     1       1.804   5.519  20.545  0.00  0.00    +0.000 A 
ATOM     16  C   UNL     1       1.147   4.331  20.233  0.00  0.00    +0.000 A 
ATOM     17  C   UNL     1       1.508   3.621  19.089  0.00  0.00    +0.000 A 
ATOM     18 CL   UNL     1       0.672   2.173  18.685  0.00  0.00    +0.000 Cl
ATOM     19  C   UNL     1       2.521   4.088  18.251  0.00  0.00    +0.000 A 
ENDBRANCH  11  13
ENDBRANCH   2  11
TORSDOF 5
ENDMDL
MODEL 5
REMARK VINA RESULT:      -6.3      2.330      2.600
REMARK  Name = 
REMARK  5 active torsions:
REMARK  status: ('A' for Active; 'I' for Inactive)
REMARK    1  A    between atoms: C_2  and  N_3
REMARK    2  A    between atoms: C_2  and  N_10
REMARK    3  A    between atoms: N_3  and  C_4
REMARK    4  A    between atoms: C_4  and  C_5
REMARK    5  A    between atoms: N_10  and  C_11
REMARK                            x       y       z     vdW  Elec       q    Type
REMARK                         _______ _______ _______ _____ _____    ______ ____
ROOT
ATOM      1  S   UNL     1       2.358   8.075  17.992  0.00  0.00    +0.000 S 
ATOM      2  C   UNL     1       3.362   6.846  18.510  0.00  0.00    +0.000 C 
ENDROOT
BRANCH   2   3
ATOM      3  N   UNL     1       4.505   6.596  17.824  0.00  0.00    +0.000 N 
ATOM      4  H   UNL     1       5.010   5.797  18.188  0.00  0.00    +0.000 HD
BRANCH   3   5
ATOM      5  C   UNL     1       4.735   6.832  16.404  0.00  0.00    +0.000 C 
BRANCH   5   6
ATOM      6  C   UNL     1       5.400   5.646  15.810  0.00  0.00    +0.000 A 
ATOM      7  C   UNL     1       5.224   4.288  15.971  0.00  0.00    +0.000 A 
ATOM      8  C   UNL     1       6.131   3.663  15.081  0.00  0.00    +0.000 A 
ATOM      9  C   UNL     1       6.805   4.679  14.445  0.00  0.00    +0.000 A 
ATOM     10  O   UNL     1       6.371   5.887  14.884  0.00  0.00    +0.000 OA
ENDBRANCH   5   6
ENDBRANCH   3   5
ENDBRANCH   2   3
BRANCH   2  11
ATOM     11  N   UNL     1       3.070   6.180  19.653  0.00  0.00    +0.000 N 
ATOM     12  H   UNL     1       3.025   6.765  20.480  0.00  0.00    +0.000 HD
BRANCH  11  13
ATOM     13  C   UNL     1       2.592   4.863  19.806  0.00  0.00    +0.000 A 
ATOM     14  C   UNL     1       1.444   4.565  20.548  0.00  0.00    +0.000 A 
ATOM     15  C   UNL     1       0.980   3.251  20.631  0.00  0.00    +0.000 A 
ATOM     16  C   UNL     1       1.662   2.232  19.970  0.00  0.00    +0.000 A 
ATOM     17  C   UNL     1       2.820   2.528  19.251  0.00  0.00    +0.000 A 
ATOM     18 CL   UNL     1       3.642   1.275  18.406  0.00  0.00    +0.000 Cl
ATOM     19  C   UNL     1       3.303   3.835  19.186  0.00  0.00    +0.000 A 
ENDBRANCH  11  13
ENDBRANCH   2  11
TORSDOF 5
ENDMDL
MODEL 6
REMARK VINA RESULT:      -6.3      3.305      5.286
REMARK  Name = 
REMARK  5 active torsions:
REMARK  status: ('A' for Active; 'I' for Inactive)
REMARK    1  A    between atoms: C_2  and  N_3
REMARK    2  A    between atoms: C_2  and  N_10
REMARK    3  A    between atoms: N_3  and  C_4
REMARK    4  A    between atoms: C_4  and  C_5
REMARK    5  A    between atoms: N_10  and  C_11
REMARK                            x       y       z     vdW  Elec       q    Type
REMARK                         _______ _______ _______ _____ _____    ______ ____
ROOT
ATOM      1  S   UNL     1       3.787   1.310  18.586  0.00  0.00    +0.000 S 
ATOM      2  C   UNL     1       4.185   2.610  19.553  0.00  0.00    +0.000 C 
ENDROOT
BRANCH   2   3
ATOM      3  N   UNL     1       3.401   2.899  20.621  0.00  0.00    +0.000 N 
ATOM      4  H   UNL     1       3.933   3.002  21.477  0.00  0.00    +0.000 HD
BRANCH   3   5
ATOM      5  C   UNL     1       2.165   3.672  20.608  0.00  0.00    +0.000 C 
BRANCH   5   6
ATOM      6  C   UNL     1       2.280   4.766  19.613  0.00  0.00    +0.000 A 
ATOM      7  C   UNL     1       1.719   4.973  18.370  0.00  0.00    +0.000 A 
ATOM      8  C   UNL     1       2.173   6.241  17.936  0.00  0.00    +0.000 A 
ATOM      9  C   UNL     1       2.988   6.719  18.935  0.00  0.00    +0.000 A 
ATOM     10  O   UNL     1       3.061   5.828  19.957  0.00  0.00    +0.000 OA
ENDBRANCH   5   6
ENDBRANCH   3   5
ENDBRANCH   2   3
BRANCH   2  11
ATOM     11  N   UNL     1       5.327   3.298  19.315  0.00  0.00    +0.000 N 
ATOM     12  H   UNL     1       6.128   2.980  19.849  0.00  0.00    +0.000 HD
BRANCH  11  13
ATOM     13  C   UNL     1       5.604   4.209  18.276  0.00  0.00    +0.000 A 
ATOM     14  C   UNL     1       5.009   4.107  17.013  0.00  0.00    +0.000 A 
ATOM     15  C   UNL     1       5.276   5.061  16.030  0.00  0.00    +0.000 A 
ATOM     16  C   UNL     1       6.137   6.120  16.307  0.00  0.00    +0.000 A 
ATOM     17  C   UNL     1       6.748   6.206  17.557  0.00  0.00    +0.000 A 
ATOM     18 CL   UNL     1       7.783   7.533  17.912  0.00  0.00    +0.000 Cl
ATOM     19  C   UNL     1       6.505   5.241  18.536  0.00  0.00    +0.000 A 
ENDBRANCH  11  13
ENDBRANCH   2  11
TORSDOF 5
ENDMDL
MODEL 7
REMARK VINA RESULT:      -6.3      3.107      5.198
REMARK  Name = 
REMARK  5 active torsions:
REMARK  status: ('A' for Active; 'I' for Inactive)
REMARK    1  A    between atoms: C_2  and  N_3
REMARK    2  A    between atoms: C_2  and  N_10
REMARK    3  A    between atoms: N_3  and  C_4
REMARK    4  A    between atoms: C_4  and  C_5
REMARK    5  A    between atoms: N_10  and  C_11
REMARK                            x       y       z     vdW  Elec       q    Type
REMARK                         _______ _______ _______ _____ _____    ______ ____
ROOT
ATOM      1  S   UNL     1       5.692   4.069  15.986  0.00  0.00    +0.000 S 
ATOM      2  C   UNL     1       4.904   3.936  17.451  0.00  0.00    +0.000 C 
ENDROOT
BRANCH   2   3
ATOM      3  N   UNL     1       4.329   2.754  17.784  0.00  0.00    +0.000 N 
ATOM      4  H   UNL     1       4.898   2.212  18.424  0.00  0.00    +0.000 HD
BRANCH   3   5
ATOM      5  C   UNL     1       2.901   2.486  17.904  0.00  0.00    +0.000 C 
BRANCH   5   6
ATOM      6  C   UNL     1       2.489   2.644  19.321  0.00  0.00    +0.000 A 
ATOM      7  C   UNL     1       3.173   2.571  20.516  0.00  0.00    +0.000 A 
ATOM      8  C   UNL     1       2.233   2.873  21.530  0.00  0.00    +0.000 A 
ATOM      9  C   UNL     1       1.038   3.100  20.889  0.00  0.00    +0.000 A 
ATOM     10  O   UNL     1       1.182   2.959  19.546  0.00  0.00    +0.000 OA
ENDBRANCH   5   6
ENDBRANCH   3   5
ENDBRANCH   2   3
BRANCH   2  11
ATOM     11  N   UNL     1       4.927   4.975  18.321  0.00  0.00    +0.000 N 
ATOM     12  H   UNL     1       5.799   5.078  18.829  0.00  0.00    +0.000 HD
BRANCH  11  13
ATOM     13  C   UNL     1       4.021   6.048  18.434  0.00  0.00    +0.000 A 
ATOM     14  C   UNL     1       3.898   7.030  17.445  0.00  0.00    +0.000 A 
ATOM     15  C   UNL     1       2.951   8.048  17.577  0.00  0.00    +0.000 A 
ATOM     16  C   UNL     1       2.124   8.084  18.697  0.00  0.00    +0.000 A 
ATOM     17  C   UNL     1       2.265   7.118  19.692  0.00  0.00    +0.000 A 
ATOM     18 CL   UNL     1       1.219   7.142  21.058  0.00  0.00    +0.000 Cl
ATOM     19  C   UNL     1       3.227   6.114  19.579  0.00  0.00    +0.000 A 
ENDBRANCH  11  13
ENDBRANCH   2  11
TORSDOF 5
ENDMDL
MODEL 8
REMARK VINA RESULT:      -6.3      3.842      5.150
REMARK  Name = 
REMARK  5 active torsions:
REMARK  status: ('A' for Active; 'I' for Inactive)
REMARK    1  A    between atoms: C_2  and  N_3
REMARK    2  A    between atoms: C_2  and  N_10
REMARK    3  A    between atoms: N_3  and  C_4
REMARK    4  A    between atoms: C_4  and  C_5
REMARK    5  A    between atoms: N_10  and  C_11
REMARK                            x       y       z     vdW  Elec       q    Type
REMARK                         _______ _______ _______ _____ _____    ______ ____
ROOT
ATOM      1  S   UNL     1       2.272   3.160  21.941  0.00  0.00    +0.000 S 
ATOM      2  C   UNL     1       1.716   4.195  20.757  0.00  0.00    +0.000 C 
ENDROOT
BRANCH   2   3
ATOM      3  N   UNL     1       0.613   3.851  20.046  0.00  0.00    +0.000 N 
ATOM      4  H   UNL     1       0.040   4.651  19.806  0.00  0.00    +0.000 HD
BRANCH   3   5
ATOM      5  C   UNL     1       0.498   2.747  19.100  0.00  0.00    +0.000 C 
BRANCH   5   6
ATOM      6  C   UNL     1       1.779   2.595  18.365  0.00  0.00    +0.000 A 
ATOM      7  C   UNL     1       2.341   3.270  17.301  0.00  0.00    +0.000 A 
ATOM      8  C   UNL     1       3.615   2.688  17.092  0.00  0.00    +0.000 A 
ATOM      9  C   UNL     1       3.740   1.693  18.033  0.00  0.00    +0.000 A 
ATOM     10  O   UNL     1       2.628   1.627  18.809  0.00  0.00    +0.000 OA
ENDBRANCH   5   6
ENDBRANCH   3   5
ENDBRANCH   2   3
BRANCH   2  11
ATOM     11  N   UNL     1       2.314   5.398  20.583  0.00  0.00    +0.000 N 
ATOM     12  H   UNL     1       2.295   5.998  21.401  0.00  0.00    +0.000 HD
BRANCH  11  13
ATOM     13  C   UNL     1       3.149   5.821  19.530  0.00  0.00    +0.000 A 
ATOM     14  C   UNL     1       2.738   6.764  18.581  0.00  0.00    +0.000 A 
ATOM     15  C   UNL     1       3.618   7.190  17.584  0.00  0.00    +0.000 A 
ATOM     16  C   UNL     1       4.911   6.675  17.536  0.00  0.00    +0.000 A 
ATOM     17  C   UNL     1       5.311   5.718  18.468  0.00  0.00    +0.000 A 
ATOM     18 CL   UNL     1       6.919   5.110  18.429  0.00  0.00    +0.000 Cl
ATOM     19  C   UNL     1       4.428   5.269  19.450  0.00  0.00    +0.000 A 
ENDBRANCH  11  13
ENDBRANCH   2  11
TORSDOF 5
ENDMDL
MODEL 9
REMARK VINA RESULT:      -6.3      1.030      1.073
REMARK  Name = 
REMARK  5 active torsions:
REMARK  status: ('A' for Active; 'I' for Inactive)
REMARK    1  A    between atoms: C_2  and  N_3
REMARK    2  A    between atoms: C_2  and  N_10
REMARK    3  A    between atoms: N_3  and  C_4
REMARK    4  A    between atoms: C_4  and  C_5
REMARK    5  A    between atoms: N_10  and  C_11
REMARK                            x       y       z     vdW  Elec       q    Type
REMARK                         _______ _______ _______ _____ _____    ______ ____
ROOT
ATOM      1  S   UNL     1       7.579   5.602  18.804  0.00  0.00    +0.000 S 
ATOM      2  C   UNL     1       5.979   5.232  18.505  0.00  0.00    +0.000 C 
ENDROOT
BRANCH   2   3
ATOM      3  N   UNL     1       5.150   6.209  18.060  0.00  0.00    +0.000 N 
ATOM      4  H   UNL     1       5.138   7.017  18.671  0.00  0.00    +0.000 HD
BRANCH   3   5
ATOM      5  C   UNL     1       4.851   6.528  16.669  0.00  0.00    +0.000 C 
BRANCH   5   6
ATOM      6  C   UNL     1       5.565   5.576  15.781  0.00  0.00    +0.000 A 
ATOM      7  C   UNL     1       5.201   4.385  15.190  0.00  0.00    +0.000 A 
ATOM      8  C   UNL     1       6.307   3.977  14.406  0.00  0.00    +0.000 A 
ATOM      9  C   UNL     1       7.275   4.940  14.580  0.00  0.00    +0.000 A 
ATOM     10  O   UNL     1       6.834   5.913  15.417  0.00  0.00    +0.000 OA
ENDBRANCH   5   6
ENDBRANCH   3   5
ENDBRANCH   2   3
BRANCH   2  11
ATOM     11  N   UNL     1       5.554   3.952  18.622  0.00  0.00    +0.000 N 
ATOM     12  H   UNL     1       6.268   3.298  18.924  0.00  0.00    +0.000 HD
BRANCH  11  13
ATOM     13  C   UNL     1       4.233   3.460  18.620  0.00  0.00    +0.000 A 
ATOM     14  C   UNL     1       3.833   2.393  17.807  0.00  0.00    +0.000 A 
ATOM     15  C   UNL     1       2.526   1.908  17.875  0.00  0.00    +0.000 A 
ATOM     16  C   UNL     1       1.617   2.486  18.758  0.00  0.00    +0.000 A 
ATOM     17  C   UNL     1       2.011   3.564  19.549  0.00  0.00    +0.000 A 
ATOM     18 CL   UNL     1       0.899   4.255  20.665  0.00  0.00    +0.000 Cl
ATOM     19  C   UNL     1       3.308   4.071  19.467  0.00  0.00    +0.000 A 
ENDBRANCH  11  13
ENDBRANCH   2  11
TORSDOF 5
ENDMDL
