MODEL 1
REMARK VINA RESULT:      -8.9      0.000      0.000
REMARK  Name = 
REMARK  6 active torsions:
REMARK  status: ('A' for Active; 'I' for Inactive)
REMARK    1  A    between atoms: C_1  and  C_2
REMARK    2  A    between atoms: C_10  and  O_11
REMARK    3  A    between atoms: O_11  and  C_12
REMARK    4  A    between atoms: C_16  and  C_17
REMARK    5  A    between atoms: C_21  and  C_22
REMARK    6  A    between atoms: C_26  and  C_27
REMARK                            x       y       z     vdW  Elec       q    Type
REMARK                         _______ _______ _______ _____ _____    ______ ____
ROOT
ATOM      1  C   UNL     1       0.920  10.226  18.310  0.00  0.00    +0.000 C 
ATOM      2  O   UNL     1      -0.376   9.896  17.828  0.00  0.00    +0.000 OA
ATOM      3  C   UNL     1      -1.442  10.337  18.672  0.00  0.00    +0.000 C 
ATOM      4  O   UNL     1      -2.669   9.894  18.080  0.00  0.00    +0.000 OA
ATOM      5  C   UNL     1      -3.188  10.895  17.203  0.00  0.00    +0.000 C 
ATOM      6  C   UNL     1      -3.839  10.183  16.019  0.00  0.00    +0.000 C 
ATOM      7  C   UNL     1      -4.232  11.745  17.954  0.00  0.00    +0.000 C 
ATOM      8  C   UNL     1      -3.967  11.835  19.463  0.00  0.00    +0.000 C 
ATOM      9  C   UNL     1      -2.574  12.372  19.867  0.00  0.00    +0.000 C 
ATOM     10  C   UNL     1      -2.291  12.102  21.368  0.00  0.00    +0.000 C 
ATOM     11  C   UNL     1      -3.341  12.739  22.287  0.00  0.00    +0.000 C 
ATOM     12  C   UNL     1      -0.911  12.634  21.767  0.00  0.00    +0.000 C 
ATOM     13  C   UNL     1       0.188  12.030  20.905  0.00  0.00    +0.000 C 
ATOM     14  C   UNL     1      -0.032  12.336  19.416  0.00  0.00    +0.000 C 
ATOM     15  C   UNL     1       1.057  11.751  18.476  0.00  0.00    +0.000 C 
ATOM     16  C   UNL     1       2.479  12.149  18.877  0.00  0.00    +0.000 C 
ATOM     17  C   UNL     1      -1.430  11.879  18.926  0.00  0.00    +0.000 C 
ATOM     18  O   UNL     1      -1.663  12.619  17.692  0.00  0.00    +0.000 OA
ATOM     19  O   UNL     1      -2.139  11.704  16.656  0.00  0.00    +0.000 OA
ENDROOT
BRANCH   1  20
ATOM     20  O   UNL     1       1.241   9.568  19.539  0.00  0.00    +0.000 OA
BRANCH  20  30
ATOM     21  C   UNL     1       4.377   4.195  17.583  0.00  0.00    +0.000 C 
ATOM     22  C   UNL     1       3.567   4.453  18.827  0.00  0.00    +0.000 A 
ATOM     23  C   UNL     1       3.309   3.529  19.773  0.00  0.00    +0.000 A 
ATOM     24 CL   UNL     1       3.871   1.890  19.643  0.00  0.00    +0.000 Cl
ATOM     25  C   UNL     1       2.523   3.819  21.004  0.00  0.00    +0.000 A 
ATOM     26  O   UNL     1       2.253   2.966  21.844  0.00  0.00    +0.000 OA
ATOM     27  O   UNL     1       2.107   5.129  21.175  0.00  0.00    +0.000 OA
ATOM     28  C   UNL     1       2.301   6.096  20.175  0.00  0.00    +0.000 A 
ATOM     29  C   UNL     1       1.719   7.342  20.415  0.00  0.00    +0.000 A 
ATOM     30  C   UNL     1       1.810   8.332  19.450  0.00  0.00    +0.000 A 
ATOM     31  C   UNL     1       2.490   8.065  18.261  0.00  0.00    +0.000 A 
ATOM     32  C   UNL     1       3.101   6.823  18.050  0.00  0.00    +0.000 A 
ATOM     33  C   UNL     1       3.003   5.804  19.005  0.00  0.00    +0.000 A 
ENDBRANCH  20  30
ENDBRANCH   1  20
TORSDOF 2
ENDMDL
MODEL 2
REMARK VINA RESULT:      -8.9      1.156      1.774
REMARK  Name = 
REMARK  6 active torsions:
REMARK  status: ('A' for Active; 'I' for Inactive)
REMARK    1  A    between atoms: C_1  and  C_2
REMARK    2  A    between atoms: C_10  and  O_11
REMARK    3  A    between atoms: O_11  and  C_12
REMARK    4  A    between atoms: C_16  and  C_17
REMARK    5  A    between atoms: C_21  and  C_22
REMARK    6  A    between atoms: C_26  and  C_27
REMARK                            x       y       z     vdW  Elec       q    Type
REMARK                         _______ _______ _______ _____ _____    ______ ____
ROOT
ATOM      1  C   UNL     1       1.107  10.412  18.437  0.00  0.00    +0.000 C 
ATOM      2  O   UNL     1      -0.149   9.975  17.934  0.00  0.00    +0.000 OA
ATOM      3  C   UNL     1      -1.268  10.387  18.721  0.00  0.00    +0.000 C 
ATOM      4  O   UNL     1      -2.444   9.837  18.114  0.00  0.00    +0.000 OA
ATOM      5  C   UNL     1      -2.995  10.757  17.171  0.00  0.00    +0.000 C 
ATOM      6  C   UNL     1      -3.559   9.947  16.006  0.00  0.00    +0.000 C 
ATOM      7  C   UNL     1      -4.115  11.574  17.844  0.00  0.00    +0.000 C 
ATOM      8  C   UNL     1      -3.909  11.755  19.354  0.00  0.00    +0.000 C 
ATOM      9  C   UNL     1      -2.567  12.402  19.772  0.00  0.00    +0.000 C 
ATOM     10  C   UNL     1      -2.318  12.225  21.293  0.00  0.00    +0.000 C 
ATOM     11  C   UNL     1      -3.437  12.838  22.146  0.00  0.00    +0.000 C 
ATOM     12  C   UNL     1      -0.989  12.864  21.707  0.00  0.00    +0.000 C 
ATOM     13  C   UNL     1       0.174  12.291  20.912  0.00  0.00    +0.000 C 
ATOM     14  C   UNL     1      -0.014  12.508  19.403  0.00  0.00    +0.000 C 
ATOM     15  C   UNL     1       1.142  11.948  18.528  0.00  0.00    +0.000 C 
ATOM     16  C   UNL     1       2.522  12.457  18.953  0.00  0.00    +0.000 C 
ATOM     17  C   UNL     1      -1.363  11.937  18.894  0.00  0.00    +0.000 C 
ATOM     18  O   UNL     1      -1.599  12.598  17.617  0.00  0.00    +0.000 OA
ATOM     19  O   UNL     1      -1.981  11.604  16.615  0.00  0.00    +0.000 OA
ENDROOT
BRANCH   1  20
ATOM     20  O   UNL     1       1.427   9.837  19.708  0.00  0.00    +0.000 OA
BRANCH  20  30
ATOM     21  C   UNL     1       2.026   3.564  21.385  0.00  0.00    +0.000 C 
ATOM     22  C   UNL     1       2.527   4.301  20.170  0.00  0.00    +0.000 A 
ATOM     23  C   UNL     1       3.271   3.743  19.194  0.00  0.00    +0.000 A 
ATOM     24 CL   UNL     1       3.772   2.080  19.249  0.00  0.00    +0.000 Cl
ATOM     25  C   UNL     1       3.734   4.491  17.993  0.00  0.00    +0.000 A 
ATOM     26  O   UNL     1       4.447   3.994  17.127  0.00  0.00    +0.000 OA
ATOM     27  O   UNL     1       3.306   5.804  17.882  0.00  0.00    +0.000 OA
ATOM     28  C   UNL     1       2.589   6.431  18.915  0.00  0.00    +0.000 A 
ATOM     29  C   UNL     1       2.334   7.792  18.736  0.00  0.00    +0.000 A 
ATOM     30  C   UNL     1       1.686   8.499  19.736  0.00  0.00    +0.000 A 
ATOM     31  C   UNL     1       1.296   7.834  20.898  0.00  0.00    +0.000 A 
ATOM     32  C   UNL     1       1.526   6.460  21.048  0.00  0.00    +0.000 A 
ATOM     33  C   UNL     1       2.196   5.734  20.056  0.00  0.00    +0.000 A 
ENDBRANCH  20  30
ENDBRANCH   1  20
TORSDOF 2
ENDMDL
MODEL 3
REMARK VINA RESULT:      -8.8      2.024      3.409
REMARK  Name = 
REMARK  6 active torsions:
REMARK  status: ('A' for Active; 'I' for Inactive)
REMARK    1  A    between atoms: C_1  and  C_2
REMARK    2  A    between atoms: C_10  and  O_11
REMARK    3  A    between atoms: O_11  and  C_12
REMARK    4  A    between atoms: C_16  and  C_17
REMARK    5  A    between atoms: C_21  and  C_22
REMARK    6  A    between atoms: C_26  and  C_27
REMARK                            x       y       z     vdW  Elec       q    Type
REMARK                         _______ _______ _______ _____ _____    ______ ____
ROOT
ATOM      1  C   UNL     1      -0.223   9.670  20.315  0.00  0.00    +0.000 C 
ATOM      2  O   UNL     1      -0.785  10.189  21.513  0.00  0.00    +0.000 OA
ATOM      3  C   UNL     1      -0.290  11.480  21.878  0.00  0.00    +0.000 C 
ATOM      4  O   UNL     1      -0.912  11.842  23.117  0.00  0.00    +0.000 OA
ATOM      5  C   UNL     1      -2.117  12.569  22.875  0.00  0.00    +0.000 C 
ATOM      6  C   UNL     1      -3.124  12.171  23.951  0.00  0.00    +0.000 C 
ATOM      7  C   UNL     1      -1.827  14.081  22.949  0.00  0.00    +0.000 C 
ATOM      8  C   UNL     1      -0.391  14.443  22.548  0.00  0.00    +0.000 C 
ATOM      9  C   UNL     1       0.052  13.968  21.144  0.00  0.00    +0.000 C 
ATOM     10  C   UNL     1       1.591  14.079  20.982  0.00  0.00    +0.000 C 
ATOM     11  C   UNL     1       2.101  15.511  21.192  0.00  0.00    +0.000 C 
ATOM     12  C   UNL     1       2.029  13.608  19.592  0.00  0.00    +0.000 C 
ATOM     13  C   UNL     1       1.571  12.184  19.319  0.00  0.00    +0.000 C 
ATOM     14  C   UNL     1       0.043  12.056  19.410  0.00  0.00    +0.000 C 
ATOM     15  C   UNL     1      -0.496  10.625  19.138  0.00  0.00    +0.000 C 
ATOM     16  C   UNL     1      -0.010  10.038  17.810  0.00  0.00    +0.000 C 
ATOM     17  C   UNL     1      -0.506  12.559  20.770  0.00  0.00    +0.000 C 
ATOM     18  O   UNL     1      -1.924  12.805  20.542  0.00  0.00    +0.000 OA
ATOM     19  O   UNL     1      -2.705  12.202  21.620  0.00  0.00    +0.000 OA
ENDROOT
BRANCH   1  20
ATOM     20  O   UNL     1       1.181   9.414  20.424  0.00  0.00    +0.000 OA
BRANCH  20  30
ATOM     21  C   UNL     1       3.709   4.308  17.253  0.00  0.00    +0.000 C 
ATOM     22  C   UNL     1       2.949   4.370  18.553  0.00  0.00    +0.000 A 
ATOM     23  C   UNL     1       2.612   3.293  19.291  0.00  0.00    +0.000 A 
ATOM     24 CL   UNL     1       2.998   1.674  18.794  0.00  0.00    +0.000 Cl
ATOM     25  C   UNL     1       1.880   3.387  20.584  0.00  0.00    +0.000 A 
ATOM     26  O   UNL     1       1.536   2.404  21.232  0.00  0.00    +0.000 OA
ATOM     27  O   UNL     1       1.606   4.664  21.045  0.00  0.00    +0.000 OA
ATOM     28  C   UNL     1       1.883   5.800  20.267  0.00  0.00    +0.000 A 
ATOM     29  C   UNL     1       1.438   7.016  20.788  0.00  0.00    +0.000 A 
ATOM     30  C   UNL     1       1.617   8.177  20.053  0.00  0.00    +0.000 A 
ATOM     31  C   UNL     1       2.246   8.107  18.810  0.00  0.00    +0.000 A 
ATOM     32  C   UNL     1       2.721   6.886  18.317  0.00  0.00    +0.000 A 
ATOM     33  C   UNL     1       2.532   5.700  19.036  0.00  0.00    +0.000 A 
ENDBRANCH  20  30
ENDBRANCH   1  20
TORSDOF 2
ENDMDL
MODEL 4
REMARK VINA RESULT:      -8.8      2.085      3.441
REMARK  Name = 
REMARK  6 active torsions:
REMARK  status: ('A' for Active; 'I' for Inactive)
REMARK    1  A    between atoms: C_1  and  C_2
REMARK    2  A    between atoms: C_10  and  O_11
REMARK    3  A    between atoms: O_11  and  C_12
REMARK    4  A    between atoms: C_16  and  C_17
REMARK    5  A    between atoms: C_21  and  C_22
REMARK    6  A    between atoms: C_26  and  C_27
REMARK                            x       y       z     vdW  Elec       q    Type
REMARK                         _______ _______ _______ _____ _____    ______ ____
ROOT
ATOM      1  C   UNL     1      -0.880  10.356  19.965  0.00  0.00    +0.000 C 
ATOM      2  O   UNL     1      -1.260  10.854  21.241  0.00  0.00    +0.000 OA
ATOM      3  C   UNL     1      -1.066  12.261  21.401  0.00  0.00    +0.000 C 
ATOM      4  O   UNL     1      -1.449  12.596  22.740  0.00  0.00    +0.000 OA
ATOM      5  C   UNL     1      -2.829  12.962  22.786  0.00  0.00    +0.000 C 
ATOM      6  C   UNL     1      -3.402  12.452  24.106  0.00  0.00    +0.000 C 
ATOM      7  C   UNL     1      -2.957  14.496  22.707  0.00  0.00    +0.000 C 
ATOM      8  C   UNL     1      -1.813  15.160  21.928  0.00  0.00    +0.000 C 
ATOM      9  C   UNL     1      -1.606  14.651  20.482  0.00  0.00    +0.000 C 
ATOM     10  C   UNL     1      -0.241  15.128  19.918  0.00  0.00    +0.000 C 
ATOM     11  C   UNL     1      -0.109  16.656  19.918  0.00  0.00    +0.000 C 
ATOM     12  C   UNL     1      -0.035  14.623  18.487  0.00  0.00    +0.000 C 
ATOM     13  C   UNL     1      -0.137  13.107  18.413  0.00  0.00    +0.000 C 
ATOM     14  C   UNL     1      -1.503  12.609  18.906  0.00  0.00    +0.000 C 
ATOM     15  C   UNL     1      -1.678  11.066  18.855  0.00  0.00    +0.000 C 
ATOM     16  C   UNL     1      -1.380  10.470  17.477  0.00  0.00    +0.000 C 
ATOM     17  C   UNL     1      -1.828  13.113  20.336  0.00  0.00    +0.000 C 
ATOM     18  O   UNL     1      -3.271  12.964  20.475  0.00  0.00    +0.000 OA
ATOM     19  O   UNL     1      -3.576  12.313  21.748  0.00  0.00    +0.000 OA
ENDROOT
BRANCH   1  20
ATOM     20  O   UNL     1       0.523  10.479  19.716  0.00  0.00    +0.000 OA
BRANCH  20  30
ATOM     21  C   UNL     1       4.168   5.675  17.232  0.00  0.00    +0.000 C 
ATOM     22  C   UNL     1       3.365   5.731  18.506  0.00  0.00    +0.000 A 
ATOM     23  C   UNL     1       3.230   4.703  19.367  0.00  0.00    +0.000 A 
ATOM     24 CL   UNL     1       3.961   3.154  19.079  0.00  0.00    +0.000 Cl
ATOM     25  C   UNL     1       2.447   4.795  20.630  0.00  0.00    +0.000 A 
ATOM     26  O   UNL     1       2.290   3.846  21.392  0.00  0.00    +0.000 OA
ATOM     27  O   UNL     1       1.898   6.032  20.926  0.00  0.00    +0.000 OA
ATOM     28  C   UNL     1       1.963   7.100  20.016  0.00  0.00    +0.000 A 
ATOM     29  C   UNL     1       1.257   8.248  20.378  0.00  0.00    +0.000 A 
ATOM     30  C   UNL     1       1.219   9.325  19.506  0.00  0.00    +0.000 A 
ATOM     31  C   UNL     1       1.895   9.242  18.289  0.00  0.00    +0.000 A 
ATOM     32  C   UNL     1       2.630   8.097  17.956  0.00  0.00    +0.000 A 
ATOM     33  C   UNL     1       2.664   6.992  18.815  0.00  0.00    +0.000 A 
ENDBRANCH  20  30
ENDBRANCH   1  20
TORSDOF 2
ENDMDL
MODEL 5
REMARK VINA RESULT:      -8.7      2.332      4.036
REMARK  Name = 
REMARK  6 active torsions:
REMARK  status: ('A' for Active; 'I' for Inactive)
REMARK    1  A    between atoms: C_1  and  C_2
REMARK    2  A    between atoms: C_10  and  O_11
REMARK    3  A    between atoms: O_11  and  C_12
REMARK    4  A    between atoms: C_16  and  C_17
REMARK    5  A    between atoms: C_21  and  C_22
REMARK    6  A    between atoms: C_26  and  C_27
REMARK                            x       y       z     vdW  Elec       q    Type
REMARK                         _______ _______ _______ _____ _____    ______ ____
ROOT
ATOM      1  C   UNL     1       0.076   9.710  20.103  0.00  0.00    +0.000 C 
ATOM      2  O   UNL     1      -0.224  10.482  21.258  0.00  0.00    +0.000 OA
ATOM      3  C   UNL     1       0.452  11.741  21.310  0.00  0.00    +0.000 C 
ATOM      4  O   UNL     1       0.084  12.374  22.542  0.00  0.00    +0.000 OA
ATOM      5  C   UNL     1      -1.065  13.200  22.353  0.00  0.00    +0.000 C 
ATOM      6  C   UNL     1      -1.914  13.112  23.619  0.00  0.00    +0.000 C 
ATOM      7  C   UNL     1      -0.618  14.655  22.112  0.00  0.00    +0.000 C 
ATOM      8  C   UNL     1       0.761  14.762  21.447  0.00  0.00    +0.000 C 
ATOM      9  C   UNL     1       0.914  14.015  20.101  0.00  0.00    +0.000 C 
ATOM     10  C   UNL     1       2.408  13.902  19.697  0.00  0.00    +0.000 C 
ATOM     11  C   UNL     1       3.087  15.272  19.571  0.00  0.00    +0.000 C 
ATOM     12  C   UNL     1       2.559  13.162  18.365  0.00  0.00    +0.000 C 
ATOM     13  C   UNL     1       1.922  11.782  18.421  0.00  0.00    +0.000 C 
ATOM     14  C   UNL     1       0.425  11.866  18.757  0.00  0.00    +0.000 C 
ATOM     15  C   UNL     1      -0.293  10.490  18.827  0.00  0.00    +0.000 C 
ATOM     16  C   UNL     1      -0.095   9.640  17.569  0.00  0.00    +0.000 C 
ATOM     17  C   UNL     1       0.163  12.647  20.070  0.00  0.00    +0.000 C 
ATOM     18  O   UNL     1      -1.241  13.031  20.013  0.00  0.00    +0.000 OA
ATOM     19  O   UNL     1      -1.888  12.714  21.284  0.00  0.00    +0.000 OA
ENDROOT
BRANCH   1  20
ATOM     20  O   UNL     1       1.445   9.299  20.048  0.00  0.00    +0.000 OA
BRANCH  20  30
ATOM     21  C   UNL     1       1.940   2.833  20.739  0.00  0.00    +0.000 C 
ATOM     22  C   UNL     1       2.469   3.742  19.659  0.00  0.00    +0.000 A 
ATOM     23  C   UNL     1       3.219   3.332  18.618  0.00  0.00    +0.000 A 
ATOM     24 CL   UNL     1       3.699   1.673  18.420  0.00  0.00    +0.000 Cl
ATOM     25  C   UNL     1       3.710   4.250  17.553  0.00  0.00    +0.000 A 
ATOM     26  O   UNL     1       4.429   3.883  16.630  0.00  0.00    +0.000 OA
ATOM     27  O   UNL     1       3.300   5.570  17.642  0.00  0.00    +0.000 OA
ATOM     28  C   UNL     1       2.576   6.040  18.751  0.00  0.00    +0.000 A 
ATOM     29  C   UNL     1       2.340   7.416  18.782  0.00  0.00    +0.000 A 
ATOM     30  C   UNL     1       1.687   7.969  19.872  0.00  0.00    +0.000 A 
ATOM     31  C   UNL     1       1.271   7.137  20.912  0.00  0.00    +0.000 A 
ATOM     32  C   UNL     1       1.482   5.754  20.849  0.00  0.00    +0.000 A 
ATOM     33  C   UNL     1       2.157   5.180  19.765  0.00  0.00    +0.000 A 
ENDBRANCH  20  30
ENDBRANCH   1  20
TORSDOF 2
ENDMDL
MODEL 6
REMARK VINA RESULT:      -8.3      2.488      4.097
REMARK  Name = 
REMARK  6 active torsions:
REMARK  status: ('A' for Active; 'I' for Inactive)
REMARK    1  A    between atoms: C_1  and  C_2
REMARK    2  A    between atoms: C_10  and  O_11
REMARK    3  A    between atoms: O_11  and  C_12
REMARK    4  A    between atoms: C_16  and  C_17
REMARK    5  A    between atoms: C_21  and  C_22
REMARK    6  A    between atoms: C_26  and  C_27
REMARK                            x       y       z     vdW  Elec       q    Type
REMARK                         _______ _______ _______ _____ _____    ______ ____
ROOT
ATOM      1  C   UNL     1      -0.902  10.504  20.282  0.00  0.00    +0.000 C 
ATOM      2  O   UNL     1      -1.284  11.076  21.526  0.00  0.00    +0.000 OA
ATOM      3  C   UNL     1      -1.008  12.475  21.635  0.00  0.00    +0.000 C 
ATOM      4  O   UNL     1      -1.405  12.888  22.948  0.00  0.00    +0.000 OA
ATOM      5  C   UNL     1      -2.760  13.338  22.940  0.00  0.00    +0.000 C 
ATOM      6  C   UNL     1      -3.397  12.919  24.262  0.00  0.00    +0.000 C 
ATOM      7  C   UNL     1      -2.792  14.873  22.796  0.00  0.00    +0.000 C 
ATOM      8  C   UNL     1      -1.589  15.433  22.024  0.00  0.00    +0.000 C 
ATOM      9  C   UNL     1      -1.376  14.853  20.606  0.00  0.00    +0.000 C 
ATOM     10  C   UNL     1       0.030  15.223  20.063  0.00  0.00    +0.000 C 
ATOM     11  C   UNL     1       0.256  16.739  20.005  0.00  0.00    +0.000 C 
ATOM     12  C   UNL     1       0.241  14.647  18.659  0.00  0.00    +0.000 C 
ATOM     13  C   UNL     1       0.049  13.139  18.643  0.00  0.00    +0.000 C 
ATOM     14  C   UNL     1      -1.358  12.744  19.117  0.00  0.00    +0.000 C 
ATOM     15  C   UNL     1      -1.625  11.214  19.122  0.00  0.00    +0.000 C 
ATOM     16  C   UNL     1      -1.329  10.544  17.778  0.00  0.00    +0.000 C 
ATOM     17  C   UNL     1      -1.688  13.326  20.515  0.00  0.00    +0.000 C 
ATOM     18  O   UNL     1      -3.141  13.270  20.618  0.00  0.00    +0.000 OA
ATOM     19  O   UNL     1      -3.518  12.693  21.908  0.00  0.00    +0.000 OA
ENDROOT
BRANCH   1  20
ATOM     20  O   UNL     1       0.512  10.531  20.068  0.00  0.00    +0.000 OA
BRANCH  20  30
ATOM     21  C   UNL     1       2.895   4.475  20.483  0.00  0.00    +0.000 C 
ATOM     22  C   UNL     1       3.103   5.535  19.432  0.00  0.00    +0.000 A 
ATOM     23  C   UNL     1       3.910   5.399  18.362  0.00  0.00    +0.000 A 
ATOM     24 CL   UNL     1       4.847   3.962  18.087  0.00  0.00    +0.000 Cl
ATOM     25  C   UNL     1       4.079   6.456  17.327  0.00  0.00    +0.000 A 
ATOM     26  O   UNL     1       4.847   6.348  16.376  0.00  0.00    +0.000 OA
ATOM     27  O   UNL     1       3.305   7.595  17.478  0.00  0.00    +0.000 OA
ATOM     28  C   UNL     1       2.507   7.794  18.617  0.00  0.00    +0.000 A 
ATOM     29  C   UNL     1       1.881   9.038  18.709  0.00  0.00    +0.000 A 
ATOM     30  C   UNL     1       1.127   9.337  19.833  0.00  0.00    +0.000 A 
ATOM     31  C   UNL     1       1.003   8.386  20.845  0.00  0.00    +0.000 A 
ATOM     32  C   UNL     1       1.606   7.128  20.721  0.00  0.00    +0.000 A 
ATOM     33  C   UNL     1       2.388   6.815  19.603  0.00  0.00    +0.000 A 
ENDBRANCH  20  30
ENDBRANCH   1  20
TORSDOF 2
ENDMDL
MODEL 7
REMARK VINA RESULT:      -7.9      1.936      2.545
REMARK  Name = 
REMARK  6 active torsions:
REMARK  status: ('A' for Active; 'I' for Inactive)
REMARK    1  A    between atoms: C_1  and  C_2
REMARK    2  A    between atoms: C_10  and  O_11
REMARK    3  A    between atoms: O_11  and  C_12
REMARK    4  A    between atoms: C_16  and  C_17
REMARK    5  A    between atoms: C_21  and  C_22
REMARK    6  A    between atoms: C_26  and  C_27
REMARK                            x       y       z     vdW  Elec       q    Type
REMARK                         _______ _______ _______ _____ _____    ______ ____
ROOT
ATOM      1  C   UNL     1       0.781  10.121  18.028  0.00  0.00    +0.000 C 
ATOM      2  O   UNL     1      -0.603   9.934  17.758  0.00  0.00    +0.000 OA
ATOM      3  C   UNL     1      -1.467  10.364  18.812  0.00  0.00    +0.000 C 
ATOM      4  O   UNL     1      -2.811  10.070  18.411  0.00  0.00    +0.000 OA
ATOM      5  C   UNL     1      -3.382  11.187  17.729  0.00  0.00    +0.000 C 
ATOM      6  C   UNL     1      -4.284  10.644  16.623  0.00  0.00    +0.000 C 
ATOM      7  C   UNL     1      -4.204  12.031  18.722  0.00  0.00    +0.000 C 
ATOM      8  C   UNL     1      -3.680  11.953  20.162  0.00  0.00    +0.000 C 
ATOM      9  C   UNL     1      -2.197  12.347  20.357  0.00  0.00    +0.000 C 
ATOM     10  C   UNL     1      -1.687  11.910  21.755  0.00  0.00    +0.000 C 
ATOM     11  C   UNL     1      -2.505  12.527  22.897  0.00  0.00    +0.000 C 
ATOM     12  C   UNL     1      -0.218  12.300  21.947  0.00  0.00    +0.000 C 
ATOM     13  C   UNL     1       0.661  11.708  20.856  0.00  0.00    +0.000 C 
ATOM     14  C   UNL     1       0.219  12.174  19.461  0.00  0.00    +0.000 C 
ATOM     15  C   UNL     1       1.076  11.608  18.296  0.00  0.00    +0.000 C 
ATOM     16  C   UNL     1       2.576  11.862  18.471  0.00  0.00    +0.000 C 
ATOM     17  C   UNL     1      -1.277  11.868  19.189  0.00  0.00    +0.000 C 
ATOM     18  O   UNL     1      -1.650  12.741  18.084  0.00  0.00    +0.000 OA
ATOM     19  O   UNL     1      -2.374  11.969  17.074  0.00  0.00    +0.000 OA
ENDROOT
BRANCH   1  20
ATOM     20  O   UNL     1       1.247   9.323  19.120  0.00  0.00    +0.000 OA
BRANCH  20  30
ATOM     21  C   UNL     1       4.794   3.852  19.235  0.00  0.00    +0.000 C 
ATOM     22  C   UNL     1       4.732   4.953  18.208  0.00  0.00    +0.000 A 
ATOM     23  C   UNL     1       5.491   5.000  17.095  0.00  0.00    +0.000 A 
ATOM     24 CL   UNL     1       6.676   3.783  16.731  0.00  0.00    +0.000 Cl
ATOM     25  C   UNL     1       5.392   6.091  16.085  0.00  0.00    +0.000 A 
ATOM     26  O   UNL     1       6.113   6.155  15.095  0.00  0.00    +0.000 OA
ATOM     27  O   UNL     1       4.418   7.050  16.308  0.00  0.00    +0.000 OA
ATOM     28  C   UNL     1       3.660   7.064  17.491  0.00  0.00    +0.000 A 
ATOM     29  C   UNL     1       2.807   8.158  17.651  0.00  0.00    +0.000 A 
ATOM     30  C   UNL     1       2.071   8.279  18.819  0.00  0.00    +0.000 A 
ATOM     31  C   UNL     1       2.192   7.303  19.807  0.00  0.00    +0.000 A 
ATOM     32  C   UNL     1       3.024   6.192  19.616  0.00  0.00    +0.000 A 
ATOM     33  C   UNL     1       3.789   6.062  18.452  0.00  0.00    +0.000 A 
ENDBRANCH  20  30
ENDBRANCH   1  20
TORSDOF 2
ENDMDL
MODEL 8
REMARK VINA RESULT:      -7.9      2.702      4.367
REMARK  Name = 
REMARK  6 active torsions:
REMARK  status: ('A' for Active; 'I' for Inactive)
REMARK    1  A    between atoms: C_1  and  C_2
REMARK    2  A    between atoms: C_10  and  O_11
REMARK    3  A    between atoms: O_11  and  C_12
REMARK    4  A    between atoms: C_16  and  C_17
REMARK    5  A    between atoms: C_21  and  C_22
REMARK    6  A    between atoms: C_26  and  C_27
REMARK                            x       y       z     vdW  Elec       q    Type
REMARK                         _______ _______ _______ _____ _____    ______ ____
ROOT
ATOM      1  C   UNL     1      -1.004  11.388  20.166  0.00  0.00    +0.000 C 
ATOM      2  O   UNL     1      -1.567  11.459  21.469  0.00  0.00    +0.000 OA
ATOM      3  C   UNL     1      -1.174  12.616  22.212  0.00  0.00    +0.000 C 
ATOM      4  O   UNL     1      -1.782  12.519  23.507  0.00  0.00    +0.000 OA
ATOM      5  C   UNL     1      -3.054  13.170  23.509  0.00  0.00    +0.000 C 
ATOM      6  C   UNL     1      -3.985  12.368  24.415  0.00  0.00    +0.000 C 
ATOM      7  C   UNL     1      -2.895  14.606  24.044  0.00  0.00    +0.000 C 
ATOM      8  C   UNL     1      -1.511  15.207  23.767  0.00  0.00    +0.000 C 
ATOM      9  C   UNL     1      -1.077  15.230  22.282  0.00  0.00    +0.000 C 
ATOM     10  C   UNL     1       0.440  15.529  22.153  0.00  0.00    +0.000 C 
ATOM     11  C   UNL     1       0.830  16.868  22.792  0.00  0.00    +0.000 C 
ATOM     12  C   UNL     1       0.869  15.551  20.683  0.00  0.00    +0.000 C 
ATOM     13  C   UNL     1       0.528  14.244  19.985  0.00  0.00    +0.000 C 
ATOM     14  C   UNL     1      -0.979  13.951  20.041  0.00  0.00    +0.000 C 
ATOM     15  C   UNL     1      -1.400  12.629  19.343  0.00  0.00    +0.000 C 
ATOM     16  C   UNL     1      -0.911  12.526  17.897  0.00  0.00    +0.000 C 
ATOM     17  C   UNL     1      -1.522  13.958  21.493  0.00  0.00    +0.000 C 
ATOM     18  O   UNL     1      -2.963  14.128  21.361  0.00  0.00    +0.000 OA
ATOM     19  O   UNL     1      -3.651  13.152  22.205  0.00  0.00    +0.000 OA
ENDROOT
BRANCH   1  20
ATOM     20  O   UNL     1       0.420  11.245  20.182  0.00  0.00    +0.000 OA
BRANCH  20  30
ATOM     21  C   UNL     1       2.190   5.009  20.895  0.00  0.00    +0.000 C 
ATOM     22  C   UNL     1       2.518   5.998  19.806  0.00  0.00    +0.000 A 
ATOM     23  C   UNL     1       3.326   5.737  18.759  0.00  0.00    +0.000 A 
ATOM     24 CL   UNL     1       4.122   4.205  18.563  0.00  0.00    +0.000 Cl
ATOM     25  C   UNL     1       3.615   6.728  17.686  0.00  0.00    +0.000 A 
ATOM     26  O   UNL     1       4.384   6.505  16.757  0.00  0.00    +0.000 OA
ATOM     27  O   UNL     1       2.953   7.942  17.774  0.00  0.00    +0.000 OA
ATOM     28  C   UNL     1       2.161   8.266  18.887  0.00  0.00    +0.000 A 
ATOM     29  C   UNL     1       1.658   9.568  18.915  0.00  0.00    +0.000 A 
ATOM     30  C   UNL     1       0.918   9.987  20.009  0.00  0.00    +0.000 A 
ATOM     31  C   UNL     1       0.685   9.097  21.056  0.00  0.00    +0.000 A 
ATOM     32  C   UNL     1       1.163   7.782  20.997  0.00  0.00    +0.000 A 
ATOM     33  C   UNL     1       1.929   7.347  19.909  0.00  0.00    +0.000 A 
ENDBRANCH  20  30
ENDBRANCH   1  20
TORSDOF 2
ENDMDL
MODEL 9
REMARK VINA RESULT:      -7.8      2.528      4.014
REMARK  Name = 
REMARK  6 active torsions:
REMARK  status: ('A' for Active; 'I' for Inactive)
REMARK    1  A    between atoms: C_1  and  C_2
REMARK    2  A    between atoms: C_10  and  O_11
REMARK    3  A    between atoms: O_11  and  C_12
REMARK    4  A    between atoms: C_16  and  C_17
REMARK    5  A    between atoms: C_21  and  C_22
REMARK    6  A    between atoms: C_26  and  C_27
REMARK                            x       y       z     vdW  Elec       q    Type
REMARK                         _______ _______ _______ _____ _____    ______ ____
ROOT
ATOM      1  C   UNL     1      -1.185  11.333  20.284  0.00  0.00    +0.000 C 
ATOM      2  O   UNL     1      -1.697  11.491  21.601  0.00  0.00    +0.000 OA
ATOM      3  C   UNL     1      -1.448  12.778  22.173  0.00  0.00    +0.000 C 
ATOM      4  O   UNL     1      -1.980  12.765  23.504  0.00  0.00    +0.000 OA
ATOM      5  C   UNL     1      -3.333  13.224  23.503  0.00  0.00    +0.000 C 
ATOM      6  C   UNL     1      -4.096  12.423  24.555  0.00  0.00    +0.000 C 
ATOM      7  C   UNL     1      -3.366  14.726  23.849  0.00  0.00    +0.000 C 
ATOM      8  C   UNL     1      -2.097  15.474  23.418  0.00  0.00    +0.000 C 
ATOM      9  C   UNL     1      -1.735  15.366  21.918  0.00  0.00    +0.000 C 
ATOM     10  C   UNL     1      -0.286  15.858  21.662  0.00  0.00    +0.000 C 
ATOM     11  C   UNL     1      -0.071  17.309  22.109  0.00  0.00    +0.000 C 
ATOM     12  C   UNL     1       0.073  15.750  20.177  0.00  0.00    +0.000 C 
ATOM     13  C   UNL     1      -0.101  14.328  19.665  0.00  0.00    +0.000 C 
ATOM     14  C   UNL     1      -1.544  13.836  19.848  0.00  0.00    +0.000 C 
ATOM     15  C   UNL     1      -1.795  12.388  19.343  0.00  0.00    +0.000 C 
ATOM     16  C   UNL     1      -1.357  12.170  17.892  0.00  0.00    +0.000 C 
ATOM     17  C   UNL     1      -2.021  13.954  21.318  0.00  0.00    +0.000 C 
ATOM     18  O   UNL     1      -3.475  13.900  21.254  0.00  0.00    +0.000 OA
ATOM     19  O   UNL     1      -3.975  12.954  22.250  0.00  0.00    +0.000 OA
ENDROOT
BRANCH   1  20
ATOM     20  O   UNL     1       0.243  11.395  20.232  0.00  0.00    +0.000 OA
BRANCH  20  30
ATOM     21  C   UNL     1       3.694   6.822  17.116  0.00  0.00    +0.000 C 
ATOM     22  C   UNL     1       2.919   6.749  18.406  0.00  0.00    +0.000 A 
ATOM     23  C   UNL     1       2.773   5.631  19.145  0.00  0.00    +0.000 A 
ATOM     24 CL   UNL     1       3.452   4.107  18.660  0.00  0.00    +0.000 Cl
ATOM     25  C   UNL     1       2.019   5.594  20.428  0.00  0.00    +0.000 A 
ATOM     26  O   UNL     1       1.850   4.566  21.077  0.00  0.00    +0.000 OA
ATOM     27  O   UNL     1       1.513   6.801  20.880  0.00  0.00    +0.000 OA
ATOM     28  C   UNL     1       1.590   7.967  20.100  0.00  0.00    +0.000 A 
ATOM     29  C   UNL     1       0.925   9.083  20.611  0.00  0.00    +0.000 A 
ATOM     30  C   UNL     1       0.901  10.255  19.872  0.00  0.00    +0.000 A 
ATOM     31  C   UNL     1       1.548  10.298  18.638  0.00  0.00    +0.000 A 
ATOM     32  C   UNL     1       2.243   9.182  18.155  0.00  0.00    +0.000 A 
ATOM     33  C   UNL     1       2.262   7.983  18.878  0.00  0.00    +0.000 A 
ENDBRANCH  20  30
ENDBRANCH   1  20
TORSDOF 2
ENDMDL
