MODEL 1
REMARK VINA RESULT:     -10.4      0.000      0.000
REMARK  Name = 
REMARK  5 active torsions:
REMARK  status: ('A' for Active; 'I' for Inactive)
REMARK    1  A    between atoms: C_2  and  C_16
REMARK    2  A    between atoms: N_3  and  N_4
REMARK    3  A    between atoms: C_5  and  C_6
REMARK    4  A    between atoms: C_9  and  C_10
REMARK    5  A    between atoms: C_27  and  C_28
REMARK                            x       y       z     vdW  Elec       q    Type
REMARK                         _______ _______ _______ _____ _____    ______ ____
ROOT
ATOM      1  C   UNL     1       5.429   6.826  16.916  0.00  0.00    +0.000 A 
ATOM      2  C   UNL     1       5.023   5.561  16.584  0.00  0.00    +0.000 A 
ATOM      3  C   UNL     1       4.061   5.210  17.481  0.00  0.00    +0.000 A 
ATOM      4  C   UNL     1       3.008   6.034  17.703  0.00  0.00    +0.000 A 
ATOM      5  N   UNL     1       1.985   5.105  17.926  0.00  0.00    +0.000 N 
ATOM      6  C   UNL     1       2.590   3.903  18.246  0.00  0.00    +0.000 A 
ATOM      7  C   UNL     1       2.182   2.583  18.305  0.00  0.00    +0.000 A 
ATOM      8  C   UNL     1       3.164   1.667  18.737  0.00  0.00    +0.000 A 
ATOM      9  C   UNL     1       4.409   2.069  19.248  0.00  0.00    +0.000 A 
ATOM     10  C   UNL     1       4.806   3.391  19.142  0.00  0.00    +0.000 A 
ATOM     11  C   UNL     1       3.922   4.221  18.453  0.00  0.00    +0.000 A 
ATOM     12  C   UNL     1       3.179   7.412  17.789  0.00  0.00    +0.000 A 
ATOM     13  N   UNL     1       4.556   7.763  17.579  0.00  0.00    +0.000 NA
ATOM     14  H   UNL     1       0.989   5.302  17.909  0.00  0.00    +0.000 HD
ENDROOT
BRANCH  12  15
ATOM     15  C   UNL     1       2.057   8.132  18.549  0.00  0.00    +0.000 A 
ATOM     16  C   UNL     1       1.495   9.287  17.941  0.00  0.00    +0.000 A 
ATOM     17  C   UNL     1       0.854  10.324  18.647  0.00  0.00    +0.000 A 
ATOM     18  C   UNL     1       0.634  10.181  20.005  0.00  0.00    +0.000 A 
ATOM     19 CL   UNL     1      -0.118  11.462  20.879  0.00  0.00    +0.000 Cl
ATOM     20  C   UNL     1       1.071   9.024  20.647  0.00  0.00    +0.000 A 
ATOM     21  C   UNL     1       1.798   8.012  19.936  0.00  0.00    +0.000 A 
ENDBRANCH  12  15
BRANCH   1  23
ATOM     22  O   UNL     1       7.448   5.525  16.834  0.00  0.00    +0.000 OA
ATOM     23  C   UNL     1       6.945   6.600  17.186  0.00  0.00    +0.000 C 
ATOM     24  N   UNL     1       7.815   7.758  17.195  0.00  0.00    +0.000 N 
ATOM     25  H   UNL     1       8.655   7.539  16.650  0.00  0.00    +0.000 HD
BRANCH  24  26
ATOM     26  N   UNL     1       8.204   8.159  18.450  0.00  0.00    +0.000 NA
ATOM     27  C   UNL     1       8.799   9.283  18.723  0.00  0.00    +0.000 C 
BRANCH  27  28
ATOM     28  C   UNL     1       9.118  10.599  18.059  0.00  0.00    +0.000 A 
ATOM     29  C   UNL     1       8.197  11.585  17.760  0.00  0.00    +0.000 A 
ATOM     30  C   UNL     1       8.620  12.926  17.551  0.00  0.00    +0.000 A 
ATOM     31  C   UNL     1       9.952  13.299  17.676  0.00  0.00    +0.000 A 
ATOM     32  C   UNL     1      10.909  12.275  17.796  0.00  0.00    +0.000 A 
ATOM     33  C   UNL     1      10.485  10.945  17.995  0.00  0.00    +0.000 A 
BRANCH  31  34
ATOM     34  C   UNL     1      10.399  14.752  17.762  0.00  0.00    +0.000 C 
ATOM     35  F   UNL     1      11.394  14.937  18.676  0.00  0.00    +0.000 F 
ATOM     36  F   UNL     1      10.907  15.193  16.577  0.00  0.00    +0.000 F 
ATOM     37  F   UNL     1       9.411  15.624  18.094  0.00  0.00    +0.000 F 
ENDBRANCH  31  34
ENDBRANCH  27  28
ENDBRANCH  24  26
ENDBRANCH   1  23
TORSDOF 5
ENDMDL
MODEL 2
REMARK VINA RESULT:      -9.9      0.896      1.220
REMARK  Name = 
REMARK  5 active torsions:
REMARK  status: ('A' for Active; 'I' for Inactive)
REMARK    1  A    between atoms: C_2  and  C_16
REMARK    2  A    between atoms: N_3  and  N_4
REMARK    3  A    between atoms: C_5  and  C_6
REMARK    4  A    between atoms: C_9  and  C_10
REMARK    5  A    between atoms: C_27  and  C_28
REMARK                            x       y       z     vdW  Elec       q    Type
REMARK                         _______ _______ _______ _____ _____    ______ ____
ROOT
ATOM      1  C   UNL     1       5.251   6.599  16.690  0.00  0.00    +0.000 A 
ATOM      2  C   UNL     1       4.781   5.333  16.460  0.00  0.00    +0.000 A 
ATOM      3  C   UNL     1       3.884   5.063  17.447  0.00  0.00    +0.000 A 
ATOM      4  C   UNL     1       2.878   5.933  17.705  0.00  0.00    +0.000 A 
ATOM      5  N   UNL     1       1.848   5.053  18.058  0.00  0.00    +0.000 N 
ATOM      6  C   UNL     1       2.439   3.849  18.395  0.00  0.00    +0.000 A 
ATOM      7  C   UNL     1       1.997   2.548  18.557  0.00  0.00    +0.000 A 
ATOM      8  C   UNL     1       2.981   1.622  18.959  0.00  0.00    +0.000 A 
ATOM      9  C   UNL     1       4.275   2.007  19.349  0.00  0.00    +0.000 A 
ATOM     10  C   UNL     1       4.702   3.307  19.141  0.00  0.00    +0.000 A 
ATOM     11  C   UNL     1       3.793   4.131  18.479  0.00  0.00    +0.000 A 
ATOM     12  C   UNL     1       3.097   7.307  17.704  0.00  0.00    +0.000 A 
ATOM     13  N   UNL     1       4.463   7.598  17.367  0.00  0.00    +0.000 NA
ATOM     14  H   UNL     1       0.860   5.283  18.109  0.00  0.00    +0.000 HD
ENDROOT
BRANCH  12  15
ATOM     15  C   UNL     1       2.062   8.104  18.509  0.00  0.00    +0.000 A 
ATOM     16  C   UNL     1       1.592   9.320  17.943  0.00  0.00    +0.000 A 
ATOM     17  C   UNL     1       1.063  10.391  18.690  0.00  0.00    +0.000 A 
ATOM     18  C   UNL     1       0.862  10.233  20.049  0.00  0.00    +0.000 A 
ATOM     19 CL   UNL     1       0.248  11.552  20.973  0.00  0.00    +0.000 Cl
ATOM     20  C   UNL     1       1.209   9.025  20.652  0.00  0.00    +0.000 A 
ATOM     21  C   UNL     1       1.826   7.971  19.899  0.00  0.00    +0.000 A 
ENDBRANCH  12  15
BRANCH   1  23
ATOM     22  O   UNL     1       7.276   5.388  16.229  0.00  0.00    +0.000 OA
ATOM     23  C   UNL     1       6.776   6.334  16.852  0.00  0.00    +0.000 C 
ATOM     24  N   UNL     1       7.638   7.466  17.126  0.00  0.00    +0.000 N 
ATOM     25  H   UNL     1       8.462   7.402  16.520  0.00  0.00    +0.000 HD
BRANCH  24  26
ATOM     26  N   UNL     1       8.063   7.547  18.430  0.00  0.00    +0.000 NA
ATOM     27  C   UNL     1       8.682   8.565  18.951  0.00  0.00    +0.000 C 
BRANCH  27  28
ATOM     28  C   UNL     1       9.006   9.999  18.618  0.00  0.00    +0.000 A 
ATOM     29  C   UNL     1       8.427  10.732  17.599  0.00  0.00    +0.000 A 
ATOM     30  C   UNL     1       8.456  12.152  17.627  0.00  0.00    +0.000 A 
ATOM     31  C   UNL     1       9.026  12.851  18.685  0.00  0.00    +0.000 A 
ATOM     32  C   UNL     1       9.773  12.117  19.624  0.00  0.00    +0.000 A 
ATOM     33  C   UNL     1       9.749  10.707  19.587  0.00  0.00    +0.000 A 
BRANCH  31  34
ATOM     34  C   UNL     1       8.811  14.341  18.902  0.00  0.00    +0.000 C 
ATOM     35  F   UNL     1       7.999  14.894  17.955  0.00  0.00    +0.000 F 
ATOM     36  F   UNL     1       8.201  14.594  20.095  0.00  0.00    +0.000 F 
ATOM     37  F   UNL     1       9.952  15.079  18.901  0.00  0.00    +0.000 F 
ENDBRANCH  31  34
ENDBRANCH  27  28
ENDBRANCH  24  26
ENDBRANCH   1  23
TORSDOF 5
ENDMDL
MODEL 3
REMARK VINA RESULT:      -9.8      0.774      1.262
REMARK  Name = 
REMARK  5 active torsions:
REMARK  status: ('A' for Active; 'I' for Inactive)
REMARK    1  A    between atoms: C_2  and  C_16
REMARK    2  A    between atoms: N_3  and  N_4
REMARK    3  A    between atoms: C_5  and  C_6
REMARK    4  A    between atoms: C_9  and  C_10
REMARK    5  A    between atoms: C_27  and  C_28
REMARK                            x       y       z     vdW  Elec       q    Type
REMARK                         _______ _______ _______ _____ _____    ______ ____
ROOT
ATOM      1  C   UNL     1       5.219   6.597  16.543  0.00  0.00    +0.000 A 
ATOM      2  C   UNL     1       4.775   5.315  16.361  0.00  0.00    +0.000 A 
ATOM      3  C   UNL     1       3.940   5.039  17.400  0.00  0.00    +0.000 A 
ATOM      4  C   UNL     1       2.924   5.886  17.696  0.00  0.00    +0.000 A 
ATOM      5  N   UNL     1       1.940   4.985  18.119  0.00  0.00    +0.000 N 
ATOM      6  C   UNL     1       2.583   3.804  18.445  0.00  0.00    +0.000 A 
ATOM      7  C   UNL     1       2.188   2.495  18.654  0.00  0.00    +0.000 A 
ATOM      8  C   UNL     1       3.219   1.605  19.020  0.00  0.00    +0.000 A 
ATOM      9  C   UNL     1       4.520   2.033  19.333  0.00  0.00    +0.000 A 
ATOM     10  C   UNL     1       4.897   3.340  19.079  0.00  0.00    +0.000 A 
ATOM     11  C   UNL     1       3.930   4.125  18.452  0.00  0.00    +0.000 A 
ATOM     12  C   UNL     1       3.102   7.264  17.657  0.00  0.00    +0.000 A 
ATOM     13  N   UNL     1       4.440   7.588  17.243  0.00  0.00    +0.000 NA
ATOM     14  H   UNL     1       0.950   5.188  18.218  0.00  0.00    +0.000 HD
ENDROOT
BRANCH  12  15
ATOM     15  C   UNL     1       2.089   8.048  18.502  0.00  0.00    +0.000 A 
ATOM     16  C   UNL     1       1.610   9.277  17.972  0.00  0.00    +0.000 A 
ATOM     17  C   UNL     1       1.102  10.334  18.752  0.00  0.00    +0.000 A 
ATOM     18  C   UNL     1       0.932  10.149  20.112  0.00  0.00    +0.000 A 
ATOM     19 CL   UNL     1       0.343  11.451  21.076  0.00  0.00    +0.000 Cl
ATOM     20  C   UNL     1       1.288   8.927  20.682  0.00  0.00    +0.000 A 
ATOM     21  C   UNL     1       1.884   7.888  19.894  0.00  0.00    +0.000 A 
ENDBRANCH  12  15
BRANCH   1  23
ATOM     22  O   UNL     1       7.283   5.591  15.830  0.00  0.00    +0.000 OA
ATOM     23  C   UNL     1       6.759   6.379  16.628  0.00  0.00    +0.000 C 
ATOM     24  N   UNL     1       7.577   7.478  17.097  0.00  0.00    +0.000 N 
ATOM     25  H   UNL     1       8.388   7.568  16.477  0.00  0.00    +0.000 HD
BRANCH  24  26
ATOM     26  N   UNL     1       8.029   7.333  18.386  0.00  0.00    +0.000 NA
ATOM     27  C   UNL     1       8.618   8.263  19.080  0.00  0.00    +0.000 C 
BRANCH  27  28
ATOM     28  C   UNL     1       8.873   9.747  19.017  0.00  0.00    +0.000 A 
ATOM     29  C   UNL     1       9.781  10.434  19.802  0.00  0.00    +0.000 A 
ATOM     30  C   UNL     1      10.267  11.706  19.394  0.00  0.00    +0.000 A 
ATOM     31  C   UNL     1       9.885  12.282  18.190  0.00  0.00    +0.000 A 
ATOM     32  C   UNL     1       8.830  11.678  17.482  0.00  0.00    +0.000 A 
ATOM     33  C   UNL     1       8.343  10.420  17.896  0.00  0.00    +0.000 A 
BRANCH  31  34
ATOM     34  C   UNL     1      10.604  13.477  17.581  0.00  0.00    +0.000 C 
ATOM     35  F   UNL     1       9.817  14.591  17.538  0.00  0.00    +0.000 F 
ATOM     36  F   UNL     1      11.698  13.833  18.312  0.00  0.00    +0.000 F 
ATOM     37  F   UNL     1      11.049  13.278  16.313  0.00  0.00    +0.000 F 
ENDBRANCH  31  34
ENDBRANCH  27  28
ENDBRANCH  24  26
ENDBRANCH   1  23
TORSDOF 5
ENDMDL
MODEL 4
REMARK VINA RESULT:      -9.7      6.429      9.473
REMARK  Name = 
REMARK  5 active torsions:
REMARK  status: ('A' for Active; 'I' for Inactive)
REMARK    1  A    between atoms: C_2  and  C_16
REMARK    2  A    between atoms: N_3  and  N_4
REMARK    3  A    between atoms: C_5  and  C_6
REMARK    4  A    between atoms: C_9  and  C_10
REMARK    5  A    between atoms: C_27  and  C_28
REMARK                            x       y       z     vdW  Elec       q    Type
REMARK                         _______ _______ _______ _____ _____    ______ ____
ROOT
ATOM      1  C   UNL     1       1.003  13.132  18.935  0.00  0.00    +0.000 A 
ATOM      2  C   UNL     1       0.092  13.097  17.914  0.00  0.00    +0.000 A 
ATOM      3  C   UNL     1      -1.031  12.509  18.411  0.00  0.00    +0.000 A 
ATOM      4  C   UNL     1      -1.583  12.967  19.561  0.00  0.00    +0.000 A 
ATOM      5  N   UNL     1      -2.945  12.776  19.298  0.00  0.00    +0.000 N 
ATOM      6  C   UNL     1      -3.035  11.859  18.266  0.00  0.00    +0.000 A 
ATOM      7  C   UNL     1      -4.027  11.464  17.386  0.00  0.00    +0.000 A 
ATOM      8  C   UNL     1      -3.668  10.429  16.499  0.00  0.00    +0.000 A 
ATOM      9  C   UNL     1      -2.463   9.715  16.608  0.00  0.00    +0.000 A 
ATOM     10  C   UNL     1      -1.474  10.155  17.470  0.00  0.00    +0.000 A 
ATOM     11  C   UNL     1      -1.754  11.351  18.131  0.00  0.00    +0.000 A 
ATOM     12  C   UNL     1      -0.790  13.335  20.642  0.00  0.00    +0.000 A 
ATOM     13  N   UNL     1       0.602  13.187  20.319  0.00  0.00    +0.000 NA
ATOM     14  H   UNL     1      -3.714  13.194  19.812  0.00  0.00    +0.000 HD
ENDROOT
BRANCH  12  15
ATOM     15  C   UNL     1      -1.523  13.310  21.990  0.00  0.00    +0.000 A 
ATOM     16  C   UNL     1      -1.688  12.046  22.619  0.00  0.00    +0.000 A 
ATOM     17  C   UNL     1      -2.707  11.747  23.545  0.00  0.00    +0.000 A 
ATOM     18  C   UNL     1      -3.540  12.760  23.983  0.00  0.00    +0.000 A 
ATOM     19 CL   UNL     1      -4.809  12.392  25.090  0.00  0.00    +0.000 Cl
ATOM     20  C   UNL     1      -3.366  14.049  23.481  0.00  0.00    +0.000 A 
ATOM     21  C   UNL     1      -2.382  14.326  22.475  0.00  0.00    +0.000 A 
ENDBRANCH  12  15
BRANCH   1  23
ATOM     22  O   UNL     1       3.236  12.899  18.076  0.00  0.00    +0.000 OA
ATOM     23  C   UNL     1       2.176  12.310  18.327  0.00  0.00    +0.000 C 
ATOM     24  N   UNL     1       2.273  10.906  18.671  0.00  0.00    +0.000 N 
ATOM     25  H   UNL     1       3.248  10.694  18.905  0.00  0.00    +0.000 HD
BRANCH  24  26
ATOM     26  N   UNL     1       1.871  10.053  17.671  0.00  0.00    +0.000 NA
ATOM     27  C   UNL     1       1.995   8.759  17.699  0.00  0.00    +0.000 C 
BRANCH  27  28
ATOM     28  C   UNL     1       2.329   7.663  18.680  0.00  0.00    +0.000 A 
ATOM     29  C   UNL     1       1.895   7.606  19.991  0.00  0.00    +0.000 A 
ATOM     30  C   UNL     1       1.883   6.371  20.692  0.00  0.00    +0.000 A 
ATOM     31  C   UNL     1       2.264   5.181  20.084  0.00  0.00    +0.000 A 
ATOM     32  C   UNL     1       2.877   5.262  18.820  0.00  0.00    +0.000 A 
ATOM     33  C   UNL     1       2.895   6.493  18.131  0.00  0.00    +0.000 A 
BRANCH  31  34
ATOM     34  C   UNL     1       1.980   3.815  20.689  0.00  0.00    +0.000 C 
ATOM     35  F   UNL     1       2.311   3.752  22.011  0.00  0.00    +0.000 F 
ATOM     36  F   UNL     1       0.654   3.505  20.632  0.00  0.00    +0.000 F 
ATOM     37  F   UNL     1       2.631   2.787  20.085  0.00  0.00    +0.000 F 
ENDBRANCH  31  34
ENDBRANCH  27  28
ENDBRANCH  24  26
ENDBRANCH   1  23
TORSDOF 5
ENDMDL
MODEL 5
REMARK VINA RESULT:      -9.5      5.580      7.141
REMARK  Name = 
REMARK  5 active torsions:
REMARK  status: ('A' for Active; 'I' for Inactive)
REMARK    1  A    between atoms: C_2  and  C_16
REMARK    2  A    between atoms: N_3  and  N_4
REMARK    3  A    between atoms: C_5  and  C_6
REMARK    4  A    between atoms: C_9  and  C_10
REMARK    5  A    between atoms: C_27  and  C_28
REMARK                            x       y       z     vdW  Elec       q    Type
REMARK                         _______ _______ _______ _____ _____    ______ ____
ROOT
ATOM      1  C   UNL     1       5.115   6.564  16.881  0.00  0.00    +0.000 A 
ATOM      2  C   UNL     1       4.626   5.311  16.623  0.00  0.00    +0.000 A 
ATOM      3  C   UNL     1       3.723   5.034  17.603  0.00  0.00    +0.000 A 
ATOM      4  C   UNL     1       2.730   5.915  17.878  0.00  0.00    +0.000 A 
ATOM      5  N   UNL     1       1.685   5.044  18.209  0.00  0.00    +0.000 N 
ATOM      6  C   UNL     1       2.256   3.823  18.520  0.00  0.00    +0.000 A 
ATOM      7  C   UNL     1       1.794   2.526  18.653  0.00  0.00    +0.000 A 
ATOM      8  C   UNL     1       2.762   1.576  19.038  0.00  0.00    +0.000 A 
ATOM      9  C   UNL     1       4.061   1.932  19.438  0.00  0.00    +0.000 A 
ATOM     10  C   UNL     1       4.509   3.229  19.259  0.00  0.00    +0.000 A 
ATOM     11  C   UNL     1       3.614   4.081  18.614  0.00  0.00    +0.000 A 
ATOM     12  C   UNL     1       2.970   7.284  17.906  0.00  0.00    +0.000 A 
ATOM     13  N   UNL     1       4.341   7.561  17.579  0.00  0.00    +0.000 NA
ATOM     14  H   UNL     1       0.701   5.288  18.263  0.00  0.00    +0.000 HD
ENDROOT
BRANCH  12  15
ATOM     15  C   UNL     1       1.947   8.080  18.726  0.00  0.00    +0.000 A 
ATOM     16  C   UNL     1       1.444   9.280  18.155  0.00  0.00    +0.000 A 
ATOM     17  C   UNL     1       0.921  10.356  18.899  0.00  0.00    +0.000 A 
ATOM     18  C   UNL     1       0.759  10.217  20.265  0.00  0.00    +0.000 A 
ATOM     19 CL   UNL     1       0.152  11.542  21.184  0.00  0.00    +0.000 Cl
ATOM     20  C   UNL     1       1.139   9.023  20.877  0.00  0.00    +0.000 A 
ATOM     21  C   UNL     1       1.749   7.966  20.124  0.00  0.00    +0.000 A 
ENDBRANCH  12  15
BRANCH   1  23
ATOM     22  O   UNL     1       7.196   6.636  18.083  0.00  0.00    +0.000 OA
ATOM     23  C   UNL     1       6.636   6.272  17.041  0.00  0.00    +0.000 C 
ATOM     24  N   UNL     1       7.176   5.100  16.382  0.00  0.00    +0.000 N 
ATOM     25  H   UNL     1       7.785   4.607  17.042  0.00  0.00    +0.000 HD
BRANCH  24  26
ATOM     26  N   UNL     1       7.899   5.376  15.246  0.00  0.00    +0.000 NA
ATOM     27  C   UNL     1       7.659   4.879  14.069  0.00  0.00    +0.000 C 
BRANCH  27  28
ATOM     28  C   UNL     1       6.582   4.102  13.354  0.00  0.00    +0.000 A 
ATOM     29  C   UNL     1       5.273   3.977  13.778  0.00  0.00    +0.000 A 
ATOM     30  C   UNL     1       4.249   3.617  12.860  0.00  0.00    +0.000 A 
ATOM     31  C   UNL     1       4.515   3.419  11.511  0.00  0.00    +0.000 A 
ATOM     32  C   UNL     1       5.863   3.364  11.112  0.00  0.00    +0.000 A 
ATOM     33  C   UNL     1       6.876   3.712  12.030  0.00  0.00    +0.000 A 
BRANCH  31  34
ATOM     34  C   UNL     1       3.421   3.336  10.457  0.00  0.00    +0.000 C 
ATOM     35  F   UNL     1       2.864   4.552  10.189  0.00  0.00    +0.000 F 
ATOM     36  F   UNL     1       3.904   2.888   9.264  0.00  0.00    +0.000 F 
ATOM     37  F   UNL     1       2.392   2.510  10.779  0.00  0.00    +0.000 F 
ENDBRANCH  31  34
ENDBRANCH  27  28
ENDBRANCH  24  26
ENDBRANCH   1  23
TORSDOF 5
ENDMDL
MODEL 6
REMARK VINA RESULT:      -9.4      6.267      9.491
REMARK  Name = 
REMARK  5 active torsions:
REMARK  status: ('A' for Active; 'I' for Inactive)
REMARK    1  A    between atoms: C_2  and  C_16
REMARK    2  A    between atoms: N_3  and  N_4
REMARK    3  A    between atoms: C_5  and  C_6
REMARK    4  A    between atoms: C_9  and  C_10
REMARK    5  A    between atoms: C_27  and  C_28
REMARK                            x       y       z     vdW  Elec       q    Type
REMARK                         _______ _______ _______ _____ _____    ______ ____
ROOT
ATOM      1  C   UNL     1      -0.226  12.693  19.752  0.00  0.00    +0.000 A 
ATOM      2  C   UNL     1      -0.744  12.819  18.491  0.00  0.00    +0.000 A 
ATOM      3  C   UNL     1      -1.946  12.180  18.496  0.00  0.00    +0.000 A 
ATOM      4  C   UNL     1      -2.864  12.471  19.450  0.00  0.00    +0.000 A 
ATOM      5  N   UNL     1      -4.054  12.339  18.724  0.00  0.00    +0.000 N 
ATOM      6  C   UNL     1      -3.763  11.584  17.601  0.00  0.00    +0.000 A 
ATOM      7  C   UNL     1      -4.392  11.334  16.395  0.00  0.00    +0.000 A 
ATOM      8  C   UNL     1      -3.722  10.435  15.540  0.00  0.00    +0.000 A 
ATOM      9  C   UNL     1      -2.595   9.698  15.942  0.00  0.00    +0.000 A 
ATOM     10  C   UNL     1      -1.965   9.995  17.138  0.00  0.00    +0.000 A 
ATOM     11  C   UNL     1      -2.492  11.084  17.830  0.00  0.00    +0.000 A 
ATOM     12  C   UNL     1      -2.489  12.668  20.774  0.00  0.00    +0.000 A 
ATOM     13  N   UNL     1      -1.064  12.550  20.916  0.00  0.00    +0.000 NA
ATOM     14  H   UNL     1      -4.965  12.687  19.006  0.00  0.00    +0.000 HD
ENDROOT
BRANCH  12  15
ATOM     15  C   UNL     1      -3.626  12.455  21.782  0.00  0.00    +0.000 A 
ATOM     16  C   UNL     1      -4.957  12.586  21.302  0.00  0.00    +0.000 A 
ATOM     17  C   UNL     1      -6.064  12.914  22.109  0.00  0.00    +0.000 A 
ATOM     18  C   UNL     1      -5.899  13.001  23.479  0.00  0.00    +0.000 A 
ATOM     19 CL   UNL     1      -7.242  13.437  24.467  0.00  0.00    +0.000 Cl
ATOM     20  C   UNL     1      -4.636  12.784  24.028  0.00  0.00    +0.000 A 
ATOM     21  C   UNL     1      -3.498  12.534  23.191  0.00  0.00    +0.000 A 
ENDBRANCH  12  15
BRANCH   1  23
ATOM     22  O   UNL     1       2.167  12.481  19.836  0.00  0.00    +0.000 OA
ATOM     23  C   UNL     1       1.113  11.954  19.459  0.00  0.00    +0.000 C 
ATOM     24  N   UNL     1       1.090  10.507  19.394  0.00  0.00    +0.000 N 
ATOM     25  H   UNL     1       1.886  10.144  19.929  0.00  0.00    +0.000 HD
BRANCH  24  26
ATOM     26  N   UNL     1       1.158  10.000  18.119  0.00  0.00    +0.000 NA
ATOM     27  C   UNL     1       1.860   8.965  17.763  0.00  0.00    +0.000 C 
BRANCH  27  28
ATOM     28  C   UNL     1       2.627   7.831  18.396  0.00  0.00    +0.000 A 
ATOM     29  C   UNL     1       2.244   7.148  19.535  0.00  0.00    +0.000 A 
ATOM     30  C   UNL     1       2.764   5.853  19.806  0.00  0.00    +0.000 A 
ATOM     31  C   UNL     1       3.633   5.216  18.929  0.00  0.00    +0.000 A 
ATOM     32  C   UNL     1       4.165   5.975  17.871  0.00  0.00    +0.000 A 
ATOM     33  C   UNL     1       3.653   7.264  17.611  0.00  0.00    +0.000 A 
BRANCH  31  34
ATOM     34  C   UNL     1       3.966   3.734  19.025  0.00  0.00    +0.000 C 
ATOM     35  F   UNL     1       5.289   3.513  19.273  0.00  0.00    +0.000 F 
ATOM     36  F   UNL     1       3.299   3.134  20.051  0.00  0.00    +0.000 F 
ATOM     37  F   UNL     1       3.663   3.018  17.912  0.00  0.00    +0.000 F 
ENDBRANCH  31  34
ENDBRANCH  27  28
ENDBRANCH  24  26
ENDBRANCH   1  23
TORSDOF 5
ENDMDL
MODEL 7
REMARK VINA RESULT:      -9.4      4.933      8.516
REMARK  Name = 
REMARK  5 active torsions:
REMARK  status: ('A' for Active; 'I' for Inactive)
REMARK    1  A    between atoms: C_2  and  C_16
REMARK    2  A    between atoms: N_3  and  N_4
REMARK    3  A    between atoms: C_5  and  C_6
REMARK    4  A    between atoms: C_9  and  C_10
REMARK    5  A    between atoms: C_27  and  C_28
REMARK                            x       y       z     vdW  Elec       q    Type
REMARK                         _______ _______ _______ _____ _____    ______ ____
ROOT
ATOM      1  C   UNL     1       0.260   9.864  20.127  0.00  0.00    +0.000 A 
ATOM      2  C   UNL     1       1.020  10.909  20.580  0.00  0.00    +0.000 A 
ATOM      3  C   UNL     1       0.675  11.995  19.834  0.00  0.00    +0.000 A 
ATOM      4  C   UNL     1      -0.630  12.340  19.705  0.00  0.00    +0.000 A 
ATOM      5  N   UNL     1      -0.533  13.737  19.668  0.00  0.00    +0.000 N 
ATOM      6  C   UNL     1       0.775  14.045  19.340  0.00  0.00    +0.000 A 
ATOM      7  C   UNL     1       1.564  15.180  19.408  0.00  0.00    +0.000 A 
ATOM      8  C   UNL     1       2.873  15.035  18.906  0.00  0.00    +0.000 A 
ATOM      9  C   UNL     1       3.303  13.888  18.217  0.00  0.00    +0.000 A 
ATOM     10  C   UNL     1       2.507  12.755  18.197  0.00  0.00    +0.000 A 
ATOM     11  C   UNL     1       1.335  12.841  18.946  0.00  0.00    +0.000 A 
ATOM     12  C   UNL     1      -1.614  11.376  19.520  0.00  0.00    +0.000 A 
ATOM     13  N   UNL     1      -1.038  10.060  19.531  0.00  0.00    +0.000 NA
ATOM     14  H   UNL     1      -1.299  14.390  19.801  0.00  0.00    +0.000 HD
ENDROOT
BRANCH  12  15
ATOM     15  C   UNL     1      -2.897  11.911  18.872  0.00  0.00    +0.000 A 
ATOM     16  C   UNL     1      -3.857  12.517  19.728  0.00  0.00    +0.000 A 
ATOM     17  C   UNL     1      -5.232  12.609  19.439  0.00  0.00    +0.000 A 
ATOM     18  C   UNL     1      -5.692  12.204  18.199  0.00  0.00    +0.000 A 
ATOM     19 CL   UNL     1      -7.379  12.283  17.855  0.00  0.00    +0.000 Cl
ATOM     20  C   UNL     1      -4.785  11.693  17.272  0.00  0.00    +0.000 A 
ATOM     21  C   UNL     1      -3.400  11.523  17.606  0.00  0.00    +0.000 A 
ENDBRANCH  12  15
BRANCH   1  23
ATOM     22  O   UNL     1       2.048   9.146  18.689  0.00  0.00    +0.000 OA
ATOM     23  C   UNL     1       1.360   8.858  19.678  0.00  0.00    +0.000 C 
ATOM     24  N   UNL     1       1.985   8.035  20.693  0.00  0.00    +0.000 N 
ATOM     25  H   UNL     1       2.998   8.042  20.540  0.00  0.00    +0.000 HD
BRANCH  24  26
ATOM     26  N   UNL     1       1.556   6.729  20.700  0.00  0.00    +0.000 NA
ATOM     27  C   UNL     1       2.053   5.777  19.966  0.00  0.00    +0.000 C 
BRANCH  27  28
ATOM     28  C   UNL     1       3.246   5.519  19.081  0.00  0.00    +0.000 A 
ATOM     29  C   UNL     1       3.579   6.252  17.958  0.00  0.00    +0.000 A 
ATOM     30  C   UNL     1       4.907   6.230  17.451  0.00  0.00    +0.000 A 
ATOM     31  C   UNL     1       5.917   5.512  18.080  0.00  0.00    +0.000 A 
ATOM     32  C   UNL     1       5.546   4.625  19.107  0.00  0.00    +0.000 A 
ATOM     33  C   UNL     1       4.224   4.643  19.600  0.00  0.00    +0.000 A 
BRANCH  31  34
ATOM     34  C   UNL     1       7.391   5.704  17.757  0.00  0.00    +0.000 C 
ATOM     35  F   UNL     1       8.038   4.520  17.555  0.00  0.00    +0.000 F 
ATOM     36  F   UNL     1       7.567   6.414  16.606  0.00  0.00    +0.000 F 
ATOM     37  F   UNL     1       8.095   6.363  18.714  0.00  0.00    +0.000 F 
ENDBRANCH  31  34
ENDBRANCH  27  28
ENDBRANCH  24  26
ENDBRANCH   1  23
TORSDOF 5
ENDMDL
MODEL 8
REMARK VINA RESULT:      -9.4      6.154      8.405
REMARK  Name = 
REMARK  5 active torsions:
REMARK  status: ('A' for Active; 'I' for Inactive)
REMARK    1  A    between atoms: C_2  and  C_16
REMARK    2  A    between atoms: N_3  and  N_4
REMARK    3  A    between atoms: C_5  and  C_6
REMARK    4  A    between atoms: C_9  and  C_10
REMARK    5  A    between atoms: C_27  and  C_28
REMARK                            x       y       z     vdW  Elec       q    Type
REMARK                         _______ _______ _______ _____ _____    ______ ____
ROOT
ATOM      1  C   UNL     1       4.177   7.113  17.581  0.00  0.00    +0.000 A 
ATOM      2  C   UNL     1       4.117   6.077  18.474  0.00  0.00    +0.000 A 
ATOM      3  C   UNL     1       3.975   4.938  17.742  0.00  0.00    +0.000 A 
ATOM      4  C   UNL     1       4.831   4.676  16.724  0.00  0.00    +0.000 A 
ATOM      5  N   UNL     1       4.930   3.282  16.811  0.00  0.00    +0.000 N 
ATOM      6  C   UNL     1       3.836   2.841  17.535  0.00  0.00    +0.000 A 
ATOM      7  C   UNL     1       3.496   1.668  18.185  0.00  0.00    +0.000 A 
ATOM      8  C   UNL     1       2.215   1.656  18.775  0.00  0.00    +0.000 A 
ATOM      9  C   UNL     1       1.272   2.677  18.570  0.00  0.00    +0.000 A 
ATOM     10  C   UNL     1       1.651   3.854  17.949  0.00  0.00    +0.000 A 
ATOM     11  C   UNL     1       3.004   3.945  17.627  0.00  0.00    +0.000 A 
ATOM     12  C   UNL     1       5.247   5.680  15.857  0.00  0.00    +0.000 A 
ATOM     13  N   UNL     1       4.677   6.942  16.239  0.00  0.00    +0.000 NA
ATOM     14  H   UNL     1       5.643   2.707  16.373  0.00  0.00    +0.000 HD
ENDROOT
BRANCH  12  15
ATOM     15  C   UNL     1       5.746   5.166  14.501  0.00  0.00    +0.000 A 
ATOM     16  C   UNL     1       4.866   4.337  13.753  0.00  0.00    +0.000 A 
ATOM     17  C   UNL     1       5.285   3.402  12.786  0.00  0.00    +0.000 A 
ATOM     18  C   UNL     1       6.620   3.351  12.430  0.00  0.00    +0.000 A 
ATOM     19 CL   UNL     1       7.143   2.186  11.272  0.00  0.00    +0.000 Cl
ATOM     20  C   UNL     1       7.524   4.209  13.054  0.00  0.00    +0.000 A 
ATOM     21  C   UNL     1       7.102   5.097  14.098  0.00  0.00    +0.000 A 
ENDBRANCH  12  15
BRANCH   1  23
ATOM     22  O   UNL     1       2.643   8.947  17.333  0.00  0.00    +0.000 OA
ATOM     23  C   UNL     1       2.960   7.975  18.030  0.00  0.00    +0.000 C 
ATOM     24  N   UNL     1       1.897   7.319  18.763  0.00  0.00    +0.000 N 
ATOM     25  H   UNL     1       0.999   7.619  18.372  0.00  0.00    +0.000 HD
BRANCH  24  26
ATOM     26  N   UNL     1       1.896   7.588  20.111  0.00  0.00    +0.000 NA
ATOM     27  C   UNL     1       1.432   8.675  20.654  0.00  0.00    +0.000 C 
BRANCH  27  28
ATOM     28  C   UNL     1       0.602   9.877  20.279  0.00  0.00    +0.000 A 
ATOM     29  C   UNL     1      -0.251   9.950  19.195  0.00  0.00    +0.000 A 
ATOM     30  C   UNL     1      -1.292  10.917  19.163  0.00  0.00    +0.000 A 
ATOM     31  C   UNL     1      -1.514  11.788  20.222  0.00  0.00    +0.000 A 
ATOM     32  C   UNL     1      -0.542  11.841  21.238  0.00  0.00    +0.000 A 
ATOM     33  C   UNL     1       0.495  10.885  21.261  0.00  0.00    +0.000 A 
BRANCH  31  34
ATOM     34  C   UNL     1      -2.784  12.616  20.360  0.00  0.00    +0.000 C 
ATOM     35  F   UNL     1      -2.545  13.955  20.261  0.00  0.00    +0.000 F 
ATOM     36  F   UNL     1      -3.679  12.333  19.372  0.00  0.00    +0.000 F 
ATOM     37  F   UNL     1      -3.448  12.434  21.531  0.00  0.00    +0.000 F 
ENDBRANCH  31  34
ENDBRANCH  27  28
ENDBRANCH  24  26
ENDBRANCH   1  23
TORSDOF 5
ENDMDL
MODEL 9
REMARK VINA RESULT:      -9.2      6.452      8.719
REMARK  Name = 
REMARK  5 active torsions:
REMARK  status: ('A' for Active; 'I' for Inactive)
REMARK    1  A    between atoms: C_2  and  C_16
REMARK    2  A    between atoms: N_3  and  N_4
REMARK    3  A    between atoms: C_5  and  C_6
REMARK    4  A    between atoms: C_9  and  C_10
REMARK    5  A    between atoms: C_27  and  C_28
REMARK                            x       y       z     vdW  Elec       q    Type
REMARK                         _______ _______ _______ _____ _____    ______ ____
ROOT
ATOM      1  C   UNL     1       4.070   7.031  17.738  0.00  0.00    +0.000 A 
ATOM      2  C   UNL     1       3.813   6.119  18.727  0.00  0.00    +0.000 A 
ATOM      3  C   UNL     1       3.719   4.903  18.122  0.00  0.00    +0.000 A 
ATOM      4  C   UNL     1       4.704   4.482  17.292  0.00  0.00    +0.000 A 
ATOM      5  N   UNL     1       4.708   3.107  17.559  0.00  0.00    +0.000 N 
ATOM      6  C   UNL     1       3.492   2.804  18.146  0.00  0.00    +0.000 A 
ATOM      7  C   UNL     1       2.989   1.737  18.868  0.00  0.00    +0.000 A 
ATOM      8  C   UNL     1       1.634   1.848  19.243  0.00  0.00    +0.000 A 
ATOM      9  C   UNL     1       0.794   2.871  18.771  0.00  0.00    +0.000 A 
ATOM     10  C   UNL     1       1.332   3.945  18.083  0.00  0.00    +0.000 A 
ATOM     11  C   UNL     1       2.722   3.942  17.973  0.00  0.00    +0.000 A 
ATOM     12  C   UNL     1       5.306   5.352  16.390  0.00  0.00    +0.000 A 
ATOM     13  N   UNL     1       4.758   6.673  16.523  0.00  0.00    +0.000 NA
ATOM     14  H   UNL     1       5.445   2.455  17.311  0.00  0.00    +0.000 HD
ENDROOT
BRANCH  12  15
ATOM     15  C   UNL     1       5.977   4.651  15.201  0.00  0.00    +0.000 A 
ATOM     16  C   UNL     1       7.197   5.201  14.724  0.00  0.00    +0.000 A 
ATOM     17  C   UNL     1       7.684   5.035  13.412  0.00  0.00    +0.000 A 
ATOM     18  C   UNL     1       7.017   4.188  12.546  0.00  0.00    +0.000 A 
ATOM     19 CL   UNL     1       7.590   4.009  10.930  0.00  0.00    +0.000 Cl
ATOM     20  C   UNL     1       5.866   3.536  12.984  0.00  0.00    +0.000 A 
ATOM     21  C   UNL     1       5.330   3.778  14.293  0.00  0.00    +0.000 A 
ENDBRANCH  12  15
BRANCH   1  23
ATOM     22  O   UNL     1       2.557   8.712  16.920  0.00  0.00    +0.000 OA
ATOM     23  C   UNL     1       2.850   7.989  17.881  0.00  0.00    +0.000 C 
ATOM     24  N   UNL     1       1.764   7.582  18.749  0.00  0.00    +0.000 N 
ATOM     25  H   UNL     1       0.878   7.754  18.265  0.00  0.00    +0.000 HD
BRANCH  24  26
ATOM     26  N   UNL     1       1.734   8.237  19.957  0.00  0.00    +0.000 NA
ATOM     27  C   UNL     1       1.096   9.347  20.187  0.00  0.00    +0.000 C 
BRANCH  27  28
ATOM     28  C   UNL     1       0.066  10.232  19.531  0.00  0.00    +0.000 A 
ATOM     29  C   UNL     1      -0.309  10.168  18.202  0.00  0.00    +0.000 A 
ATOM     30  C   UNL     1      -1.553  10.711  17.779  0.00  0.00    +0.000 A 
ATOM     31  C   UNL     1      -2.444  11.283  18.678  0.00  0.00    +0.000 A 
ATOM     32  C   UNL     1      -1.991  11.514  19.990  0.00  0.00    +0.000 A 
ATOM     33  C   UNL     1      -0.751  10.982  20.403  0.00  0.00    +0.000 A 
BRANCH  31  34
ATOM     34  C   UNL     1      -3.892  11.592  18.324  0.00  0.00    +0.000 C 
ATOM     35  F   UNL     1      -4.715  10.521  18.514  0.00  0.00    +0.000 F 
ATOM     36  F   UNL     1      -4.401  12.585  19.107  0.00  0.00    +0.000 F 
ATOM     37  F   UNL     1      -4.081  11.994  17.039  0.00  0.00    +0.000 F 
ENDBRANCH  31  34
ENDBRANCH  27  28
ENDBRANCH  24  26
ENDBRANCH   1  23
TORSDOF 5
ENDMDL
