MODEL 1
REMARK VINA RESULT:      -7.2      0.000      0.000
REMARK  Name = 
REMARK  13 active torsions:
REMARK  status: ('A' for Active; 'I' for Inactive)
REMARK    1  A    between atoms: C_1  and  O_2
REMARK    2  A    between atoms: O_2  and  C_3
REMARK    3  A    between atoms: C_6  and  C_7
REMARK    4  A    between atoms: C_7  and  C_8
REMARK    5  A    between atoms: C_8  and  N_9
REMARK    6  A    between atoms: C_10  and  C_12
REMARK    7  A    between atoms: C_12  and  S_13
REMARK    8  A    between atoms: S_13  and  C_14
REMARK    9  A    between atoms: C_17  and  C_18
REMARK   10  A    between atoms: C_18  and  N_19
REMARK   11  A    between atoms: N_19  and  C_20
REMARK   12  A    between atoms: C_29  and  O_30
REMARK   13  A    between atoms: O_30  and  C_31
REMARK                            x       y       z     vdW  Elec       q    Type
REMARK                         _______ _______ _______ _____ _____    ______ ____
ROOT
ATOM      1  C   UNL     1       0.920   5.118  20.254  0.00  0.00    +0.000 C 
ENDROOT
BRANCH   1   3
ATOM      2  N   UNL     1       2.013   4.217  18.235  0.00  0.00    +0.000 N 
ATOM      3  C   UNL     1       1.386   3.920  19.434  0.00  0.00    +0.000 C 
ATOM      4  O   UNL     1       1.221   2.762  19.826  0.00  0.00    +0.000 OA
ATOM      5  H   UNL     1       1.913   5.152  17.857  0.00  0.00    +0.000 HD
BRANCH   2   6
ATOM      6  C   UNL     1       2.444   3.140  17.354  0.00  0.00    +0.000 C 
BRANCH   6   7
ATOM      7  C   UNL     1       3.915   2.746  17.538  0.00  0.00    +0.000 C 
BRANCH   7  11
ATOM      8  C   UNL     1       6.764   5.925  16.773  0.00  0.00    +0.000 A 
ATOM      9  C   UNL     1       5.968   5.933  17.930  0.00  0.00    +0.000 A 
ATOM     10  C   UNL     1       5.031   4.926  18.174  0.00  0.00    +0.000 A 
ATOM     11  C   UNL     1       4.839   3.906  17.241  0.00  0.00    +0.000 A 
ATOM     12  C   UNL     1       5.567   3.953  16.041  0.00  0.00    +0.000 A 
ATOM     13  C   UNL     1       6.520   4.954  15.788  0.00  0.00    +0.000 A 
BRANCH   8  15
ATOM     14  C   UNL     1       7.732   7.958  17.503  0.00  0.00    +0.000 C 
ATOM     15  O   UNL     1       7.742   6.863  16.583  0.00  0.00    +0.000 OA
ENDBRANCH   8  15
BRANCH  13  16
ATOM     16  O   UNL     1       7.114   4.801  14.563  0.00  0.00    +0.000 OA
ATOM     17  C   UNL     1       6.449   4.059  13.552  0.00  0.00    +0.000 C 
ENDBRANCH  13  16
ENDBRANCH   7  11
ENDBRANCH   6   7
ENDBRANCH   2   6
ENDBRANCH   1   3
BRANCH   1  18
ATOM     18  S   UNL     1       2.334   6.189  20.638  0.00  0.00    +0.000 S 
BRANCH  18  19
ATOM     19  C   UNL     1       2.127   7.464  19.472  0.00  0.00    +0.000 A 
ATOM     20  N   UNL     1       2.476   7.402  18.202  0.00  0.00    +0.000 NA
ATOM     21  N   UNL     1       2.093   8.597  17.620  0.00  0.00    +0.000 NA
ATOM     22  C   UNL     1       1.533   9.314  18.573  0.00  0.00    +0.000 A 
ATOM     23  O   UNL     1       1.525   8.662  19.782  0.00  0.00    +0.000 OA
BRANCH  22  24
ATOM     24  C   UNL     1       0.910  10.679  18.515  0.00  0.00    +0.000 C 
BRANCH  24  25
ATOM     25  N   UNL     1      -0.188  10.900  19.465  0.00  0.00    +0.000 N 
ATOM     26  H   UNL     1      -0.143  10.250  20.246  0.00  0.00    +0.000 HD
BRANCH  25  27
ATOM     27  C   UNL     1      -1.500  11.082  19.013  0.00  0.00    +0.000 A 
ATOM     28  C   UNL     1      -2.005  10.188  18.055  0.00  0.00    +0.000 A 
ATOM     29  C   UNL     1      -3.329  10.261  17.607  0.00  0.00    +0.000 A 
ATOM     30  C   UNL     1      -4.184  11.215  18.141  0.00  0.00    +0.000 A 
ATOM     31 CL   UNL     1      -5.817  11.299  17.607  0.00  0.00    +0.000 Cl
ATOM     32  C   UNL     1      -3.722  12.091  19.121  0.00  0.00    +0.000 A 
ATOM     33  C   UNL     1      -2.391  12.016  19.558  0.00  0.00    +0.000 A 
ENDBRANCH  25  27
ENDBRANCH  24  25
ENDBRANCH  22  24
ENDBRANCH  18  19
ENDBRANCH   1  18
TORSDOF 11
ENDMDL
MODEL 2
REMARK VINA RESULT:      -7.1      3.871      8.254
REMARK  Name = 
REMARK  13 active torsions:
REMARK  status: ('A' for Active; 'I' for Inactive)
REMARK    1  A    between atoms: C_1  and  O_2
REMARK    2  A    between atoms: O_2  and  C_3
REMARK    3  A    between atoms: C_6  and  C_7
REMARK    4  A    between atoms: C_7  and  C_8
REMARK    5  A    between atoms: C_8  and  N_9
REMARK    6  A    between atoms: C_10  and  C_12
REMARK    7  A    between atoms: C_12  and  S_13
REMARK    8  A    between atoms: S_13  and  C_14
REMARK    9  A    between atoms: C_17  and  C_18
REMARK   10  A    between atoms: C_18  and  N_19
REMARK   11  A    between atoms: N_19  and  C_20
REMARK   12  A    between atoms: C_29  and  O_30
REMARK   13  A    between atoms: O_30  and  C_31
REMARK                            x       y       z     vdW  Elec       q    Type
REMARK                         _______ _______ _______ _____ _____    ______ ____
ROOT
ATOM      1  C   UNL     1       2.291   3.226  21.300  0.00  0.00    +0.000 C 
ENDROOT
BRANCH   1   3
ATOM      2  N   UNL     1       3.486   5.060  20.165  0.00  0.00    +0.000 N 
ATOM      3  C   UNL     1       2.355   4.688  20.874  0.00  0.00    +0.000 C 
ATOM      4  O   UNL     1       1.448   5.481  21.138  0.00  0.00    +0.000 OA
ATOM      5  H   UNL     1       4.290   4.443  20.181  0.00  0.00    +0.000 HD
BRANCH   2   6
ATOM      6  C   UNL     1       3.667   6.448  19.761  0.00  0.00    +0.000 C 
BRANCH   6   7
ATOM      7  C   UNL     1       2.869   6.834  18.509  0.00  0.00    +0.000 C 
BRANCH   7  11
ATOM      8  C   UNL     1       0.161  10.153  19.183  0.00  0.00    +0.000 A 
ATOM      9  C   UNL     1       0.837  10.011  17.960  0.00  0.00    +0.000 A 
ATOM     10  C   UNL     1       1.730   8.959  17.742  0.00  0.00    +0.000 A 
ATOM     11  C   UNL     1       1.997   8.044  18.761  0.00  0.00    +0.000 A 
ATOM     12  C   UNL     1       1.394   8.244  20.013  0.00  0.00    +0.000 A 
ATOM     13  C   UNL     1       0.486   9.291  20.243  0.00  0.00    +0.000 A 
BRANCH   8  15
ATOM     14  C   UNL     1      -0.636  12.281  18.521  0.00  0.00    +0.000 C 
ATOM     15  O   UNL     1      -0.779  11.132  19.360  0.00  0.00    +0.000 OA
ENDBRANCH   8  15
BRANCH  13  16
ATOM     16  O   UNL     1       0.016   9.291  21.529  0.00  0.00    +0.000 OA
ATOM     17  C   UNL     1       0.184  10.447  22.335  0.00  0.00    +0.000 C 
ENDBRANCH  13  16
ENDBRANCH   7  11
ENDBRANCH   6   7
ENDBRANCH   2   6
ENDBRANCH   1   3
BRANCH   1  18
ATOM     18  S   UNL     1       1.338   2.270  20.087  0.00  0.00    +0.000 S 
BRANCH  18  19
ATOM     19  C   UNL     1       2.024   2.833  18.589  0.00  0.00    +0.000 A 
ATOM     20  N   UNL     1       1.342   3.320  17.572  0.00  0.00    +0.000 NA
ATOM     21  N   UNL     1       2.263   3.695  16.611  0.00  0.00    +0.000 NA
ATOM     22  C   UNL     1       3.452   3.412  17.105  0.00  0.00    +0.000 A 
ATOM     23  O   UNL     1       3.380   2.854  18.357  0.00  0.00    +0.000 OA
BRANCH  22  24
ATOM     24  C   UNL     1       4.818   3.628  16.517  0.00  0.00    +0.000 C 
BRANCH  24  25
ATOM     25  N   UNL     1       5.895   3.798  17.500  0.00  0.00    +0.000 N 
ATOM     26  H   UNL     1       5.645   3.401  18.402  0.00  0.00    +0.000 HD
BRANCH  25  27
ATOM     27  C   UNL     1       6.553   5.026  17.637  0.00  0.00    +0.000 A 
ATOM     28  C   UNL     1       6.097   6.115  16.877  0.00  0.00    +0.000 A 
ATOM     29  C   UNL     1       6.657   7.390  17.010  0.00  0.00    +0.000 A 
ATOM     30  C   UNL     1       7.667   7.605  17.938  0.00  0.00    +0.000 A 
ATOM     31 CL   UNL     1       8.347   9.175  18.119  0.00  0.00    +0.000 Cl
ATOM     32  C   UNL     1       8.113   6.552  18.734  0.00  0.00    +0.000 A 
ATOM     33  C   UNL     1       7.553   5.274  18.587  0.00  0.00    +0.000 A 
ENDBRANCH  25  27
ENDBRANCH  24  25
ENDBRANCH  22  24
ENDBRANCH  18  19
ENDBRANCH   1  18
TORSDOF 11
ENDMDL
MODEL 3
REMARK VINA RESULT:      -7.1      4.641      9.457
REMARK  Name = 
REMARK  13 active torsions:
REMARK  status: ('A' for Active; 'I' for Inactive)
REMARK    1  A    between atoms: C_1  and  O_2
REMARK    2  A    between atoms: O_2  and  C_3
REMARK    3  A    between atoms: C_6  and  C_7
REMARK    4  A    between atoms: C_7  and  C_8
REMARK    5  A    between atoms: C_8  and  N_9
REMARK    6  A    between atoms: C_10  and  C_12
REMARK    7  A    between atoms: C_12  and  S_13
REMARK    8  A    between atoms: S_13  and  C_14
REMARK    9  A    between atoms: C_17  and  C_18
REMARK   10  A    between atoms: C_18  and  N_19
REMARK   11  A    between atoms: N_19  and  C_20
REMARK   12  A    between atoms: C_29  and  O_30
REMARK   13  A    between atoms: O_30  and  C_31
REMARK                            x       y       z     vdW  Elec       q    Type
REMARK                         _______ _______ _______ _____ _____    ______ ____
ROOT
ATOM      1  C   UNL     1       3.987   4.166  18.109  0.00  0.00    +0.000 C 
ENDROOT
BRANCH   1   3
ATOM      2  N   UNL     1       3.351   6.503  18.569  0.00  0.00    +0.000 N 
ATOM      3  C   UNL     1       3.011   5.167  18.714  0.00  0.00    +0.000 C 
ATOM      4  O   UNL     1       1.979   4.805  19.285  0.00  0.00    +0.000 OA
ATOM      5  H   UNL     1       4.303   6.733  18.308  0.00  0.00    +0.000 HD
BRANCH   2   6
ATOM      6  C   UNL     1       2.511   7.535  19.161  0.00  0.00    +0.000 C 
BRANCH   6   7
ATOM      7  C   UNL     1       1.823   8.437  18.129  0.00  0.00    +0.000 C 
BRANCH   7  11
ATOM      8  C   UNL     1      -0.941  11.129  20.110  0.00  0.00    +0.000 A 
ATOM      9  C   UNL     1      -0.974  10.959  18.716  0.00  0.00    +0.000 A 
ATOM     10  C   UNL     1      -0.072  10.113  18.066  0.00  0.00    +0.000 A 
ATOM     11  C   UNL     1       0.913   9.445  18.795  0.00  0.00    +0.000 A 
ATOM     12  C   UNL     1       1.005   9.691  20.175  0.00  0.00    +0.000 A 
ATOM     13  C   UNL     1       0.098  10.531  20.843  0.00  0.00    +0.000 A 
BRANCH   8  15
ATOM     14  C   UNL     1      -1.634  13.296  20.761  0.00  0.00    +0.000 C 
ATOM     15  O   UNL     1      -1.882  11.887  20.751  0.00  0.00    +0.000 OA
ENDBRANCH   8  15
BRANCH  13  16
ATOM     16  O   UNL     1       0.370  10.620  22.182  0.00  0.00    +0.000 OA
ATOM     17  C   UNL     1      -0.235   9.701  23.080  0.00  0.00    +0.000 C 
ENDBRANCH  13  16
ENDBRANCH   7  11
ENDBRANCH   6   7
ENDBRANCH   2   6
ENDBRANCH   1   3
BRANCH   1  18
ATOM     18  S   UNL     1       4.801   4.895  16.659  0.00  0.00    +0.000 S 
BRANCH  18  19
ATOM     19  C   UNL     1       6.129   5.742  17.399  0.00  0.00    +0.000 A 
ATOM     20  N   UNL     1       7.025   5.205  18.201  0.00  0.00    +0.000 NA
ATOM     21  N   UNL     1       7.928   6.202  18.523  0.00  0.00    +0.000 NA
ATOM     22  C   UNL     1       7.524   7.287  17.893  0.00  0.00    +0.000 A 
ATOM     23  O   UNL     1       6.381   7.074  17.164  0.00  0.00    +0.000 OA
BRANCH  22  24
ATOM     24  C   UNL     1       8.131   8.661  17.851  0.00  0.00    +0.000 C 
BRANCH  24  25
ATOM     25  N   UNL     1       8.840   9.063  19.073  0.00  0.00    +0.000 N 
ATOM     26  H   UNL     1       8.334   8.781  19.908  0.00  0.00    +0.000 HD
BRANCH  25  27
ATOM     27  C   UNL     1       9.378  10.349  19.198  0.00  0.00    +0.000 A 
ATOM     28  C   UNL     1       9.617  10.848  20.489  0.00  0.00    +0.000 A 
ATOM     29  C   UNL     1      10.218  12.095  20.695  0.00  0.00    +0.000 A 
ATOM     30  C   UNL     1      10.625  12.851  19.605  0.00  0.00    +0.000 A 
ATOM     31 CL   UNL     1      11.381  14.376  19.852  0.00  0.00    +0.000 Cl
ATOM     32  C   UNL     1      10.437  12.364  18.313  0.00  0.00    +0.000 A 
ATOM     33  C   UNL     1       9.825  11.117  18.115  0.00  0.00    +0.000 A 
ENDBRANCH  25  27
ENDBRANCH  24  25
ENDBRANCH  22  24
ENDBRANCH  18  19
ENDBRANCH   1  18
TORSDOF 11
ENDMDL
MODEL 4
REMARK VINA RESULT:      -6.9      1.818      2.141
REMARK  Name = 
REMARK  13 active torsions:
REMARK  status: ('A' for Active; 'I' for Inactive)
REMARK    1  A    between atoms: C_1  and  O_2
REMARK    2  A    between atoms: O_2  and  C_3
REMARK    3  A    between atoms: C_6  and  C_7
REMARK    4  A    between atoms: C_7  and  C_8
REMARK    5  A    between atoms: C_8  and  N_9
REMARK    6  A    between atoms: C_10  and  C_12
REMARK    7  A    between atoms: C_12  and  S_13
REMARK    8  A    between atoms: S_13  and  C_14
REMARK    9  A    between atoms: C_17  and  C_18
REMARK   10  A    between atoms: C_18  and  N_19
REMARK   11  A    between atoms: N_19  and  C_20
REMARK   12  A    between atoms: C_29  and  O_30
REMARK   13  A    between atoms: O_30  and  C_31
REMARK                            x       y       z     vdW  Elec       q    Type
REMARK                         _______ _______ _______ _____ _____    ______ ____
ROOT
ATOM      1  C   UNL     1       0.847   4.191  20.241  0.00  0.00    +0.000 C 
ENDROOT
BRANCH   1   3
ATOM      2  N   UNL     1       2.845   3.074  19.326  0.00  0.00    +0.000 N 
ATOM      3  C   UNL     1       1.485   3.299  19.183  0.00  0.00    +0.000 C 
ATOM      4  O   UNL     1       0.824   2.803  18.267  0.00  0.00    +0.000 OA
ATOM      5  H   UNL     1       3.372   3.682  19.942  0.00  0.00    +0.000 HD
BRANCH   2   6
ATOM      6  C   UNL     1       3.559   2.280  18.334  0.00  0.00    +0.000 C 
BRANCH   6   7
ATOM      7  C   UNL     1       3.589   2.919  16.940  0.00  0.00    +0.000 C 
BRANCH   7  11
ATOM      8  C   UNL     1       6.716   5.918  16.757  0.00  0.00    +0.000 A 
ATOM      9  C   UNL     1       5.973   5.723  17.932  0.00  0.00    +0.000 A 
ATOM     10  C   UNL     1       4.948   4.776  17.993  0.00  0.00    +0.000 A 
ATOM     11  C   UNL     1       4.615   4.028  16.863  0.00  0.00    +0.000 A 
ATOM     12  C   UNL     1       5.295   4.293  15.664  0.00  0.00    +0.000 A 
ATOM     13  C   UNL     1       6.335   5.235  15.590  0.00  0.00    +0.000 A 
BRANCH   8  15
ATOM     14  C   UNL     1       7.669   7.918  17.590  0.00  0.00    +0.000 C 
ATOM     15  O   UNL     1       7.778   6.782  16.728  0.00  0.00    +0.000 OA
ENDBRANCH   8  15
BRANCH  13  16
ATOM     16  O   UNL     1       6.860   5.325  14.328  0.00  0.00    +0.000 OA
ATOM     17  C   UNL     1       6.727   4.228  13.437  0.00  0.00    +0.000 C 
ENDBRANCH  13  16
ENDBRANCH   7  11
ENDBRANCH   6   7
ENDBRANCH   2   6
ENDBRANCH   1   3
BRANCH   1  18
ATOM     18  S   UNL     1       2.123   5.188  21.060  0.00  0.00    +0.000 S 
BRANCH  18  19
ATOM     19  C   UNL     1       1.994   6.692  20.195  0.00  0.00    +0.000 A 
ATOM     20  N   UNL     1       2.410   6.902  18.962  0.00  0.00    +0.000 NA
ATOM     21  N   UNL     1       2.073   8.204  18.639  0.00  0.00    +0.000 NA
ATOM     22  C   UNL     1       1.469   8.707  19.697  0.00  0.00    +0.000 A 
ATOM     23  O   UNL     1       1.388   7.806  20.730  0.00  0.00    +0.000 OA
BRANCH  22  24
ATOM     24  C   UNL     1       0.865  10.066  19.910  0.00  0.00    +0.000 C 
BRANCH  24  25
ATOM     25  N   UNL     1       0.574  10.402  21.310  0.00  0.00    +0.000 N 
ATOM     26  H   UNL     1       0.680   9.594  21.918  0.00  0.00    +0.000 HD
BRANCH  25  27
ATOM     27  C   UNL     1      -0.552  11.162  21.645  0.00  0.00    +0.000 A 
ATOM     28  C   UNL     1      -1.253  11.806  20.612  0.00  0.00    +0.000 A 
ATOM     29  C   UNL     1      -2.428  12.525  20.858  0.00  0.00    +0.000 A 
ATOM     30  C   UNL     1      -2.942  12.583  22.147  0.00  0.00    +0.000 A 
ATOM     31 CL   UNL     1      -4.395  13.451  22.453  0.00  0.00    +0.000 Cl
ATOM     32  C   UNL     1      -2.289  11.922  23.185  0.00  0.00    +0.000 A 
ATOM     33  C   UNL     1      -1.106  11.210  22.931  0.00  0.00    +0.000 A 
ENDBRANCH  25  27
ENDBRANCH  24  25
ENDBRANCH  22  24
ENDBRANCH  18  19
ENDBRANCH   1  18
TORSDOF 11
ENDMDL
MODEL 5
REMARK VINA RESULT:      -6.9      1.135      1.443
REMARK  Name = 
REMARK  13 active torsions:
REMARK  status: ('A' for Active; 'I' for Inactive)
REMARK    1  A    between atoms: C_1  and  O_2
REMARK    2  A    between atoms: O_2  and  C_3
REMARK    3  A    between atoms: C_6  and  C_7
REMARK    4  A    between atoms: C_7  and  C_8
REMARK    5  A    between atoms: C_8  and  N_9
REMARK    6  A    between atoms: C_10  and  C_12
REMARK    7  A    between atoms: C_12  and  S_13
REMARK    8  A    between atoms: S_13  and  C_14
REMARK    9  A    between atoms: C_17  and  C_18
REMARK   10  A    between atoms: C_18  and  N_19
REMARK   11  A    between atoms: N_19  and  C_20
REMARK   12  A    between atoms: C_29  and  O_30
REMARK   13  A    between atoms: O_30  and  C_31
REMARK                            x       y       z     vdW  Elec       q    Type
REMARK                         _______ _______ _______ _____ _____    ______ ____
ROOT
ATOM      1  C   UNL     1       1.183   4.690  20.362  0.00  0.00    +0.000 C 
ENDROOT
BRANCH   1   3
ATOM      2  N   UNL     1       3.023   3.463  19.273  0.00  0.00    +0.000 N 
ATOM      3  C   UNL     1       1.655   3.676  19.327  0.00  0.00    +0.000 C 
ATOM      4  O   UNL     1       0.862   3.079  18.594  0.00  0.00    +0.000 OA
ATOM      5  H   UNL     1       3.634   4.136  19.720  0.00  0.00    +0.000 HD
BRANCH   2   6
ATOM      6  C   UNL     1       3.579   2.554  18.279  0.00  0.00    +0.000 C 
BRANCH   6   7
ATOM      7  C   UNL     1       3.638   3.147  16.867  0.00  0.00    +0.000 C 
BRANCH   7  11
ATOM      8  C   UNL     1       6.752   6.163  16.725  0.00  0.00    +0.000 A 
ATOM      9  C   UNL     1       5.750   6.206  17.709  0.00  0.00    +0.000 A 
ATOM     10  C   UNL     1       4.729   5.254  17.748  0.00  0.00    +0.000 A 
ATOM     11  C   UNL     1       4.665   4.254  16.776  0.00  0.00    +0.000 A 
ATOM     12  C   UNL     1       5.611   4.270  15.738  0.00  0.00    +0.000 A 
ATOM     13  C   UNL     1       6.649   5.216  15.693  0.00  0.00    +0.000 A 
BRANCH   8  15
ATOM     14  C   UNL     1       7.781   7.997  17.811  0.00  0.00    +0.000 C 
ATOM     15  O   UNL     1       7.799   7.044  16.745  0.00  0.00    +0.000 OA
ENDBRANCH   8  15
BRANCH  13  16
ATOM     16  O   UNL     1       7.458   5.040  14.602  0.00  0.00    +0.000 OA
ATOM     17  C   UNL     1       6.886   4.650  13.363  0.00  0.00    +0.000 C 
ENDBRANCH  13  16
ENDBRANCH   7  11
ENDBRANCH   6   7
ENDBRANCH   2   6
ENDBRANCH   1   3
BRANCH   1  18
ATOM     18  S   UNL     1       2.547   5.803  20.803  0.00  0.00    +0.000 S 
BRANCH  18  19
ATOM     19  C   UNL     1       1.876   7.353  20.382  0.00  0.00    +0.000 A 
ATOM     20  N   UNL     1       1.241   8.160  21.208  0.00  0.00    +0.000 NA
ATOM     21  N   UNL     1       0.920   9.299  20.491  0.00  0.00    +0.000 NA
ATOM     22  C   UNL     1       1.383   9.116  19.271  0.00  0.00    +0.000 A 
ATOM     23  O   UNL     1       1.998   7.896  19.124  0.00  0.00    +0.000 OA
BRANCH  22  24
ATOM     24  C   UNL     1       1.350  10.028  18.078  0.00  0.00    +0.000 C 
BRANCH  24  25
ATOM     25  N   UNL     1       0.434  11.169  18.197  0.00  0.00    +0.000 N 
ATOM     26  H   UNL     1       0.702  11.786  18.960  0.00  0.00    +0.000 HD
BRANCH  25  27
ATOM     27  C   UNL     1      -0.952  10.984  18.138  0.00  0.00    +0.000 A 
ATOM     28  C   UNL     1      -1.769  11.821  18.915  0.00  0.00    +0.000 A 
ATOM     29  C   UNL     1      -3.165  11.746  18.857  0.00  0.00    +0.000 A 
ATOM     30  C   UNL     1      -3.770  10.848  17.988  0.00  0.00    +0.000 A 
ATOM     31 CL   UNL     1      -5.486  10.762  17.898  0.00  0.00    +0.000 Cl
ATOM     32  C   UNL     1      -2.985  10.032  17.176  0.00  0.00    +0.000 A 
ATOM     33  C   UNL     1      -1.585  10.108  17.247  0.00  0.00    +0.000 A 
ENDBRANCH  25  27
ENDBRANCH  24  25
ENDBRANCH  22  24
ENDBRANCH  18  19
ENDBRANCH   1  18
TORSDOF 11
ENDMDL
MODEL 6
REMARK VINA RESULT:      -6.9      6.720     10.530
REMARK  Name = 
REMARK  13 active torsions:
REMARK  status: ('A' for Active; 'I' for Inactive)
REMARK    1  A    between atoms: C_1  and  O_2
REMARK    2  A    between atoms: O_2  and  C_3
REMARK    3  A    between atoms: C_6  and  C_7
REMARK    4  A    between atoms: C_7  and  C_8
REMARK    5  A    between atoms: C_8  and  N_9
REMARK    6  A    between atoms: C_10  and  C_12
REMARK    7  A    between atoms: C_12  and  S_13
REMARK    8  A    between atoms: S_13  and  C_14
REMARK    9  A    between atoms: C_17  and  C_18
REMARK   10  A    between atoms: C_18  and  N_19
REMARK   11  A    between atoms: N_19  and  C_20
REMARK   12  A    between atoms: C_29  and  O_30
REMARK   13  A    between atoms: O_30  and  C_31
REMARK                            x       y       z     vdW  Elec       q    Type
REMARK                         _______ _______ _______ _____ _____    ______ ____
ROOT
ATOM      1  C   UNL     1       9.386   9.793  19.248  0.00  0.00    +0.000 C 
ENDROOT
BRANCH   1   3
ATOM      2  N   UNL     1       9.588  11.322  21.172  0.00  0.00    +0.000 N 
ATOM      3  C   UNL     1       9.454  11.213  19.797  0.00  0.00    +0.000 C 
ATOM      4  O   UNL     1       9.402  12.198  19.056  0.00  0.00    +0.000 OA
ATOM      5  H   UNL     1       9.391  10.508  21.742  0.00  0.00    +0.000 HD
BRANCH   2   6
ATOM      6  C   UNL     1       9.607  12.637  21.799  0.00  0.00    +0.000 C 
BRANCH   6   7
ATOM      7  C   UNL     1       8.212  13.181  22.130  0.00  0.00    +0.000 C 
BRANCH   7  11
ATOM      8  C   UNL     1       7.241  11.999  26.187  0.00  0.00    +0.000 A 
ATOM      9  C   UNL     1       6.596  11.405  25.090  0.00  0.00    +0.000 A 
ATOM     10  C   UNL     1       6.884  11.797  23.780  0.00  0.00    +0.000 A 
ATOM     11  C   UNL     1       7.799  12.822  23.540  0.00  0.00    +0.000 A 
ATOM     12  C   UNL     1       8.370  13.479  24.642  0.00  0.00    +0.000 A 
ATOM     13  C   UNL     1       8.097  13.089  25.964  0.00  0.00    +0.000 A 
BRANCH   8  15
ATOM     14  C   UNL     1       5.996  10.563  27.598  0.00  0.00    +0.000 C 
ATOM     15  O   UNL     1       7.021  11.550  27.462  0.00  0.00    +0.000 OA
ENDBRANCH   8  15
BRANCH  13  16
ATOM     16  O   UNL     1       8.767  13.860  26.877  0.00  0.00    +0.000 OA
ATOM     17  C   UNL     1       8.145  15.025  27.398  0.00  0.00    +0.000 C 
ENDBRANCH  13  16
ENDBRANCH   7  11
ENDBRANCH   6   7
ENDBRANCH   2   6
ENDBRANCH   1   3
BRANCH   1  18
ATOM     18  S   UNL     1       8.226   9.724  17.854  0.00  0.00    +0.000 S 
BRANCH  18  19
ATOM     19  C   UNL     1       7.842   8.027  17.808  0.00  0.00    +0.000 A 
ATOM     20  N   UNL     1       8.207   7.137  18.709  0.00  0.00    +0.000 NA
ATOM     21  N   UNL     1       7.657   5.927  18.327  0.00  0.00    +0.000 NA
ATOM     22  C   UNL     1       6.988   6.157  17.214  0.00  0.00    +0.000 A 
ATOM     23  O   UNL     1       7.067   7.469  16.819  0.00  0.00    +0.000 OA
BRANCH  22  24
ATOM     24  C   UNL     1       6.170   5.222  16.369  0.00  0.00    +0.000 C 
BRANCH  24  25
ATOM     25  N   UNL     1       5.793   3.964  17.025  0.00  0.00    +0.000 N 
ATOM     26  H   UNL     1       5.939   3.164  16.414  0.00  0.00    +0.000 HD
BRANCH  25  27
ATOM     27  C   UNL     1       4.594   3.860  17.740  0.00  0.00    +0.000 A 
ATOM     28  C   UNL     1       4.556   4.354  19.054  0.00  0.00    +0.000 A 
ATOM     29  C   UNL     1       3.378   4.352  19.807  0.00  0.00    +0.000 A 
ATOM     30  C   UNL     1       2.200   3.882  19.241  0.00  0.00    +0.000 A 
ATOM     31 CL   UNL     1       0.743   3.892  20.155  0.00  0.00    +0.000 Cl
ATOM     32  C   UNL     1       2.198   3.421  17.926  0.00  0.00    +0.000 A 
ATOM     33  C   UNL     1       3.388   3.419  17.180  0.00  0.00    +0.000 A 
ENDBRANCH  25  27
ENDBRANCH  24  25
ENDBRANCH  22  24
ENDBRANCH  18  19
ENDBRANCH   1  18
TORSDOF 11
ENDMDL
MODEL 7
REMARK VINA RESULT:      -6.7      4.190      6.706
REMARK  Name = 
REMARK  13 active torsions:
REMARK  status: ('A' for Active; 'I' for Inactive)
REMARK    1  A    between atoms: C_1  and  O_2
REMARK    2  A    between atoms: O_2  and  C_3
REMARK    3  A    between atoms: C_6  and  C_7
REMARK    4  A    between atoms: C_7  and  C_8
REMARK    5  A    between atoms: C_8  and  N_9
REMARK    6  A    between atoms: C_10  and  C_12
REMARK    7  A    between atoms: C_12  and  S_13
REMARK    8  A    between atoms: S_13  and  C_14
REMARK    9  A    between atoms: C_17  and  C_18
REMARK   10  A    between atoms: C_18  and  N_19
REMARK   11  A    between atoms: N_19  and  C_20
REMARK   12  A    between atoms: C_29  and  O_30
REMARK   13  A    between atoms: O_30  and  C_31
REMARK                            x       y       z     vdW  Elec       q    Type
REMARK                         _______ _______ _______ _____ _____    ______ ____
ROOT
ATOM      1  C   UNL     1       7.283   4.847  16.738  0.00  0.00    +0.000 C 
ENDROOT
BRANCH   1   3
ATOM      2  N   UNL     1       7.465   7.297  16.943  0.00  0.00    +0.000 N 
ATOM      3  C   UNL     1       7.217   6.102  17.600  0.00  0.00    +0.000 C 
ATOM      4  O   UNL     1       6.949   6.050  18.803  0.00  0.00    +0.000 OA
ATOM      5  H   UNL     1       7.903   7.264  16.030  0.00  0.00    +0.000 HD
BRANCH   2   6
ATOM      6  C   UNL     1       7.480   8.548  17.691  0.00  0.00    +0.000 C 
BRANCH   6   7
ATOM      7  C   UNL     1       8.806   8.817  18.414  0.00  0.00    +0.000 C 
BRANCH   7  11
ATOM      8  C   UNL     1       9.080  13.043  19.347  0.00  0.00    +0.000 A 
ATOM      9  C   UNL     1       8.796  12.610  18.042  0.00  0.00    +0.000 A 
ATOM     10  C   UNL     1       8.730  11.251  17.726  0.00  0.00    +0.000 A 
ATOM     11  C   UNL     1       8.986  10.290  18.705  0.00  0.00    +0.000 A 
ATOM     12  C   UNL     1       9.364  10.726  19.985  0.00  0.00    +0.000 A 
ATOM     13  C   UNL     1       9.424  12.090  20.319  0.00  0.00    +0.000 A 
BRANCH   8  15
ATOM     14  C   UNL     1       8.425  15.227  18.713  0.00  0.00    +0.000 C 
ATOM     15  O   UNL     1       9.055  14.373  19.671  0.00  0.00    +0.000 OA
ENDBRANCH   8  15
BRANCH  13  16
ATOM     16  O   UNL     1       9.806  12.284  21.620  0.00  0.00    +0.000 OA
ATOM     17  C   UNL     1       9.020  13.113  22.463  0.00  0.00    +0.000 C 
ENDBRANCH  13  16
ENDBRANCH   7  11
ENDBRANCH   6   7
ENDBRANCH   2   6
ENDBRANCH   1   3
BRANCH   1  18
ATOM     18  S   UNL     1       5.781   4.711  15.729  0.00  0.00    +0.000 S 
BRANCH  18  19
ATOM     19  C   UNL     1       4.618   5.534  16.729  0.00  0.00    +0.000 A 
ATOM     20  N   UNL     1       3.868   4.968  17.653  0.00  0.00    +0.000 NA
ATOM     21  N   UNL     1       3.128   5.975  18.245  0.00  0.00    +0.000 NA
ATOM     22  C   UNL     1       3.476   7.096  17.644  0.00  0.00    +0.000 A 
ATOM     23  O   UNL     1       4.414   6.893  16.663  0.00  0.00    +0.000 OA
BRANCH  22  24
ATOM     24  C   UNL     1       3.019   8.506  17.891  0.00  0.00    +0.000 C 
BRANCH  24  25
ATOM     25  N   UNL     1       1.576   8.659  18.113  0.00  0.00    +0.000 N 
ATOM     26  H   UNL     1       1.126   9.134  17.335  0.00  0.00    +0.000 HD
BRANCH  25  27
ATOM     27  C   UNL     1       1.083   9.100  19.347  0.00  0.00    +0.000 A 
ATOM     28  C   UNL     1       0.167  10.163  19.358  0.00  0.00    +0.000 A 
ATOM     29  C   UNL     1      -0.424  10.613  20.544  0.00  0.00    +0.000 A 
ATOM     30  C   UNL     1      -0.129   9.978  21.743  0.00  0.00    +0.000 A 
ATOM     31 CL   UNL     1      -0.865  10.515  23.202  0.00  0.00    +0.000 Cl
ATOM     32  C   UNL     1       0.747   8.895  21.758  0.00  0.00    +0.000 A 
ATOM     33  C   UNL     1       1.342   8.456  20.565  0.00  0.00    +0.000 A 
ENDBRANCH  25  27
ENDBRANCH  24  25
ENDBRANCH  22  24
ENDBRANCH  18  19
ENDBRANCH   1  18
TORSDOF 11
ENDMDL
MODEL 8
REMARK VINA RESULT:      -6.7      4.929      8.276
REMARK  Name = 
REMARK  13 active torsions:
REMARK  status: ('A' for Active; 'I' for Inactive)
REMARK    1  A    between atoms: C_1  and  O_2
REMARK    2  A    between atoms: O_2  and  C_3
REMARK    3  A    between atoms: C_6  and  C_7
REMARK    4  A    between atoms: C_7  and  C_8
REMARK    5  A    between atoms: C_8  and  N_9
REMARK    6  A    between atoms: C_10  and  C_12
REMARK    7  A    between atoms: C_12  and  S_13
REMARK    8  A    between atoms: S_13  and  C_14
REMARK    9  A    between atoms: C_17  and  C_18
REMARK   10  A    between atoms: C_18  and  N_19
REMARK   11  A    between atoms: N_19  and  C_20
REMARK   12  A    between atoms: C_29  and  O_30
REMARK   13  A    between atoms: O_30  and  C_31
REMARK                            x       y       z     vdW  Elec       q    Type
REMARK                         _______ _______ _______ _____ _____    ______ ____
ROOT
ATOM      1  C   UNL     1       6.209   4.989  19.264  0.00  0.00    +0.000 C 
ENDROOT
BRANCH   1   3
ATOM      2  N   UNL     1       4.465   3.327  18.736  0.00  0.00    +0.000 N 
ATOM      3  C   UNL     1       5.229   4.383  18.265  0.00  0.00    +0.000 C 
ATOM      4  O   UNL     1       5.121   4.818  17.116  0.00  0.00    +0.000 OA
ATOM      5  H   UNL     1       4.754   2.866  19.591  0.00  0.00    +0.000 HD
BRANCH   2   6
ATOM      6  C   UNL     1       3.539   2.644  17.842  0.00  0.00    +0.000 C 
BRANCH   6   7
ATOM      7  C   UNL     1       2.068   2.996  18.094  0.00  0.00    +0.000 C 
BRANCH   7  11
ATOM      8  C   UNL     1       1.927   6.874  20.031  0.00  0.00    +0.000 A 
ATOM      9  C   UNL     1       1.546   5.711  20.719  0.00  0.00    +0.000 A 
ATOM     10  C   UNL     1       1.564   4.460  20.096  0.00  0.00    +0.000 A 
ATOM     11  C   UNL     1       1.929   4.351  18.753  0.00  0.00    +0.000 A 
ATOM     12  C   UNL     1       2.217   5.527  18.042  0.00  0.00    +0.000 A 
ATOM     13  C   UNL     1       2.213   6.789  18.659  0.00  0.00    +0.000 A 
BRANCH   8  15
ATOM     14  C   UNL     1       0.790   8.503  21.317  0.00  0.00    +0.000 C 
ATOM     15  O   UNL     1       1.994   8.082  20.671  0.00  0.00    +0.000 OA
ENDBRANCH   8  15
BRANCH  13  16
ATOM     16  O   UNL     1       2.530   7.792  17.780  0.00  0.00    +0.000 OA
ATOM     17  C   UNL     1       1.971   9.084  17.963  0.00  0.00    +0.000 C 
ENDBRANCH  13  16
ENDBRANCH   7  11
ENDBRANCH   6   7
ENDBRANCH   2   6
ENDBRANCH   1   3
BRANCH   1  18
ATOM     18  S   UNL     1       7.846   5.158  18.498  0.00  0.00    +0.000 S 
BRANCH  18  19
ATOM     19  C   UNL     1       7.854   6.845  18.071  0.00  0.00    +0.000 A 
ATOM     20  N   UNL     1       7.106   7.401  17.139  0.00  0.00    +0.000 NA
ATOM     21  N   UNL     1       7.380   8.757  17.157  0.00  0.00    +0.000 NA
ATOM     22  C   UNL     1       8.279   8.943  18.103  0.00  0.00    +0.000 A 
ATOM     23  O   UNL     1       8.635   7.771  18.724  0.00  0.00    +0.000 OA
BRANCH  22  24
ATOM     24  C   UNL     1       8.923  10.211  18.587  0.00  0.00    +0.000 C 
BRANCH  24  25
ATOM     25  N   UNL     1       9.261  10.227  20.016  0.00  0.00    +0.000 N 
ATOM     26  H   UNL     1       8.675   9.587  20.546  0.00  0.00    +0.000 HD
BRANCH  25  27
ATOM     27  C   UNL     1       9.457  11.436  20.692  0.00  0.00    +0.000 A 
ATOM     28  C   UNL     1      10.304  12.394  20.113  0.00  0.00    +0.000 A 
ATOM     29  C   UNL     1      10.494  13.654  20.692  0.00  0.00    +0.000 A 
ATOM     30  C   UNL     1       9.806  13.990  21.850  0.00  0.00    +0.000 A 
ATOM     31 CL   UNL     1      10.021  15.543  22.557  0.00  0.00    +0.000 Cl
ATOM     32  C   UNL     1       8.928  13.074  22.426  0.00  0.00    +0.000 A 
ATOM     33  C   UNL     1       8.751  11.809  21.844  0.00  0.00    +0.000 A 
ENDBRANCH  25  27
ENDBRANCH  24  25
ENDBRANCH  22  24
ENDBRANCH  18  19
ENDBRANCH   1  18
TORSDOF 11
ENDMDL
MODEL 9
REMARK VINA RESULT:      -6.7      1.740      2.838
REMARK  Name = 
REMARK  13 active torsions:
REMARK  status: ('A' for Active; 'I' for Inactive)
REMARK    1  A    between atoms: C_1  and  O_2
REMARK    2  A    between atoms: O_2  and  C_3
REMARK    3  A    between atoms: C_6  and  C_7
REMARK    4  A    between atoms: C_7  and  C_8
REMARK    5  A    between atoms: C_8  and  N_9
REMARK    6  A    between atoms: C_10  and  C_12
REMARK    7  A    between atoms: C_12  and  S_13
REMARK    8  A    between atoms: S_13  and  C_14
REMARK    9  A    between atoms: C_17  and  C_18
REMARK   10  A    between atoms: C_18  and  N_19
REMARK   11  A    between atoms: N_19  and  C_20
REMARK   12  A    between atoms: C_29  and  O_30
REMARK   13  A    between atoms: O_30  and  C_31
REMARK                            x       y       z     vdW  Elec       q    Type
REMARK                         _______ _______ _______ _____ _____    ______ ____
ROOT
ATOM      1  C   UNL     1       0.824   6.729  20.934  0.00  0.00    +0.000 C 
ENDROOT
BRANCH   1   3
ATOM      2  N   UNL     1       2.958   6.300  19.774  0.00  0.00    +0.000 N 
ATOM      3  C   UNL     1       2.031   5.830  20.692  0.00  0.00    +0.000 C 
ATOM      4  O   UNL     1       2.173   4.759  21.287  0.00  0.00    +0.000 OA
ATOM      5  H   UNL     1       2.683   7.052  19.153  0.00  0.00    +0.000 HD
BRANCH   2   6
ATOM      6  C   UNL     1       4.118   5.488  19.433  0.00  0.00    +0.000 C 
BRANCH   6   7
ATOM      7  C   UNL     1       3.881   4.543  18.248  0.00  0.00    +0.000 C 
BRANCH   7  11
ATOM      8  C   UNL     1       6.882   5.083  15.164  0.00  0.00    +0.000 A 
ATOM      9  C   UNL     1       5.983   4.006  15.114  0.00  0.00    +0.000 A 
ATOM     10  C   UNL     1       5.028   3.810  16.115  0.00  0.00    +0.000 A 
ATOM     11  C   UNL     1       4.979   4.668  17.214  0.00  0.00    +0.000 A 
ATOM     12  C   UNL     1       5.941   5.686  17.311  0.00  0.00    +0.000 A 
ATOM     13  C   UNL     1       6.900   5.901  16.306  0.00  0.00    +0.000 A 
BRANCH   8  15
ATOM     14  C   UNL     1       7.376   4.780  12.870  0.00  0.00    +0.000 C 
ATOM     15  O   UNL     1       7.755   5.323  14.137  0.00  0.00    +0.000 OA
ENDBRANCH   8  15
BRANCH  13  16
ATOM     16  O   UNL     1       7.729   6.950  16.603  0.00  0.00    +0.000 OA
ATOM     17  C   UNL     1       7.705   7.514  17.905  0.00  0.00    +0.000 C 
ENDBRANCH  13  16
ENDBRANCH   7  11
ENDBRANCH   6   7
ENDBRANCH   2   6
ENDBRANCH   1   3
BRANCH   1  18
ATOM     18  S   UNL     1       1.377   8.393  21.400  0.00  0.00    +0.000 S 
BRANCH  18  19
ATOM     19  C   UNL     1       0.902   9.318  20.004  0.00  0.00    +0.000 A 
ATOM     20  N   UNL     1       1.391   9.172  18.789  0.00  0.00    +0.000 NA
ATOM     21  N   UNL     1       0.711  10.057  17.972  0.00  0.00    +0.000 NA
ATOM     22  C   UNL     1      -0.153  10.688  18.742  0.00  0.00    +0.000 A 
ATOM     23  O   UNL     1      -0.085  10.275  20.050  0.00  0.00    +0.000 OA
BRANCH  22  24
ATOM     24  C   UNL     1      -1.172  11.735  18.394  0.00  0.00    +0.000 C 
BRANCH  24  25
ATOM     25  N   UNL     1      -1.623  12.559  19.523  0.00  0.00    +0.000 N 
ATOM     26  H   UNL     1      -0.987  12.490  20.314  0.00  0.00    +0.000 HD
BRANCH  25  27
ATOM     27  C   UNL     1      -2.962  12.548  19.929  0.00  0.00    +0.000 A 
ATOM     28  C   UNL     1      -3.931  12.096  19.018  0.00  0.00    +0.000 A 
ATOM     29  C   UNL     1      -5.280  11.989  19.372  0.00  0.00    +0.000 A 
ATOM     30  C   UNL     1      -5.679  12.301  20.665  0.00  0.00    +0.000 A 
ATOM     31 CL   UNL     1      -7.333  12.154  21.112  0.00  0.00    +0.000 Cl
ATOM     32  C   UNL     1      -4.734  12.715  21.602  0.00  0.00    +0.000 A 
ATOM     33  C   UNL     1      -3.384  12.829  21.235  0.00  0.00    +0.000 A 
ENDBRANCH  25  27
ENDBRANCH  24  25
ENDBRANCH  22  24
ENDBRANCH  18  19
ENDBRANCH   1  18
TORSDOF 11
ENDMDL
