MODEL 1
REMARK VINA RESULT:      -7.5      0.000      0.000
REMARK  Name = 
REMARK  8 active torsions:
REMARK  status: ('A' for Active; 'I' for Inactive)
REMARK    1  A    between atoms: C_1  and  C_2
REMARK    2  A    between atoms: C_2  and  N_3
REMARK    3  A    between atoms: N_3  and  C_4
REMARK    4  A    between atoms: N_3  and  C_6
REMARK    5  A    between atoms: C_4  and  C_5
REMARK    6  A    between atoms: C_6  and  C_7
REMARK    7  A    between atoms: N_16  and  N_17
REMARK    8  A    between atoms: C_18  and  C_19
REMARK                            x       y       z     vdW  Elec       q    Type
REMARK                         _______ _______ _______ _____ _____    ______ ____
ROOT
ATOM      1  C   UNL     1       5.669   4.808  15.638  0.00  0.00    +0.000 A 
ATOM      2  C   UNL     1       5.426   3.630  16.354  0.00  0.00    +0.000 A 
ATOM      3  C   UNL     1       4.635   3.639  17.520  0.00  0.00    +0.000 A 
ATOM      4  C   UNL     1       4.088   4.853  17.993  0.00  0.00    +0.000 A 
ATOM      5  N   UNL     1       3.352   5.053  19.163  0.00  0.00    +0.000 NA
ATOM      6  C   UNL     1       3.000   6.317  19.255  0.00  0.00    +0.000 A 
ATOM      7  N   UNL     1       2.290   6.827  20.326  0.00  0.00    +0.000 N 
ATOM      8  C   UNL     1       1.652   8.048  20.314  0.00  0.00    +0.000 C 
ATOM      9  O   UNL     1       1.586   8.816  19.356  0.00  0.00    +0.000 OA
ATOM     10  N   UNL     1       1.037   8.361  21.534  0.00  0.00    +0.000 N 
ATOM     11  S   UNL     1       3.553   7.328  17.998  0.00  0.00    +0.000 S 
ATOM     12  C   UNL     1       4.308   6.000  17.238  0.00  0.00    +0.000 A 
ATOM     13  C   UNL     1       5.068   6.002  16.060  0.00  0.00    +0.000 A 
ATOM     14  H   UNL     1       2.072   6.152  21.039  0.00  0.00    +0.000 HD
ATOM     15  H   UNL     1       1.203   7.835  22.383  0.00  0.00    +0.000 HD
ENDROOT
BRANCH  10  16
ATOM     16  N   UNL     1       0.427   9.580  21.586  0.00  0.00    +0.000 NA
ATOM     17  C   UNL     1      -0.205   9.945  22.650  0.00  0.00    +0.000 C 
BRANCH  17  18
ATOM     18  C   UNL     1      -0.826  11.288  22.702  0.00  0.00    +0.000 A 
ATOM     19  C   UNL     1      -2.079  11.466  23.282  0.00  0.00    +0.000 A 
ATOM     20  C   UNL     1      -2.639  12.738  23.276  0.00  0.00    +0.000 A 
ATOM     21  C   UNL     1      -1.935  13.780  22.689  0.00  0.00    +0.000 A 
ATOM     22  C   UNL     1      -0.691  13.511  22.138  0.00  0.00    +0.000 A 
ATOM     23  N   UNL     1      -0.115  12.287  22.125  0.00  0.00    +0.000 NA
ENDBRANCH  17  18
ENDBRANCH  10  16
BRANCH   1  24
ATOM     24  C   UNL     1       6.634   4.863  14.466  0.00  0.00    +0.000 C 
BRANCH  24  25
ATOM     25  N   UNL     1       6.411   3.876  13.396  0.00  0.00    +0.000 NA
BRANCH  25  27
ATOM     26  C   UNL     1       4.712   3.198  11.670  0.00  0.00    +0.000 C 
ATOM     27  C   UNL     1       4.980   3.731  13.075  0.00  0.00    +0.000 C 
ENDBRANCH  25  27
BRANCH  25  28
ATOM     28  C   UNL     1       7.252   4.191  12.224  0.00  0.00    +0.000 C 
ATOM     29  C   UNL     1       8.081   5.476  12.286  0.00  0.00    +0.000 C 
ENDBRANCH  25  28
ENDBRANCH  24  25
ENDBRANCH   1  24
TORSDOF 6
ENDMDL
MODEL 2
REMARK VINA RESULT:      -7.5      1.556      2.659
REMARK  Name = 
REMARK  8 active torsions:
REMARK  status: ('A' for Active; 'I' for Inactive)
REMARK    1  A    between atoms: C_1  and  C_2
REMARK    2  A    between atoms: C_2  and  N_3
REMARK    3  A    between atoms: N_3  and  C_4
REMARK    4  A    between atoms: N_3  and  C_6
REMARK    5  A    between atoms: C_4  and  C_5
REMARK    6  A    between atoms: C_6  and  C_7
REMARK    7  A    between atoms: N_16  and  N_17
REMARK    8  A    between atoms: C_18  and  C_19
REMARK                            x       y       z     vdW  Elec       q    Type
REMARK                         _______ _______ _______ _____ _____    ______ ____
ROOT
ATOM      1  C   UNL     1       4.021   4.243  17.181  0.00  0.00    +0.000 A 
ATOM      2  C   UNL     1       3.471   3.223  17.966  0.00  0.00    +0.000 A 
ATOM      3  C   UNL     1       2.687   3.520  19.098  0.00  0.00    +0.000 A 
ATOM      4  C   UNL     1       2.460   4.865  19.467  0.00  0.00    +0.000 A 
ATOM      5  N   UNL     1       1.778   5.333  20.592  0.00  0.00    +0.000 NA
ATOM      6  C   UNL     1       1.761   6.649  20.585  0.00  0.00    +0.000 A 
ATOM      7  N   UNL     1       1.184   7.401  21.591  0.00  0.00    +0.000 N 
ATOM      8  C   UNL     1       0.881   8.740  21.472  0.00  0.00    +0.000 C 
ATOM      9  O   UNL     1       1.032   9.425  20.463  0.00  0.00    +0.000 OA
ATOM     10  N   UNL     1       0.344   9.290  22.644  0.00  0.00    +0.000 N 
ATOM     11  S   UNL     1       2.578   7.388  19.284  0.00  0.00    +0.000 S 
ATOM     12  C   UNL     1       2.982   5.859  18.644  0.00  0.00    +0.000 A 
ATOM     13  C   UNL     1       3.738   5.578  17.498  0.00  0.00    +0.000 A 
ATOM     14  H   UNL     1       0.787   6.860  22.339  0.00  0.00    +0.000 HD
ATOM     15  H   UNL     1       0.353   8.804  23.532  0.00  0.00    +0.000 HD
ENDROOT
BRANCH  10  16
ATOM     16  N   UNL     1       0.066  10.624  22.590  0.00  0.00    +0.000 NA
ATOM     17  C   UNL     1      -1.117  11.053  22.876  0.00  0.00    +0.000 C 
BRANCH  17  18
ATOM     18  C   UNL     1      -1.388  12.509  22.851  0.00  0.00    +0.000 A 
ATOM     19  C   UNL     1      -0.500  13.383  22.230  0.00  0.00    +0.000 A 
ATOM     20  C   UNL     1      -0.777  14.744  22.264  0.00  0.00    +0.000 A 
ATOM     21  C   UNL     1      -1.921  15.183  22.915  0.00  0.00    +0.000 A 
ATOM     22  C   UNL     1      -2.751  14.239  23.501  0.00  0.00    +0.000 A 
ATOM     23  N   UNL     1      -2.514  12.908  23.491  0.00  0.00    +0.000 NA
ENDBRANCH  17  18
ENDBRANCH  10  16
BRANCH   1  24
ATOM     24  C   UNL     1       4.990   3.962  16.045  0.00  0.00    +0.000 C 
BRANCH  24  25
ATOM     25  N   UNL     1       6.154   4.860  15.949  0.00  0.00    +0.000 NA
BRANCH  25  27
ATOM     26  C   UNL     1       7.415   5.377  18.062  0.00  0.00    +0.000 C 
ATOM     27  C   UNL     1       7.236   4.451  16.861  0.00  0.00    +0.000 C 
ENDBRANCH  25  27
BRANCH  25  28
ATOM     28  C   UNL     1       6.584   4.994  14.542  0.00  0.00    +0.000 C 
ATOM     29  C   UNL     1       6.244   3.839  13.597  0.00  0.00    +0.000 C 
ENDBRANCH  25  28
ENDBRANCH  24  25
ENDBRANCH   1  24
TORSDOF 6
ENDMDL
MODEL 3
REMARK VINA RESULT:      -7.1      2.410     10.479
REMARK  Name = 
REMARK  8 active torsions:
REMARK  status: ('A' for Active; 'I' for Inactive)
REMARK    1  A    between atoms: C_1  and  C_2
REMARK    2  A    between atoms: C_2  and  N_3
REMARK    3  A    between atoms: N_3  and  C_4
REMARK    4  A    between atoms: N_3  and  C_6
REMARK    5  A    between atoms: C_4  and  C_5
REMARK    6  A    between atoms: C_6  and  C_7
REMARK    7  A    between atoms: N_16  and  N_17
REMARK    8  A    between atoms: C_18  and  C_19
REMARK                            x       y       z     vdW  Elec       q    Type
REMARK                         _______ _______ _______ _____ _____    ______ ____
ROOT
ATOM      1  C   UNL     1      -0.209  10.404  20.355  0.00  0.00    +0.000 A 
ATOM      2  C   UNL     1      -0.081   9.739  21.579  0.00  0.00    +0.000 A 
ATOM      3  C   UNL     1       0.750   8.609  21.708  0.00  0.00    +0.000 A 
ATOM      4  C   UNL     1       1.456   8.119  20.587  0.00  0.00    +0.000 A 
ATOM      5  N   UNL     1       2.256   6.976  20.520  0.00  0.00    +0.000 NA
ATOM      6  C   UNL     1       2.759   6.856  19.311  0.00  0.00    +0.000 A 
ATOM      7  N   UNL     1       3.566   5.801  18.930  0.00  0.00    +0.000 N 
ATOM      8  C   UNL     1       4.344   5.800  17.792  0.00  0.00    +0.000 C 
ATOM      9  O   UNL     1       4.464   6.733  17.002  0.00  0.00    +0.000 OA
ATOM     10  N   UNL     1       5.039   4.597  17.601  0.00  0.00    +0.000 N 
ATOM     11  S   UNL     1       2.282   8.054  18.194  0.00  0.00    +0.000 S 
ATOM     12  C   UNL     1       1.345   8.825  19.393  0.00  0.00    +0.000 A 
ATOM     13  C   UNL     1       0.546   9.969  19.257  0.00  0.00    +0.000 A 
ATOM     14  H   UNL     1       3.729   5.121  19.652  0.00  0.00    +0.000 HD
ATOM     15  H   UNL     1       4.844   3.760  18.136  0.00  0.00    +0.000 HD
ENDROOT
BRANCH  10  16
ATOM     16  N   UNL     1       5.791   4.531  16.466  0.00  0.00    +0.000 NA
ATOM     17  C   UNL     1       5.220   4.405  15.315  0.00  0.00    +0.000 C 
BRANCH  17  18
ATOM     18  C   UNL     1       6.052   4.375  14.090  0.00  0.00    +0.000 A 
ATOM     19  C   UNL     1       5.761   3.486  13.059  0.00  0.00    +0.000 A 
ATOM     20  C   UNL     1       6.591   3.468  11.945  0.00  0.00    +0.000 A 
ATOM     21  C   UNL     1       7.678   4.330  11.901  0.00  0.00    +0.000 A 
ATOM     22  C   UNL     1       7.888   5.184  12.973  0.00  0.00    +0.000 A 
ATOM     23  N   UNL     1       7.104   5.229  14.074  0.00  0.00    +0.000 NA
ENDBRANCH  17  18
ENDBRANCH  10  16
BRANCH   1  24
ATOM     24  C   UNL     1      -1.206  11.531  20.141  0.00  0.00    +0.000 C 
BRANCH  24  25
ATOM     25  N   UNL     1      -1.283  12.079  18.777  0.00  0.00    +0.000 NA
BRANCH  25  27
ATOM     26  C   UNL     1      -2.973  10.445  17.884  0.00  0.00    +0.000 C 
ATOM     27  C   UNL     1      -2.622  11.899  18.190  0.00  0.00    +0.000 C 
ENDBRANCH  25  27
BRANCH  25  28
ATOM     28  C   UNL     1      -0.811  13.478  18.758  0.00  0.00    +0.000 C 
ATOM     29  C   UNL     1       0.700  13.702  18.663  0.00  0.00    +0.000 C 
ENDBRANCH  25  28
ENDBRANCH  24  25
ENDBRANCH   1  24
TORSDOF 6
ENDMDL
MODEL 4
REMARK VINA RESULT:      -7.0      2.743      4.219
REMARK  Name = 
REMARK  8 active torsions:
REMARK  status: ('A' for Active; 'I' for Inactive)
REMARK    1  A    between atoms: C_1  and  C_2
REMARK    2  A    between atoms: C_2  and  N_3
REMARK    3  A    between atoms: N_3  and  C_4
REMARK    4  A    between atoms: N_3  and  C_6
REMARK    5  A    between atoms: C_4  and  C_5
REMARK    6  A    between atoms: C_6  and  C_7
REMARK    7  A    between atoms: N_16  and  N_17
REMARK    8  A    between atoms: C_18  and  C_19
REMARK                            x       y       z     vdW  Elec       q    Type
REMARK                         _______ _______ _______ _____ _____    ______ ____
ROOT
ATOM      1  C   UNL     1       3.752   5.102  17.872  0.00  0.00    +0.000 A 
ATOM      2  C   UNL     1       3.296   4.544  19.072  0.00  0.00    +0.000 A 
ATOM      3  C   UNL     1       2.530   5.301  19.980  0.00  0.00    +0.000 A 
ATOM      4  C   UNL     1       2.227   6.651  19.694  0.00  0.00    +0.000 A 
ATOM      5  N   UNL     1       1.550   7.560  20.511  0.00  0.00    +0.000 NA
ATOM      6  C   UNL     1       1.445   8.717  19.895  0.00  0.00    +0.000 A 
ATOM      7  N   UNL     1       0.852   9.826  20.468  0.00  0.00    +0.000 N 
ATOM      8  C   UNL     1       0.457  10.940  19.758  0.00  0.00    +0.000 C 
ATOM      9  O   UNL     1       0.531  11.080  18.540  0.00  0.00    +0.000 OA
ATOM     10  N   UNL     1      -0.078  11.950  20.570  0.00  0.00    +0.000 N 
ATOM     11  S   UNL     1       2.170   8.799  18.353  0.00  0.00    +0.000 S 
ATOM     12  C   UNL     1       2.654   7.167  18.475  0.00  0.00    +0.000 A 
ATOM     13  C   UNL     1       3.392   6.417  17.548  0.00  0.00    +0.000 A 
ATOM     14  H   UNL     1       0.516   9.681  21.404  0.00  0.00    +0.000 HD
ATOM     15  H   UNL     1      -0.009  11.936  21.580  0.00  0.00    +0.000 HD
ENDROOT
BRANCH  10  16
ATOM     16  N   UNL     1      -0.445  13.090  19.919  0.00  0.00    +0.000 NA
ATOM     17  C   UNL     1      -0.494  14.213  20.554  0.00  0.00    +0.000 C 
BRANCH  17  18
ATOM     18  C   UNL     1      -0.856  15.448  19.820  0.00  0.00    +0.000 A 
ATOM     19  C   UNL     1      -0.144  15.831  18.687  0.00  0.00    +0.000 A 
ATOM     20  C   UNL     1      -0.496  17.016  18.052  0.00  0.00    +0.000 A 
ATOM     21  C   UNL     1      -1.537  17.774  18.570  0.00  0.00    +0.000 A 
ATOM     22  C   UNL     1      -2.193  17.312  19.701  0.00  0.00    +0.000 A 
ATOM     23  N   UNL     1      -1.878  16.166  20.347  0.00  0.00    +0.000 NA
ENDBRANCH  17  18
ENDBRANCH  10  16
BRANCH   1  24
ATOM     24  C   UNL     1       4.702   4.366  16.941  0.00  0.00    +0.000 C 
BRANCH  24  25
ATOM     25  N   UNL     1       5.907   5.104  16.528  0.00  0.00    +0.000 NA
BRANCH  25  27
ATOM     26  C   UNL     1       7.629   5.366  18.343  0.00  0.00    +0.000 C 
ATOM     27  C   UNL     1       7.124   4.556  17.151  0.00  0.00    +0.000 C 
ENDBRANCH  25  27
BRANCH  25  28
ATOM     28  C   UNL     1       5.980   5.185  15.056  0.00  0.00    +0.000 C 
ATOM     29  C   UNL     1       6.021   3.863  14.287  0.00  0.00    +0.000 C 
ENDBRANCH  25  28
ENDBRANCH  24  25
ENDBRANCH   1  24
TORSDOF 6
ENDMDL
MODEL 5
REMARK VINA RESULT:      -6.9      2.212     11.719
REMARK  Name = 
REMARK  8 active torsions:
REMARK  status: ('A' for Active; 'I' for Inactive)
REMARK    1  A    between atoms: C_1  and  C_2
REMARK    2  A    between atoms: C_2  and  N_3
REMARK    3  A    between atoms: N_3  and  C_4
REMARK    4  A    between atoms: N_3  and  C_6
REMARK    5  A    between atoms: C_4  and  C_5
REMARK    6  A    between atoms: C_6  and  C_7
REMARK    7  A    between atoms: N_16  and  N_17
REMARK    8  A    between atoms: C_18  and  C_19
REMARK                            x       y       z     vdW  Elec       q    Type
REMARK                         _______ _______ _______ _____ _____    ______ ____
ROOT
ATOM      1  C   UNL     1      -2.156  12.611  21.536  0.00  0.00    +0.000 A 
ATOM      2  C   UNL     1      -2.036  12.230  22.878  0.00  0.00    +0.000 A 
ATOM      3  C   UNL     1      -1.258  11.116  23.249  0.00  0.00    +0.000 A 
ATOM      4  C   UNL     1      -0.599  10.353  22.260  0.00  0.00    +0.000 A 
ATOM      5  N   UNL     1       0.144   9.184  22.444  0.00  0.00    +0.000 NA
ATOM      6  C   UNL     1       0.617   8.773  21.288  0.00  0.00    +0.000 A 
ATOM      7  N   UNL     1       1.365   7.619  21.146  0.00  0.00    +0.000 N 
ATOM      8  C   UNL     1       2.121   7.325  20.031  0.00  0.00    +0.000 C 
ATOM      9  O   UNL     1       2.270   8.051  19.052  0.00  0.00    +0.000 OA
ATOM     10  N   UNL     1       2.753   6.076  20.108  0.00  0.00    +0.000 N 
ATOM     11  S   UNL     1       0.177   9.714  19.935  0.00  0.00    +0.000 S 
ATOM     12  C   UNL     1      -0.698  10.780  20.940  0.00  0.00    +0.000 A 
ATOM     13  C   UNL     1      -1.444  11.904  20.558  0.00  0.00    +0.000 A 
ATOM     14  H   UNL     1       1.510   7.110  22.001  0.00  0.00    +0.000 HD
ATOM     15  H   UNL     1       2.529   5.391  20.819  0.00  0.00    +0.000 HD
ENDROOT
BRANCH  10  16
ATOM     16  N   UNL     1       3.480   5.720  19.010  0.00  0.00    +0.000 NA
ATOM     17  C   UNL     1       4.728   5.413  19.129  0.00  0.00    +0.000 C 
BRANCH  17  18
ATOM     18  C   UNL     1       5.489   4.990  17.931  0.00  0.00    +0.000 A 
ATOM     19  C   UNL     1       6.877   4.883  17.977  0.00  0.00    +0.000 A 
ATOM     20  C   UNL     1       7.552   4.518  16.818  0.00  0.00    +0.000 A 
ATOM     21  C   UNL     1       6.824   4.279  15.662  0.00  0.00    +0.000 A 
ATOM     22  C   UNL     1       5.443   4.406  15.711  0.00  0.00    +0.000 A 
ATOM     23  N   UNL     1       4.752   4.760  16.818  0.00  0.00    +0.000 NA
ENDBRANCH  17  18
ENDBRANCH  10  16
BRANCH   1  24
ATOM     24  C   UNL     1      -3.101  13.712  21.084  0.00  0.00    +0.000 C 
BRANCH  24  25
ATOM     25  N   UNL     1      -3.733  14.503  22.153  0.00  0.00    +0.000 NA
BRANCH  25  27
ATOM     26  C   UNL     1      -4.338  16.784  21.283  0.00  0.00    +0.000 C 
ATOM     27  C   UNL     1      -3.355  15.925  22.076  0.00  0.00    +0.000 C 
ENDBRANCH  25  27
BRANCH  25  28
ATOM     28  C   UNL     1      -5.192  14.277  22.166  0.00  0.00    +0.000 C 
ATOM     29  C   UNL     1      -5.737  13.306  23.215  0.00  0.00    +0.000 C 
ENDBRANCH  25  28
ENDBRANCH  24  25
ENDBRANCH   1  24
TORSDOF 6
ENDMDL
MODEL 6
REMARK VINA RESULT:      -6.9      2.436     11.494
REMARK  Name = 
REMARK  8 active torsions:
REMARK  status: ('A' for Active; 'I' for Inactive)
REMARK    1  A    between atoms: C_1  and  C_2
REMARK    2  A    between atoms: C_2  and  N_3
REMARK    3  A    between atoms: N_3  and  C_4
REMARK    4  A    between atoms: N_3  and  C_6
REMARK    5  A    between atoms: C_4  and  C_5
REMARK    6  A    between atoms: C_6  and  C_7
REMARK    7  A    between atoms: N_16  and  N_17
REMARK    8  A    between atoms: C_18  and  C_19
REMARK                            x       y       z     vdW  Elec       q    Type
REMARK                         _______ _______ _______ _____ _____    ______ ____
ROOT
ATOM      1  C   UNL     1      -2.203  12.566  21.394  0.00  0.00    +0.000 A 
ATOM      2  C   UNL     1      -1.925  12.290  22.738  0.00  0.00    +0.000 A 
ATOM      3  C   UNL     1      -1.050  11.247  23.099  0.00  0.00    +0.000 A 
ATOM      4  C   UNL     1      -0.452  10.448  22.099  0.00  0.00    +0.000 A 
ATOM      5  N   UNL     1       0.371   9.334  22.282  0.00  0.00    +0.000 NA
ATOM      6  C   UNL     1       0.747   8.864  21.112  0.00  0.00    +0.000 A 
ATOM      7  N   UNL     1       1.541   7.742  20.970  0.00  0.00    +0.000 N 
ATOM      8  C   UNL     1       2.195   7.405  19.804  0.00  0.00    +0.000 C 
ATOM      9  O   UNL     1       2.201   8.065  18.767  0.00  0.00    +0.000 OA
ATOM     10  N   UNL     1       2.902   6.199  19.897  0.00  0.00    +0.000 N 
ATOM     11  S   UNL     1       0.117   9.681  19.754  0.00  0.00    +0.000 S 
ATOM     12  C   UNL     1      -0.711  10.772  20.771  0.00  0.00    +0.000 A 
ATOM     13  C   UNL     1      -1.555  11.826  20.396  0.00  0.00    +0.000 A 
ATOM     14  H   UNL     1       1.802   7.305  21.837  0.00  0.00    +0.000 HD
ATOM     15  H   UNL     1       2.792   5.557  20.672  0.00  0.00    +0.000 HD
ENDROOT
BRANCH  10  16
ATOM     16  N   UNL     1       3.532   5.800  18.755  0.00  0.00    +0.000 NA
ATOM     17  C   UNL     1       4.809   5.615  18.748  0.00  0.00    +0.000 C 
BRANCH  17  18
ATOM     18  C   UNL     1       5.469   5.143  17.509  0.00  0.00    +0.000 A 
ATOM     19  C   UNL     1       4.957   4.056  16.806  0.00  0.00    +0.000 A 
ATOM     20  C   UNL     1       5.630   3.626  15.669  0.00  0.00    +0.000 A 
ATOM     21  C   UNL     1       6.785   4.289  15.278  0.00  0.00    +0.000 A 
ATOM     22  C   UNL     1       7.218   5.365  16.038  0.00  0.00    +0.000 A 
ATOM     23  N   UNL     1       6.592   5.812  17.150  0.00  0.00    +0.000 NA
ENDBRANCH  17  18
ENDBRANCH  10  16
BRANCH   1  24
ATOM     24  C   UNL     1      -3.251  13.582  20.972  0.00  0.00    +0.000 C 
BRANCH  24  25
ATOM     25  N   UNL     1      -4.566  13.465  21.624  0.00  0.00    +0.000 NA
BRANCH  25  27
ATOM     26  C   UNL     1      -6.501  14.723  22.626  0.00  0.00    +0.000 C 
ATOM     27  C   UNL     1      -5.132  14.786  21.953  0.00  0.00    +0.000 C 
ENDBRANCH  25  27
BRANCH  25  28
ATOM     28  C   UNL     1      -5.467  12.620  20.816  0.00  0.00    +0.000 C 
ATOM     29  C   UNL     1      -5.122  12.452  19.335  0.00  0.00    +0.000 C 
ENDBRANCH  25  28
ENDBRANCH  24  25
ENDBRANCH   1  24
TORSDOF 6
ENDMDL
MODEL 7
REMARK VINA RESULT:      -6.9      2.042      3.456
REMARK  Name = 
REMARK  8 active torsions:
REMARK  status: ('A' for Active; 'I' for Inactive)
REMARK    1  A    between atoms: C_1  and  C_2
REMARK    2  A    between atoms: C_2  and  N_3
REMARK    3  A    between atoms: N_3  and  C_4
REMARK    4  A    between atoms: N_3  and  C_6
REMARK    5  A    between atoms: C_4  and  C_5
REMARK    6  A    between atoms: C_6  and  C_7
REMARK    7  A    between atoms: N_16  and  N_17
REMARK    8  A    between atoms: C_18  and  C_19
REMARK                            x       y       z     vdW  Elec       q    Type
REMARK                         _______ _______ _______ _____ _____    ______ ____
ROOT
ATOM      1  C   UNL     1       3.697   6.116  17.700  0.00  0.00    +0.000 A 
ATOM      2  C   UNL     1       3.468   5.068  18.599  0.00  0.00    +0.000 A 
ATOM      3  C   UNL     1       2.688   5.260  19.755  0.00  0.00    +0.000 A 
ATOM      4  C   UNL     1       2.138   6.532  20.033  0.00  0.00    +0.000 A 
ATOM      5  N   UNL     1       1.411   6.914  21.163  0.00  0.00    +0.000 NA
ATOM      6  C   UNL     1       1.053   8.175  21.055  0.00  0.00    +0.000 A 
ATOM      7  N   UNL     1       0.349   8.847  22.036  0.00  0.00    +0.000 N 
ATOM      8  C   UNL     1      -0.296  10.048  21.834  0.00  0.00    +0.000 C 
ATOM      9  O   UNL     1      -0.375  10.651  20.767  0.00  0.00    +0.000 OA
ATOM     10  N   UNL     1      -0.902  10.550  22.994  0.00  0.00    +0.000 N 
ATOM     11  S   UNL     1       1.588   8.973  19.646  0.00  0.00    +0.000 S 
ATOM     12  C   UNL     1       2.344   7.544  19.101  0.00  0.00    +0.000 A 
ATOM     13  C   UNL     1       3.093   7.359  17.931  0.00  0.00    +0.000 A 
ATOM     14  H   UNL     1       0.142   8.295  22.850  0.00  0.00    +0.000 HD
ATOM     15  H   UNL     1      -0.725  10.168  23.915  0.00  0.00    +0.000 HD
ENDROOT
BRANCH  10  16
ATOM     16  N   UNL     1      -1.518  11.758  22.856  0.00  0.00    +0.000 NA
ATOM     17  C   UNL     1      -2.713  11.934  23.312  0.00  0.00    +0.000 C 
BRANCH  17  18
ATOM     18  C   UNL     1      -3.350  13.266  23.188  0.00  0.00    +0.000 A 
ATOM     19  C   UNL     1      -4.510  13.427  22.436  0.00  0.00    +0.000 A 
ATOM     20  C   UNL     1      -5.052  14.701  22.318  0.00  0.00    +0.000 A 
ATOM     21  C   UNL     1      -4.418  15.763  22.946  0.00  0.00    +0.000 A 
ATOM     22  C   UNL     1      -3.268  15.508  23.679  0.00  0.00    +0.000 A 
ATOM     23  N   UNL     1      -2.711  14.283  23.815  0.00  0.00    +0.000 NA
ENDBRANCH  17  18
ENDBRANCH  10  16
BRANCH   1  24
ATOM     24  C   UNL     1       4.651   5.986  16.525  0.00  0.00    +0.000 C 
BRANCH  24  25
ATOM     25  N   UNL     1       5.881   5.214  16.770  0.00  0.00    +0.000 NA
BRANCH  25  27
ATOM     26  C   UNL     1       6.107   4.287  14.443  0.00  0.00    +0.000 C 
ATOM     27  C   UNL     1       5.942   4.003  15.934  0.00  0.00    +0.000 C 
ENDBRANCH  25  27
BRANCH  25  28
ATOM     28  C   UNL     1       7.067   6.084  16.641  0.00  0.00    +0.000 C 
ATOM     29  C   UNL     1       7.460   6.913  17.865  0.00  0.00    +0.000 C 
ENDBRANCH  25  28
ENDBRANCH  24  25
ENDBRANCH   1  24
TORSDOF 6
ENDMDL
MODEL 8
REMARK VINA RESULT:      -6.9      1.787     11.186
REMARK  Name = 
REMARK  8 active torsions:
REMARK  status: ('A' for Active; 'I' for Inactive)
REMARK    1  A    between atoms: C_1  and  C_2
REMARK    2  A    between atoms: C_2  and  N_3
REMARK    3  A    between atoms: N_3  and  C_4
REMARK    4  A    between atoms: N_3  and  C_6
REMARK    5  A    between atoms: C_4  and  C_5
REMARK    6  A    between atoms: C_6  and  C_7
REMARK    7  A    between atoms: N_16  and  N_17
REMARK    8  A    between atoms: C_18  and  C_19
REMARK                            x       y       z     vdW  Elec       q    Type
REMARK                         _______ _______ _______ _____ _____    ______ ____
ROOT
ATOM      1  C   UNL     1      -0.588  10.998  20.632  0.00  0.00    +0.000 A 
ATOM      2  C   UNL     1      -0.478  10.269  21.822  0.00  0.00    +0.000 A 
ATOM      3  C   UNL     1       0.331   9.119  21.897  0.00  0.00    +0.000 A 
ATOM      4  C   UNL     1       1.034   8.674  20.754  0.00  0.00    +0.000 A 
ATOM      5  N   UNL     1       1.813   7.520  20.633  0.00  0.00    +0.000 NA
ATOM      6  C   UNL     1       2.320   7.453  19.422  0.00  0.00    +0.000 A 
ATOM      7  N   UNL     1       3.110   6.404  18.991  0.00  0.00    +0.000 N 
ATOM      8  C   UNL     1       3.894   6.446  17.859  0.00  0.00    +0.000 C 
ATOM      9  O   UNL     1       4.035   7.416  17.117  0.00  0.00    +0.000 OA
ATOM     10  N   UNL     1       4.568   5.242  17.609  0.00  0.00    +0.000 N 
ATOM     11  S   UNL     1       1.871   8.715  18.365  0.00  0.00    +0.000 S 
ATOM     12  C   UNL     1       0.942   9.441  19.598  0.00  0.00    +0.000 A 
ATOM     13  C   UNL     1       0.165  10.605  19.517  0.00  0.00    +0.000 A 
ATOM     14  H   UNL     1       3.257   5.686  19.679  0.00  0.00    +0.000 HD
ATOM     15  H   UNL     1       4.355   4.383  18.100  0.00  0.00    +0.000 HD
ENDROOT
BRANCH  10  16
ATOM     16  N   UNL     1       5.324   5.220  16.475  0.00  0.00    +0.000 NA
ATOM     17  C   UNL     1       5.100   4.335  15.562  0.00  0.00    +0.000 C 
BRANCH  17  18
ATOM     18  C   UNL     1       5.906   4.352  14.320  0.00  0.00    +0.000 A 
ATOM     19  C   UNL     1       5.580   3.519  13.254  0.00  0.00    +0.000 A 
ATOM     20  C   UNL     1       6.386   3.543  12.122  0.00  0.00    +0.000 A 
ATOM     21  C   UNL     1       7.486   4.389  12.097  0.00  0.00    +0.000 A 
ATOM     22  C   UNL     1       7.732   5.187  13.204  0.00  0.00    +0.000 A 
ATOM     23  N   UNL     1       6.971   5.190  14.323  0.00  0.00    +0.000 NA
ENDBRANCH  17  18
ENDBRANCH  10  16
BRANCH   1  24
ATOM     24  C   UNL     1      -1.563  12.153  20.472  0.00  0.00    +0.000 C 
BRANCH  24  25
ATOM     25  N   UNL     1      -1.236  13.383  21.211  0.00  0.00    +0.000 NA
BRANCH  25  27
ATOM     26  C   UNL     1       1.143  14.162  21.458  0.00  0.00    +0.000 C 
ATOM     27  C   UNL     1      -0.114  14.111  20.593  0.00  0.00    +0.000 C 
ENDBRANCH  25  27
BRANCH  25  28
ATOM     28  C   UNL     1      -2.448  14.208  21.396  0.00  0.00    +0.000 C 
ATOM     29  C   UNL     1      -2.334  15.411  22.335  0.00  0.00    +0.000 C 
ENDBRANCH  25  28
ENDBRANCH  24  25
ENDBRANCH   1  24
TORSDOF 6
ENDMDL
MODEL 9
REMARK VINA RESULT:      -6.8      4.029     10.838
REMARK  Name = 
REMARK  8 active torsions:
REMARK  status: ('A' for Active; 'I' for Inactive)
REMARK    1  A    between atoms: C_1  and  C_2
REMARK    2  A    between atoms: C_2  and  N_3
REMARK    3  A    between atoms: N_3  and  C_4
REMARK    4  A    between atoms: N_3  and  C_6
REMARK    5  A    between atoms: C_4  and  C_5
REMARK    6  A    between atoms: C_6  and  C_7
REMARK    7  A    between atoms: N_16  and  N_17
REMARK    8  A    between atoms: C_18  and  C_19
REMARK                            x       y       z     vdW  Elec       q    Type
REMARK                         _______ _______ _______ _____ _____    ______ ____
ROOT
ATOM      1  C   UNL     1       0.035  14.977  19.377  0.00  0.00    +0.000 A 
ATOM      2  C   UNL     1      -0.179  15.091  20.756  0.00  0.00    +0.000 A 
ATOM      3  C   UNL     1      -0.048  13.976  21.606  0.00  0.00    +0.000 A 
ATOM      4  C   UNL     1       0.287  12.713  21.067  0.00  0.00    +0.000 A 
ATOM      5  N   UNL     1       0.382  11.498  21.750  0.00  0.00    +0.000 NA
ATOM      6  C   UNL     1       0.732  10.545  20.913  0.00  0.00    +0.000 A 
ATOM      7  N   UNL     1       0.874   9.224  21.291  0.00  0.00    +0.000 N 
ATOM      8  C   UNL     1       1.522   8.273  20.532  0.00  0.00    +0.000 C 
ATOM      9  O   UNL     1       2.093   8.473  19.463  0.00  0.00    +0.000 OA
ATOM     10  N   UNL     1       1.495   6.995  21.109  0.00  0.00    +0.000 N 
ATOM     11  S   UNL     1       0.924  11.027  19.288  0.00  0.00    +0.000 S 
ATOM     12  C   UNL     1       0.537  12.637  19.701  0.00  0.00    +0.000 A 
ATOM     13  C   UNL     1       0.440  13.744  18.847  0.00  0.00    +0.000 A 
ATOM     14  H   UNL     1       0.675   9.044  22.260  0.00  0.00    +0.000 HD
ATOM     15  H   UNL     1       0.905   6.762  21.898  0.00  0.00    +0.000 HD
ENDROOT
BRANCH  10  16
ATOM     16  N   UNL     1       2.087   6.010  20.376  0.00  0.00    +0.000 NA
ATOM     17  C   UNL     1       1.614   4.809  20.400  0.00  0.00    +0.000 C 
BRANCH  17  18
ATOM     18  C   UNL     1       2.247   3.762  19.565  0.00  0.00    +0.000 A 
ATOM     19  C   UNL     1       1.721   3.438  18.318  0.00  0.00    +0.000 A 
ATOM     20  C   UNL     1       2.327   2.424  17.586  0.00  0.00    +0.000 A 
ATOM     21  C   UNL     1       3.426   1.769  18.123  0.00  0.00    +0.000 A 
ATOM     22  C   UNL     1       3.883   2.161  19.373  0.00  0.00    +0.000 A 
ATOM     23  N   UNL     1       3.320   3.142  20.114  0.00  0.00    +0.000 NA
ENDBRANCH  17  18
ENDBRANCH  10  16
BRANCH   1  24
ATOM     24  C   UNL     1      -0.241  16.119  18.413  0.00  0.00    +0.000 C 
BRANCH  24  25
ATOM     25  N   UNL     1       0.515  17.361  18.646  0.00  0.00    +0.000 NA
BRANCH  25  27
ATOM     26  C   UNL     1       2.733  16.793  17.606  0.00  0.00    +0.000 C 
ATOM     27  C   UNL     1       1.462  17.637  17.552  0.00  0.00    +0.000 C 
ENDBRANCH  25  27
BRANCH  25  28
ATOM     28  C   UNL     1      -0.408  18.479  18.927  0.00  0.00    +0.000 C 
ATOM     29  C   UNL     1      -1.891  18.250  18.626  0.00  0.00    +0.000 C 
ENDBRANCH  25  28
ENDBRANCH  24  25
ENDBRANCH   1  24
TORSDOF 6
ENDMDL
