MODEL 1
REMARK VINA RESULT:      -7.9      0.000      0.000
REMARK  Name = 
REMARK  1 active torsions:
REMARK  status: ('A' for Active; 'I' for Inactive)
REMARK    1  A    between atoms: N_3  and  C_4
REMARK                            x       y       z     vdW  Elec       q    Type
REMARK                         _______ _______ _______ _____ _____    ______ ____
ROOT
ATOM      1  O   UNL     1       0.549  11.527  20.687  0.00  0.00    +0.000 OA
ATOM      2  C   UNL     1       0.748  11.203  19.519  0.00  0.00    +0.000 C 
ATOM      3  N   UNL     1       0.914  12.099  18.486  0.00  0.00    +0.000 N 
ATOM      4  N   UNL     1       0.825   9.864  19.165  0.00  0.00    +0.000 N 
ATOM      5  C   UNL     1       1.190   9.300  17.861  0.00  0.00    +0.000 C 
ATOM      6  C   UNL     1       2.488   8.479  17.959  0.00  0.00    +0.000 C 
ATOM      7  N   UNL     1       2.367   7.453  19.000  0.00  0.00    +0.000 N 
ATOM      8  C   UNL     1       2.508   6.095  18.760  0.00  0.00    +0.000 A 
ATOM      9  C   UNL     1       3.470   5.637  17.690  0.00  0.00    +0.000 A 
ATOM     10  C   UNL     1       3.606   4.332  17.436  0.00  0.00    +0.000 A 
ATOM     11  C   UNL     1       2.840   3.418  18.177  0.00  0.00    +0.000 A 
ATOM     12  N   UNL     1       2.739   2.108  18.153  0.00  0.00    +0.000 NA
ATOM     13  N   UNL     1       1.823   1.742  19.113  0.00  0.00    +0.000 NA
ATOM     14  C   UNL     1       1.389   2.842  19.687  0.00  0.00    +0.000 A 
ATOM     15  N   UNL     1       2.006   3.933  19.141  0.00  0.00    +0.000 N 
ATOM     16  N   UNL     1       1.812   5.245  19.476  0.00  0.00    +0.000 NA
ATOM     17  C   UNL     1       1.974   7.980  20.322  0.00  0.00    +0.000 C 
ATOM     18  C   UNL     1       0.705   8.846  20.225  0.00  0.00    +0.000 C 
ATOM     19  H   UNL     1       0.747  11.753  17.558  0.00  0.00    +0.000 HD
ENDROOT
BRANCH   3  20
ATOM     20  C   UNL     1       0.958  13.509  18.590  0.00  0.00    +0.000 A 
ATOM     21  C   UNL     1      -0.175  14.309  18.757  0.00  0.00    +0.000 A 
ATOM     22  C   UNL     1      -0.069  15.702  18.759  0.00  0.00    +0.000 A 
ATOM     23  C   UNL     1       1.177  16.303  18.623  0.00  0.00    +0.000 A 
ATOM     24 CL   UNL     1       1.299  18.018  18.575  0.00  0.00    +0.000 Cl
ATOM     25  C   UNL     1       2.323  15.520  18.517  0.00  0.00    +0.000 A 
ATOM     26  C   UNL     1       2.214  14.125  18.506  0.00  0.00    +0.000 A 
ENDBRANCH   3  20
TORSDOF 1
ENDMDL
MODEL 2
REMARK VINA RESULT:      -7.0      3.665      4.512
REMARK  Name = 
REMARK  1 active torsions:
REMARK  status: ('A' for Active; 'I' for Inactive)
REMARK    1  A    between atoms: N_3  and  C_4
REMARK                            x       y       z     vdW  Elec       q    Type
REMARK                         _______ _______ _______ _____ _____    ______ ____
ROOT
ATOM      1  O   UNL     1      -0.689  12.650  20.187  0.00  0.00    +0.000 OA
ATOM      2  C   UNL     1      -0.198  11.914  21.040  0.00  0.00    +0.000 C 
ATOM      3  N   UNL     1      -0.544  11.939  22.373  0.00  0.00    +0.000 N 
ATOM      4  N   UNL     1       0.764  10.977  20.691  0.00  0.00    +0.000 N 
ATOM      5  C   UNL     1       1.351   9.935  21.538  0.00  0.00    +0.000 C 
ATOM      6  C   UNL     1       1.004   8.532  21.009  0.00  0.00    +0.000 C 
ATOM      7  N   UNL     1       1.403   8.403  19.603  0.00  0.00    +0.000 N 
ATOM      8  C   UNL     1       2.295   7.448  19.143  0.00  0.00    +0.000 A 
ATOM      9  C   UNL     1       2.336   6.098  19.819  0.00  0.00    +0.000 A 
ATOM     10  C   UNL     1       3.202   5.171  19.397  0.00  0.00    +0.000 A 
ATOM     11  C   UNL     1       4.057   5.486  18.329  0.00  0.00    +0.000 A 
ATOM     12  N   UNL     1       5.002   4.813  17.712  0.00  0.00    +0.000 NA
ATOM     13  N   UNL     1       5.517   5.624  16.727  0.00  0.00    +0.000 NA
ATOM     14  C   UNL     1       4.874   6.769  16.779  0.00  0.00    +0.000 A 
ATOM     15  N   UNL     1       3.931   6.734  17.769  0.00  0.00    +0.000 N 
ATOM     16  N   UNL     1       3.071   7.736  18.126  0.00  0.00    +0.000 NA
ATOM     17  C   UNL     1       0.852   9.452  18.722  0.00  0.00    +0.000 C 
ATOM     18  C   UNL     1       1.150  10.858  19.272  0.00  0.00    +0.000 C 
ATOM     19  H   UNL     1       0.119  11.548  23.018  0.00  0.00    +0.000 HD
ENDROOT
BRANCH   3  20
ATOM     20  C   UNL     1      -1.546  12.738  22.971  0.00  0.00    +0.000 A 
ATOM     21  C   UNL     1      -2.880  12.342  23.094  0.00  0.00    +0.000 A 
ATOM     22  C   UNL     1      -3.838  13.218  23.611  0.00  0.00    +0.000 A 
ATOM     23  C   UNL     1      -3.460  14.487  24.034  0.00  0.00    +0.000 A 
ATOM     24 CL   UNL     1      -4.650  15.581  24.623  0.00  0.00    +0.000 Cl
ATOM     25  C   UNL     1      -2.125  14.876  23.975  0.00  0.00    +0.000 A 
ATOM     26  C   UNL     1      -1.169  14.000  23.448  0.00  0.00    +0.000 A 
ENDBRANCH   3  20
TORSDOF 1
ENDMDL
MODEL 3
REMARK VINA RESULT:      -7.0      5.184      9.151
REMARK  Name = 
REMARK  1 active torsions:
REMARK  status: ('A' for Active; 'I' for Inactive)
REMARK    1  A    between atoms: N_3  and  C_4
REMARK                            x       y       z     vdW  Elec       q    Type
REMARK                         _______ _______ _______ _____ _____    ______ ____
ROOT
ATOM      1  O   UNL     1       4.818   4.126  17.230  0.00  0.00    +0.000 OA
ATOM      2  C   UNL     1       4.856   5.318  16.934  0.00  0.00    +0.000 C 
ATOM      3  N   UNL     1       5.398   5.806  15.766  0.00  0.00    +0.000 N 
ATOM      4  N   UNL     1       4.329   6.272  17.792  0.00  0.00    +0.000 N 
ATOM      5  C   UNL     1       4.162   7.707  17.544  0.00  0.00    +0.000 C 
ATOM      6  C   UNL     1       2.675   8.100  17.550  0.00  0.00    +0.000 C 
ATOM      7  N   UNL     1       2.037   7.669  18.799  0.00  0.00    +0.000 N 
ATOM      8  C   UNL     1       1.413   8.536  19.681  0.00  0.00    +0.000 A 
ATOM      9  C   UNL     1       0.711   9.757  19.136  0.00  0.00    +0.000 A 
ATOM     10  C   UNL     1       0.117  10.611  19.976  0.00  0.00    +0.000 A 
ATOM     11  C   UNL     1       0.169  10.345  21.353  0.00  0.00    +0.000 A 
ATOM     12  N   UNL     1      -0.292  10.984  22.405  0.00  0.00    +0.000 NA
ATOM     13  N   UNL     1       0.055  10.257  23.520  0.00  0.00    +0.000 NA
ATOM     14  C   UNL     1       0.722   9.200  23.113  0.00  0.00    +0.000 A 
ATOM     15  N   UNL     1       0.816   9.199  21.750  0.00  0.00    +0.000 N 
ATOM     16  N   UNL     1       1.438   8.267  20.965  0.00  0.00    +0.000 NA
ATOM     17  C   UNL     1       2.205   6.232  19.096  0.00  0.00    +0.000 C 
ATOM     18  C   UNL     1       3.687   5.820  19.041  0.00  0.00    +0.000 C 
ATOM     19  H   UNL     1       5.669   6.773  15.765  0.00  0.00    +0.000 HD
ENDROOT
BRANCH   3  20
ATOM     20  C   UNL     1       5.925   5.046  14.697  0.00  0.00    +0.000 A 
ATOM     21  C   UNL     1       7.230   5.184  14.218  0.00  0.00    +0.000 A 
ATOM     22  C   UNL     1       7.658   4.467  13.097  0.00  0.00    +0.000 A 
ATOM     23  C   UNL     1       6.788   3.585  12.466  0.00  0.00    +0.000 A 
ATOM     24 CL   UNL     1       7.300   2.741  11.057  0.00  0.00    +0.000 Cl
ATOM     25  C   UNL     1       5.505   3.389  12.966  0.00  0.00    +0.000 A 
ATOM     26  C   UNL     1       5.075   4.115  14.084  0.00  0.00    +0.000 A 
ENDBRANCH   3  20
TORSDOF 1
ENDMDL
MODEL 4
REMARK VINA RESULT:      -6.9      5.233      9.198
REMARK  Name = 
REMARK  1 active torsions:
REMARK  status: ('A' for Active; 'I' for Inactive)
REMARK    1  A    between atoms: N_3  and  C_4
REMARK                            x       y       z     vdW  Elec       q    Type
REMARK                         _______ _______ _______ _____ _____    ______ ____
ROOT
ATOM      1  O   UNL     1       4.673   3.966  16.889  0.00  0.00    +0.000 OA
ATOM      2  C   UNL     1       4.756   5.163  16.626  0.00  0.00    +0.000 C 
ATOM      3  N   UNL     1       5.290   5.662  15.458  0.00  0.00    +0.000 N 
ATOM      4  N   UNL     1       4.293   6.114  17.523  0.00  0.00    +0.000 N 
ATOM      5  C   UNL     1       4.185   7.562  17.320  0.00  0.00    +0.000 C 
ATOM      6  C   UNL     1       2.716   8.019  17.376  0.00  0.00    +0.000 C 
ATOM      7  N   UNL     1       2.092   7.580  18.628  0.00  0.00    +0.000 N 
ATOM      8  C   UNL     1       1.529   8.448  19.551  0.00  0.00    +0.000 A 
ATOM      9  C   UNL     1       0.868   9.713  19.058  0.00  0.00    +0.000 A 
ATOM     10  C   UNL     1       0.334  10.568  19.936  0.00  0.00    +0.000 A 
ATOM     11  C   UNL     1       0.408  10.260  21.304  0.00  0.00    +0.000 A 
ATOM     12  N   UNL     1       0.003  10.888  22.385  0.00  0.00    +0.000 NA
ATOM     13  N   UNL     1       0.345  10.114  23.471  0.00  0.00    +0.000 NA
ATOM     14  C   UNL     1       0.954   9.042  23.017  0.00  0.00    +0.000 A 
ATOM     15  N   UNL     1       1.014   9.076  21.652  0.00  0.00    +0.000 N 
ATOM     16  N   UNL     1       1.574   8.141  20.825  0.00  0.00    +0.000 NA
ATOM     17  C   UNL     1       2.203   6.130  18.881  0.00  0.00    +0.000 C 
ATOM     18  C   UNL     1       3.664   5.655  18.776  0.00  0.00    +0.000 C 
ATOM     19  H   UNL     1       5.604   6.615  15.477  0.00  0.00    +0.000 HD
ENDROOT
BRANCH   3  20
ATOM     20  C   UNL     1       5.756   4.910  14.354  0.00  0.00    +0.000 A 
ATOM     21  C   UNL     1       4.961   4.011  13.639  0.00  0.00    +0.000 A 
ATOM     22  C   UNL     1       5.510   3.231  12.617  0.00  0.00    +0.000 A 
ATOM     23  C   UNL     1       6.853   3.368  12.287  0.00  0.00    +0.000 A 
ATOM     24 CL   UNL     1       7.539   2.372  11.064  0.00  0.00    +0.000 Cl
ATOM     25  C   UNL     1       7.645   4.303  12.948  0.00  0.00    +0.000 A 
ATOM     26  C   UNL     1       7.096   5.076  13.977  0.00  0.00    +0.000 A 
ENDBRANCH   3  20
TORSDOF 1
ENDMDL
MODEL 5
REMARK VINA RESULT:      -6.9      2.702      3.239
REMARK  Name = 
REMARK  1 active torsions:
REMARK  status: ('A' for Active; 'I' for Inactive)
REMARK    1  A    between atoms: N_3  and  C_4
REMARK                            x       y       z     vdW  Elec       q    Type
REMARK                         _______ _______ _______ _____ _____    ______ ____
ROOT
ATOM      1  O   UNL     1      -0.732  11.695  23.223  0.00  0.00    +0.000 OA
ATOM      2  C   UNL     1      -0.834  11.536  22.009  0.00  0.00    +0.000 C 
ATOM      3  N   UNL     1      -1.255  12.514  21.135  0.00  0.00    +0.000 N 
ATOM      4  N   UNL     1      -0.513  10.317  21.431  0.00  0.00    +0.000 N 
ATOM      5  C   UNL     1      -0.441   9.992  20.003  0.00  0.00    +0.000 C 
ATOM      6  C   UNL     1       0.992   9.608  19.594  0.00  0.00    +0.000 C 
ATOM      7  N   UNL     1       1.491   8.520  20.443  0.00  0.00    +0.000 N 
ATOM      8  C   UNL     1       1.912   7.295  19.951  0.00  0.00    +0.000 A 
ATOM      9  C   UNL     1       2.571   7.237  18.594  0.00  0.00    +0.000 A 
ATOM     10  C   UNL     1       2.969   6.061  18.099  0.00  0.00    +0.000 A 
ATOM     11  C   UNL     1       2.756   4.903  18.864  0.00  0.00    +0.000 A 
ATOM     12  N   UNL     1       3.013   3.632  18.652  0.00  0.00    +0.000 NA
ATOM     13  N   UNL     1       2.585   2.930  19.755  0.00  0.00    +0.000 NA
ATOM     14  C   UNL     1       2.074   3.796  20.602  0.00  0.00    +0.000 A 
ATOM     15  N   UNL     1       2.165   5.061  20.094  0.00  0.00    +0.000 N 
ATOM     16  N   UNL     1       1.738   6.221  20.683  0.00  0.00    +0.000 NA
ATOM     17  C   UNL     1       1.411   8.801  21.890  0.00  0.00    +0.000 C 
ATOM     18  C   UNL     1      -0.008   9.236  22.298  0.00  0.00    +0.000 C 
ATOM     19  H   UNL     1      -1.607  12.203  20.247  0.00  0.00    +0.000 HD
ENDROOT
BRANCH   3  20
ATOM     20  C   UNL     1      -1.564  13.856  21.455  0.00  0.00    +0.000 A 
ATOM     21  C   UNL     1      -0.615  14.880  21.497  0.00  0.00    +0.000 A 
ATOM     22  C   UNL     1      -0.972  16.166  21.911  0.00  0.00    +0.000 A 
ATOM     23  C   UNL     1      -2.290  16.441  22.259  0.00  0.00    +0.000 A 
ATOM     24 CL   UNL     1      -2.717  18.011  22.816  0.00  0.00    +0.000 Cl
ATOM     25  C   UNL     1      -3.260  15.448  22.164  0.00  0.00    +0.000 A 
ATOM     26  C   UNL     1      -2.899  14.158  21.757  0.00  0.00    +0.000 A 
ENDBRANCH   3  20
TORSDOF 1
ENDMDL
MODEL 6
REMARK VINA RESULT:      -6.8      2.537      2.948
REMARK  Name = 
REMARK  1 active torsions:
REMARK  status: ('A' for Active; 'I' for Inactive)
REMARK    1  A    between atoms: N_3  and  C_4
REMARK                            x       y       z     vdW  Elec       q    Type
REMARK                         _______ _______ _______ _____ _____    ______ ____
ROOT
ATOM      1  O   UNL     1      -0.727  11.799  23.187  0.00  0.00    +0.000 OA
ATOM      2  C   UNL     1      -0.831  11.616  21.977  0.00  0.00    +0.000 C 
ATOM      3  N   UNL     1      -1.242  12.579  21.082  0.00  0.00    +0.000 N 
ATOM      4  N   UNL     1      -0.521  10.382  21.424  0.00  0.00    +0.000 N 
ATOM      5  C   UNL     1      -0.452  10.026  20.003  0.00  0.00    +0.000 C 
ATOM      6  C   UNL     1       0.977   9.620  19.604  0.00  0.00    +0.000 C 
ATOM      7  N   UNL     1       1.465   8.546  20.475  0.00  0.00    +0.000 N 
ATOM      8  C   UNL     1       1.874   7.306  20.009  0.00  0.00    +0.000 A 
ATOM      9  C   UNL     1       2.533   7.214  18.653  0.00  0.00    +0.000 A 
ATOM     10  C   UNL     1       2.919   6.024  18.183  0.00  0.00    +0.000 A 
ATOM     11  C   UNL     1       2.695   4.884  18.972  0.00  0.00    +0.000 A 
ATOM     12  N   UNL     1       2.940   3.606  18.787  0.00  0.00    +0.000 NA
ATOM     13  N   UNL     1       2.504   2.932  19.905  0.00  0.00    +0.000 NA
ATOM     14  C   UNL     1       2.002   3.820  20.733  0.00  0.00    +0.000 A 
ATOM     15  N   UNL     1       2.105   5.074  20.199  0.00  0.00    +0.000 N 
ATOM     16  N   UNL     1       1.690   6.249  20.763  0.00  0.00    +0.000 NA
ATOM     17  C   UNL     1       1.388   8.857  21.916  0.00  0.00    +0.000 C 
ATOM     18  C   UNL     1      -0.027   9.314  22.314  0.00  0.00    +0.000 C 
ATOM     19  H   UNL     1      -1.597  12.253  20.201  0.00  0.00    +0.000 HD
ENDROOT
BRANCH   3  20
ATOM     20  C   UNL     1      -1.538  13.931  21.374  0.00  0.00    +0.000 A 
ATOM     21  C   UNL     1      -2.823  14.397  21.662  0.00  0.00    +0.000 A 
ATOM     22  C   UNL     1      -3.061  15.761  21.849  0.00  0.00    +0.000 A 
ATOM     23  C   UNL     1      -2.007  16.664  21.777  0.00  0.00    +0.000 A 
ATOM     24 CL   UNL     1      -2.310  18.348  21.958  0.00  0.00    +0.000 Cl
ATOM     25  C   UNL     1      -0.711  16.211  21.552  0.00  0.00    +0.000 A 
ATOM     26  C   UNL     1      -0.476  14.845  21.356  0.00  0.00    +0.000 A 
ENDBRANCH   3  20
TORSDOF 1
ENDMDL
MODEL 7
REMARK VINA RESULT:      -6.8      3.567      4.352
REMARK  Name = 
REMARK  1 active torsions:
REMARK  status: ('A' for Active; 'I' for Inactive)
REMARK    1  A    between atoms: N_3  and  C_4
REMARK                            x       y       z     vdW  Elec       q    Type
REMARK                         _______ _______ _______ _____ _____    ______ ____
ROOT
ATOM      1  O   UNL     1      -0.274  12.400  20.163  0.00  0.00    +0.000 OA
ATOM      2  C   UNL     1      -0.014  11.669  21.116  0.00  0.00    +0.000 C 
ATOM      3  N   UNL     1      -0.557  11.817  22.373  0.00  0.00    +0.000 N 
ATOM      4  N   UNL     1       0.870  10.610  20.969  0.00  0.00    +0.000 N 
ATOM      5  C   UNL     1       1.187   9.563  21.946  0.00  0.00    +0.000 C 
ATOM      6  C   UNL     1       0.759   8.178  21.430  0.00  0.00    +0.000 C 
ATOM      7  N   UNL     1       1.354   7.916  20.114  0.00  0.00    +0.000 N 
ATOM      8  C   UNL     1       2.184   6.839  19.848  0.00  0.00    +0.000 A 
ATOM      9  C   UNL     1       1.956   5.539  20.581  0.00  0.00    +0.000 A 
ATOM     10  C   UNL     1       2.757   4.495  20.346  0.00  0.00    +0.000 A 
ATOM     11  C   UNL     1       3.800   4.644  19.418  0.00  0.00    +0.000 A 
ATOM     12  N   UNL     1       4.741   3.831  18.992  0.00  0.00    +0.000 NA
ATOM     13  N   UNL     1       5.497   4.515  18.069  0.00  0.00    +0.000 NA
ATOM     14  C   UNL     1       4.997   5.726  17.965  0.00  0.00    +0.000 A 
ATOM     15  N   UNL     1       3.915   5.861  18.789  0.00  0.00    +0.000 N 
ATOM     16  N   UNL     1       3.137   6.974  18.958  0.00  0.00    +0.000 NA
ATOM     17  C   UNL     1       1.077   8.963  19.110  0.00  0.00    +0.000 C 
ATOM     18  C   UNL     1       1.455  10.358  19.638  0.00  0.00    +0.000 C 
ATOM     19  H   UNL     1      -0.054  11.395  23.133  0.00  0.00    +0.000 HD
ENDROOT
BRANCH   3  20
ATOM     20  C   UNL     1      -1.535  12.759  22.765  0.00  0.00    +0.000 A 
ATOM     21  C   UNL     1      -1.231  14.010  23.309  0.00  0.00    +0.000 A 
ATOM     22  C   UNL     1      -2.248  14.856  23.761  0.00  0.00    +0.000 A 
ATOM     23  C   UNL     1      -3.577  14.466  23.645  0.00  0.00    +0.000 A 
ATOM     24 CL   UNL     1      -4.823  15.487  24.247  0.00  0.00    +0.000 Cl
ATOM     25  C   UNL     1      -3.900  13.250  23.049  0.00  0.00    +0.000 A 
ATOM     26  C   UNL     1      -2.881  12.400  22.605  0.00  0.00    +0.000 A 
ENDBRANCH   3  20
TORSDOF 1
ENDMDL
MODEL 8
REMARK VINA RESULT:      -6.8      3.044      3.440
REMARK  Name = 
REMARK  1 active torsions:
REMARK  status: ('A' for Active; 'I' for Inactive)
REMARK    1  A    between atoms: N_3  and  C_4
REMARK                            x       y       z     vdW  Elec       q    Type
REMARK                         _______ _______ _______ _____ _____    ______ ____
ROOT
ATOM      1  O   UNL     1      -0.859  10.853  23.423  0.00  0.00    +0.000 OA
ATOM      2  C   UNL     1      -0.877  10.979  22.201  0.00  0.00    +0.000 C 
ATOM      3  N   UNL     1      -1.286  12.122  21.549  0.00  0.00    +0.000 N 
ATOM      4  N   UNL     1      -0.464   9.940  21.381  0.00  0.00    +0.000 N 
ATOM      5  C   UNL     1      -0.288   9.960  19.925  0.00  0.00    +0.000 C 
ATOM      6  C   UNL     1       1.184   9.726  19.544  0.00  0.00    +0.000 C 
ATOM      7  N   UNL     1       1.678   8.485  20.151  0.00  0.00    +0.000 N 
ATOM      8  C   UNL     1       2.184   7.422  19.421  0.00  0.00    +0.000 A 
ATOM      9  C   UNL     1       2.930   7.703  18.138  0.00  0.00    +0.000 A 
ATOM     10  C   UNL     1       3.412   6.687  17.415  0.00  0.00    +0.000 A 
ATOM     11  C   UNL     1       3.204   5.377  17.873  0.00  0.00    +0.000 A 
ATOM     12  N   UNL     1       3.532   4.198  17.392  0.00  0.00    +0.000 NA
ATOM     13  N   UNL     1       3.067   3.245  18.269  0.00  0.00    +0.000 NA
ATOM     14  C   UNL     1       2.465   3.873  19.254  0.00  0.00    +0.000 A 
ATOM     15  N   UNL     1       2.529   5.225  19.061  0.00  0.00    +0.000 N 
ATOM     16  N   UNL     1       2.014   6.201  19.869  0.00  0.00    +0.000 NA
ATOM     17  C   UNL     1       1.494   8.416  21.615  0.00  0.00    +0.000 C 
ATOM     18  C   UNL     1       0.033   8.701  22.008  0.00  0.00    +0.000 C 
ATOM     19  H   UNL     1      -1.566  12.017  20.590  0.00  0.00    +0.000 HD
ENDROOT
BRANCH   3  20
ATOM     20  C   UNL     1      -1.676  13.342  22.147  0.00  0.00    +0.000 A 
ATOM     21  C   UNL     1      -3.001  13.671  22.441  0.00  0.00    +0.000 A 
ATOM     22  C   UNL     1      -3.327  14.933  22.947  0.00  0.00    +0.000 A 
ATOM     23  C   UNL     1      -2.322  15.863  23.188  0.00  0.00    +0.000 A 
ATOM     24 CL   UNL     1      -2.730  17.432  23.763  0.00  0.00    +0.000 Cl
ATOM     25  C   UNL     1      -0.991  15.530  22.959  0.00  0.00    +0.000 A 
ATOM     26  C   UNL     1      -0.667  14.269  22.444  0.00  0.00    +0.000 A 
ENDBRANCH   3  20
TORSDOF 1
ENDMDL
MODEL 9
REMARK VINA RESULT:      -6.6      3.514      4.412
REMARK  Name = 
REMARK  1 active torsions:
REMARK  status: ('A' for Active; 'I' for Inactive)
REMARK    1  A    between atoms: N_3  and  C_4
REMARK                            x       y       z     vdW  Elec       q    Type
REMARK                         _______ _______ _______ _____ _____    ______ ____
ROOT
ATOM      1  O   UNL     1      -0.392  12.686  19.688  0.00  0.00    +0.000 OA
ATOM      2  C   UNL     1       0.026  11.933  20.564  0.00  0.00    +0.000 C 
ATOM      3  N   UNL     1      -0.394  11.966  21.875  0.00  0.00    +0.000 N 
ATOM      4  N   UNL     1       0.975  10.967  20.266  0.00  0.00    +0.000 N 
ATOM      5  C   UNL     1       1.480   9.904  21.141  0.00  0.00    +0.000 C 
ATOM      6  C   UNL     1       1.119   8.514  20.587  0.00  0.00    +0.000 C 
ATOM      7  N   UNL     1       1.594   8.376  19.206  0.00  0.00    +0.000 N 
ATOM      8  C   UNL     1       2.480   7.393  18.794  0.00  0.00    +0.000 A 
ATOM      9  C   UNL     1       2.439   6.042  19.466  0.00  0.00    +0.000 A 
ATOM     10  C   UNL     1       3.297   5.088  19.090  0.00  0.00    +0.000 A 
ATOM     11  C   UNL     1       4.221   5.378  18.074  0.00  0.00    +0.000 A 
ATOM     12  N   UNL     1       5.179   4.676  17.508  0.00  0.00    +0.000 NA
ATOM     13  N   UNL     1       5.774   5.473  16.558  0.00  0.00    +0.000 NA
ATOM     14  C   UNL     1       5.166   6.637  16.578  0.00  0.00    +0.000 A 
ATOM     15  N   UNL     1       4.167   6.631  17.512  0.00  0.00    +0.000 N 
ATOM     16  N   UNL     1       3.321   7.659  17.824  0.00  0.00    +0.000 NA
ATOM     17  C   UNL     1       1.127   9.444  18.299  0.00  0.00    +0.000 C 
ATOM     18  C   UNL     1       1.438  10.838  18.871  0.00  0.00    +0.000 C 
ATOM     19  H   UNL     1       0.218  11.552  22.555  0.00  0.00    +0.000 HD
ENDROOT
BRANCH   3  20
ATOM     20  C   UNL     1      -1.403  12.795  22.418  0.00  0.00    +0.000 A 
ATOM     21  C   UNL     1      -1.140  13.947  23.164  0.00  0.00    +0.000 A 
ATOM     22  C   UNL     1      -2.182  14.669  23.750  0.00  0.00    +0.000 A 
ATOM     23  C   UNL     1      -3.498  14.258  23.570  0.00  0.00    +0.000 A 
ATOM     24 CL   UNL     1      -4.776  15.119  24.334  0.00  0.00    +0.000 Cl
ATOM     25  C   UNL     1      -3.782  13.148  22.779  0.00  0.00    +0.000 A 
ATOM     26  C   UNL     1      -2.736  12.421  22.200  0.00  0.00    +0.000 A 
ENDBRANCH   3  20
TORSDOF 1
ENDMDL
