MODEL 1
REMARK VINA RESULT:      -9.3      0.000      0.000
REMARK  Name = 
REMARK  4 active torsions:
REMARK  status: ('A' for Active; 'I' for Inactive)
REMARK    1  A    between atoms: C_6  and  C_7
REMARK    2  A    between atoms: C_14  and  O_15
REMARK    3  A    between atoms: C_14  and  C_16
REMARK    4  A    between atoms: C_23  and  O_24
REMARK                            x       y       z     vdW  Elec       q    Type
REMARK                         _______ _______ _______ _____ _____    ______ ____
ROOT
ATOM      1  O   UNL     1       7.682   7.020  18.420  0.00  0.00    +0.000 OA
ATOM      2  C   UNL     1       7.234   6.271  17.562  0.00  0.00    +0.000 C 
ATOM      3  N   UNL     1       7.619   6.281  16.224  0.00  0.00    +0.000 N 
ATOM      4  C   UNL     1       6.972   5.292  15.503  0.00  0.00    +0.000 A 
ATOM      5  C   UNL     1       7.100   5.050  14.153  0.00  0.00    +0.000 A 
ATOM      6  C   UNL     1       6.365   3.988  13.602  0.00  0.00    +0.000 A 
ATOM      7  C   UNL     1       5.538   3.202  14.442  0.00  0.00    +0.000 A 
ATOM      8  C   UNL     1       5.421   3.474  15.813  0.00  0.00    +0.000 A 
ATOM      9  C   UNL     1       6.137   4.541  16.332  0.00  0.00    +0.000 A 
ATOM     10  C   UNL     1       6.194   5.095  17.744  0.00  0.00    +0.000 C 
ATOM     11  H   UNL     1       8.251   6.972  15.849  0.00  0.00    +0.000 HD
ENDROOT
BRANCH  10  12
ATOM     12  C   UNL     1       4.868   5.614  18.296  0.00  0.00    +0.000 A 
ATOM     13  C   UNL     1       4.283   6.790  17.778  0.00  0.00    +0.000 A 
ATOM     14  C   UNL     1       3.048   7.252  18.245  0.00  0.00    +0.000 A 
ATOM     15 CL   UNL     1       2.362   8.680  17.574  0.00  0.00    +0.000 Cl
ATOM     16  C   UNL     1       2.362   6.565  19.240  0.00  0.00    +0.000 A 
ATOM     17  C   UNL     1       2.921   5.407  19.764  0.00  0.00    +0.000 A 
ATOM     18 CL   UNL     1       2.070   4.544  20.994  0.00  0.00    +0.000 Cl
ATOM     19  C   UNL     1       4.157   4.935  19.299  0.00  0.00    +0.000 A 
BRANCH  19  20
ATOM     20  O   UNL     1       4.684   3.782  19.821  0.00  0.00    +0.000 OA
ATOM     21  H   UNL     1       5.457   4.028  20.364  0.00  0.00    +0.000 HD
ENDBRANCH  19  20
ENDBRANCH  10  12
BRANCH   6  22
ATOM     22  C   UNL     1       6.465   3.693  12.124  0.00  0.00    +0.000 C 
ATOM     23  F   UNL     1       6.998   2.467  11.855  0.00  0.00    +0.000 F 
ATOM     24  F   UNL     1       5.254   3.714  11.502  0.00  0.00    +0.000 F 
ATOM     25  F   UNL     1       7.246   4.590  11.460  0.00  0.00    +0.000 F 
ENDBRANCH   6  22
BRANCH  10  26
ATOM     26  O   UNL     1       6.730   4.078  18.592  0.00  0.00    +0.000 OA
ATOM     27  H   UNL     1       7.129   4.531  19.354  0.00  0.00    +0.000 HD
ENDBRANCH  10  26
TORSDOF 4
ENDMDL
MODEL 2
REMARK VINA RESULT:      -8.9      0.708      2.074
REMARK  Name = 
REMARK  4 active torsions:
REMARK  status: ('A' for Active; 'I' for Inactive)
REMARK    1  A    between atoms: C_6  and  C_7
REMARK    2  A    between atoms: C_14  and  O_15
REMARK    3  A    between atoms: C_14  and  C_16
REMARK    4  A    between atoms: C_23  and  O_24
REMARK                            x       y       z     vdW  Elec       q    Type
REMARK                         _______ _______ _______ _____ _____    ______ ____
ROOT
ATOM      1  O   UNL     1       7.598   6.979  18.458  0.00  0.00    +0.000 OA
ATOM      2  C   UNL     1       7.171   6.235  17.585  0.00  0.00    +0.000 C 
ATOM      3  N   UNL     1       7.574   6.265  16.253  0.00  0.00    +0.000 N 
ATOM      4  C   UNL     1       6.948   5.277  15.512  0.00  0.00    +0.000 A 
ATOM      5  C   UNL     1       7.098   5.052  14.162  0.00  0.00    +0.000 A 
ATOM      6  C   UNL     1       6.383   3.989  13.588  0.00  0.00    +0.000 A 
ATOM      7  C   UNL     1       5.552   3.184  14.407  0.00  0.00    +0.000 A 
ATOM      8  C   UNL     1       5.413   3.439  15.780  0.00  0.00    +0.000 A 
ATOM      9  C   UNL     1       6.110   4.508  16.321  0.00  0.00    +0.000 A 
ATOM     10  C   UNL     1       6.141   5.046  17.739  0.00  0.00    +0.000 C 
ATOM     11  H   UNL     1       8.204   6.967  15.895  0.00  0.00    +0.000 HD
ENDROOT
BRANCH  10  12
ATOM     12  C   UNL     1       4.801   5.545  18.278  0.00  0.00    +0.000 A 
ATOM     13  C   UNL     1       4.176   4.896  19.366  0.00  0.00    +0.000 A 
ATOM     14  C   UNL     1       2.972   5.369  19.896  0.00  0.00    +0.000 A 
ATOM     15 CL   UNL     1       2.252   4.560  21.233  0.00  0.00    +0.000 Cl
ATOM     16  C   UNL     1       2.352   6.493  19.362  0.00  0.00    +0.000 A 
ATOM     17  C   UNL     1       2.949   7.144  18.290  0.00  0.00    +0.000 A 
ATOM     18 CL   UNL     1       2.189   8.546  17.627  0.00  0.00    +0.000 Cl
ATOM     19  C   UNL     1       4.159   6.678  17.755  0.00  0.00    +0.000 A 
BRANCH  19  20
ATOM     20  O   UNL     1       4.739   7.345  16.706  0.00  0.00    +0.000 OA
ATOM     21  H   UNL     1       4.972   6.684  16.027  0.00  0.00    +0.000 HD
ENDBRANCH  19  20
ENDBRANCH  10  12
BRANCH   6  22
ATOM     22  C   UNL     1       6.506   3.711  12.108  0.00  0.00    +0.000 C 
ATOM     23  F   UNL     1       7.102   2.516  11.833  0.00  0.00    +0.000 F 
ATOM     24  F   UNL     1       5.300   3.676  11.479  0.00  0.00    +0.000 F 
ATOM     25  F   UNL     1       7.245   4.651  11.457  0.00  0.00    +0.000 F 
ENDBRANCH   6  22
BRANCH  10  26
ATOM     26  O   UNL     1       6.676   4.025  18.584  0.00  0.00    +0.000 OA
ATOM     27  H   UNL     1       5.917   3.549  18.961  0.00  0.00    +0.000 HD
ENDBRANCH  10  26
TORSDOF 4
ENDMDL
MODEL 3
REMARK VINA RESULT:      -7.8      4.483      6.451
REMARK  Name = 
REMARK  4 active torsions:
REMARK  status: ('A' for Active; 'I' for Inactive)
REMARK    1  A    between atoms: C_6  and  C_7
REMARK    2  A    between atoms: C_14  and  O_15
REMARK    3  A    between atoms: C_14  and  C_16
REMARK    4  A    between atoms: C_23  and  O_24
REMARK                            x       y       z     vdW  Elec       q    Type
REMARK                         _______ _______ _______ _____ _____    ______ ____
ROOT
ATOM      1  O   UNL     1       7.900   4.510  18.208  0.00  0.00    +0.000 OA
ATOM      2  C   UNL     1       6.680   4.453  18.131  0.00  0.00    +0.000 C 
ATOM      3  N   UNL     1       5.871   3.675  18.955  0.00  0.00    +0.000 N 
ATOM      4  C   UNL     1       4.530   3.850  18.659  0.00  0.00    +0.000 A 
ATOM      5  C   UNL     1       3.471   3.207  19.261  0.00  0.00    +0.000 A 
ATOM      6  C   UNL     1       2.174   3.527  18.829  0.00  0.00    +0.000 A 
ATOM      7  C   UNL     1       1.997   4.495  17.810  0.00  0.00    +0.000 A 
ATOM      8  C   UNL     1       3.094   5.131  17.208  0.00  0.00    +0.000 A 
ATOM      9  C   UNL     1       4.366   4.784  17.635  0.00  0.00    +0.000 A 
ATOM     10  C   UNL     1       5.727   5.264  17.166  0.00  0.00    +0.000 C 
ATOM     11  H   UNL     1       6.250   3.034  19.635  0.00  0.00    +0.000 HD
ENDROOT
BRANCH  10  12
ATOM     12  C   UNL     1       6.052   4.974  15.701  0.00  0.00    +0.000 A 
ATOM     13  C   UNL     1       5.175   4.204  14.907  0.00  0.00    +0.000 A 
ATOM     14  C   UNL     1       5.440   3.968  13.554  0.00  0.00    +0.000 A 
ATOM     15 CL   UNL     1       4.336   3.039  12.617  0.00  0.00    +0.000 Cl
ATOM     16  C   UNL     1       6.582   4.484  12.953  0.00  0.00    +0.000 A 
ATOM     17  C   UNL     1       7.460   5.241  13.717  0.00  0.00    +0.000 A 
ATOM     18 CL   UNL     1       8.877   5.893  12.975  0.00  0.00    +0.000 Cl
ATOM     19  C   UNL     1       7.199   5.486  15.074  0.00  0.00    +0.000 A 
BRANCH  19  20
ATOM     20  O   UNL     1       8.072   6.249  15.806  0.00  0.00    +0.000 OA
ATOM     21  H   UNL     1       8.823   5.679  16.059  0.00  0.00    +0.000 HD
ENDBRANCH  19  20
ENDBRANCH  10  12
BRANCH   6  22
ATOM     22  C   UNL     1       0.983   2.838  19.453  0.00  0.00    +0.000 C 
ATOM     23  F   UNL     1       0.136   3.698  20.087  0.00  0.00    +0.000 F 
ATOM     24  F   UNL     1       0.221   2.178  18.538  0.00  0.00    +0.000 F 
ATOM     25  F   UNL     1       1.339   1.914  20.386  0.00  0.00    +0.000 F 
ENDBRANCH   6  22
BRANCH  10  26
ATOM     26  O   UNL     1       5.814   6.664  17.433  0.00  0.00    +0.000 OA
ATOM     27  H   UNL     1       6.057   7.094  16.596  0.00  0.00    +0.000 HD
ENDBRANCH  10  26
TORSDOF 4
ENDMDL
MODEL 4
REMARK VINA RESULT:      -7.8      1.174      1.425
REMARK  Name = 
REMARK  4 active torsions:
REMARK  status: ('A' for Active; 'I' for Inactive)
REMARK    1  A    between atoms: C_6  and  C_7
REMARK    2  A    between atoms: C_14  and  O_15
REMARK    3  A    between atoms: C_14  and  C_16
REMARK    4  A    between atoms: C_23  and  O_24
REMARK                            x       y       z     vdW  Elec       q    Type
REMARK                         _______ _______ _______ _____ _____    ______ ____
ROOT
ATOM      1  O   UNL     1       7.074   5.501  19.981  0.00  0.00    +0.000 OA
ATOM      2  C   UNL     1       6.837   5.272  18.802  0.00  0.00    +0.000 C 
ATOM      3  N   UNL     1       7.681   5.606  17.747  0.00  0.00    +0.000 N 
ATOM      4  C   UNL     1       7.165   5.183  16.533  0.00  0.00    +0.000 A 
ATOM      5  C   UNL     1       7.731   5.381  15.293  0.00  0.00    +0.000 A 
ATOM      6  C   UNL     1       7.060   4.866  14.173  0.00  0.00    +0.000 A 
ATOM      7  C   UNL     1       5.845   4.158  14.352  0.00  0.00    +0.000 A 
ATOM      8  C   UNL     1       5.287   3.976  15.627  0.00  0.00    +0.000 A 
ATOM      9  C   UNL     1       5.955   4.512  16.716  0.00  0.00    +0.000 A 
ATOM     10  C   UNL     1       5.596   4.509  18.190  0.00  0.00    +0.000 C 
ATOM     11  H   UNL     1       8.528   6.138  17.879  0.00  0.00    +0.000 HD
ENDROOT
BRANCH  10  12
ATOM     12  C   UNL     1       4.287   5.214  18.545  0.00  0.00    +0.000 A 
ATOM     13  C   UNL     1       3.985   6.484  18.008  0.00  0.00    +0.000 A 
ATOM     14  C   UNL     1       2.772   7.120  18.290  0.00  0.00    +0.000 A 
ATOM     15 CL   UNL     1       2.435   8.661  17.602  0.00  0.00    +0.000 Cl
ATOM     16  C   UNL     1       1.829   6.518  19.115  0.00  0.00    +0.000 A 
ATOM     17  C   UNL     1       2.107   5.270  19.655  0.00  0.00    +0.000 A 
ATOM     18 CL   UNL     1       0.936   4.512  20.674  0.00  0.00    +0.000 Cl
ATOM     19  C   UNL     1       3.320   4.623  19.374  0.00  0.00    +0.000 A 
BRANCH  19  20
ATOM     20  O   UNL     1       3.569   3.384  19.906  0.00  0.00    +0.000 OA
ATOM     21  H   UNL     1       3.638   3.487  20.875  0.00  0.00    +0.000 HD
ENDBRANCH  19  20
ENDBRANCH  10  12
BRANCH   6  22
ATOM     22  C   UNL     1       7.636   5.069  12.792  0.00  0.00    +0.000 C 
ATOM     23  F   UNL     1       8.997   5.153  12.784  0.00  0.00    +0.000 F 
ATOM     24  F   UNL     1       7.324   4.056  11.938  0.00  0.00    +0.000 F 
ATOM     25  F   UNL     1       7.193   6.212  12.200  0.00  0.00    +0.000 F 
ENDBRANCH   6  22
BRANCH  10  26
ATOM     26  O   UNL     1       5.573   3.151  18.633  0.00  0.00    +0.000 OA
ATOM     27  H   UNL     1       6.320   3.045  19.247  0.00  0.00    +0.000 HD
ENDBRANCH  10  26
TORSDOF 4
ENDMDL
MODEL 5
REMARK VINA RESULT:      -7.2      9.092     11.488
REMARK  Name = 
REMARK  4 active torsions:
REMARK  status: ('A' for Active; 'I' for Inactive)
REMARK    1  A    between atoms: C_6  and  C_7
REMARK    2  A    between atoms: C_14  and  O_15
REMARK    3  A    between atoms: C_14  and  C_16
REMARK    4  A    between atoms: C_23  and  O_24
REMARK                            x       y       z     vdW  Elec       q    Type
REMARK                         _______ _______ _______ _____ _____    ______ ____
ROOT
ATOM      1  O   UNL     1      -0.396  13.929  20.493  0.00  0.00    +0.000 OA
ATOM      2  C   UNL     1      -1.268  13.226  19.999  0.00  0.00    +0.000 C 
ATOM      3  N   UNL     1      -2.635  13.447  20.139  0.00  0.00    +0.000 N 
ATOM      4  C   UNL     1      -3.374  12.513  19.433  0.00  0.00    +0.000 A 
ATOM      5  C   UNL     1      -4.748  12.426  19.385  0.00  0.00    +0.000 A 
ATOM      6  C   UNL     1      -5.317  11.410  18.601  0.00  0.00    +0.000 A 
ATOM      7  C   UNL     1      -4.472  10.527  17.883  0.00  0.00    +0.000 A 
ATOM      8  C   UNL     1      -3.075  10.634  17.954  0.00  0.00    +0.000 A 
ATOM      9  C   UNL     1      -2.534  11.629  18.752  0.00  0.00    +0.000 A 
ATOM     10  C   UNL     1      -1.088  11.973  19.052  0.00  0.00    +0.000 C 
ATOM     11  H   UNL     1      -3.007  14.172  20.733  0.00  0.00    +0.000 HD
ENDROOT
BRANCH  10  12
ATOM     12  C   UNL     1      -0.284  10.873  19.744  0.00  0.00    +0.000 A 
ATOM     13  C   UNL     1      -0.394  10.668  21.136  0.00  0.00    +0.000 A 
ATOM     14  C   UNL     1       0.302   9.636  21.774  0.00  0.00    +0.000 A 
ATOM     15 CL   UNL     1       0.127   9.410  23.471  0.00  0.00    +0.000 Cl
ATOM     16  C   UNL     1       1.129   8.784  21.052  0.00  0.00    +0.000 A 
ATOM     17  C   UNL     1       1.253   8.970  19.681  0.00  0.00    +0.000 A 
ATOM     18 CL   UNL     1       2.271   7.909  18.776  0.00  0.00    +0.000 Cl
ATOM     19  C   UNL     1       0.554  10.000  19.033  0.00  0.00    +0.000 A 
BRANCH  19  20
ATOM     20  O   UNL     1       0.680  10.156  17.677  0.00  0.00    +0.000 OA
ATOM     21  H   UNL     1       1.220   9.414  17.342  0.00  0.00    +0.000 HD
ENDBRANCH  19  20
ENDBRANCH  10  12
BRANCH   6  22
ATOM     22  C   UNL     1      -6.819  11.269  18.528  0.00  0.00    +0.000 C 
ATOM     23  F   UNL     1      -7.368  11.909  17.457  0.00  0.00    +0.000 F 
ATOM     24  F   UNL     1      -7.220   9.972  18.428  0.00  0.00    +0.000 F 
ATOM     25  F   UNL     1      -7.448  11.776  19.624  0.00  0.00    +0.000 F 
ENDBRANCH   6  22
BRANCH  10  26
ATOM     26  O   UNL     1      -0.464  12.357  17.825  0.00  0.00    +0.000 OA
ATOM     27  H   UNL     1      -1.153  12.326  17.140  0.00  0.00    +0.000 HD
ENDBRANCH  10  26
TORSDOF 4
ENDMDL
MODEL 6
REMARK VINA RESULT:      -7.0      6.686      8.769
REMARK  Name = 
REMARK  4 active torsions:
REMARK  status: ('A' for Active; 'I' for Inactive)
REMARK    1  A    between atoms: C_6  and  C_7
REMARK    2  A    between atoms: C_14  and  O_15
REMARK    3  A    between atoms: C_14  and  C_16
REMARK    4  A    between atoms: C_23  and  O_24
REMARK                            x       y       z     vdW  Elec       q    Type
REMARK                         _______ _______ _______ _____ _____    ______ ____
ROOT
ATOM      1  O   UNL     1      -0.884  11.467  21.888  0.00  0.00    +0.000 OA
ATOM      2  C   UNL     1      -0.252  10.823  21.061  0.00  0.00    +0.000 C 
ATOM      3  N   UNL     1       0.457   9.658  21.340  0.00  0.00    +0.000 N 
ATOM      4  C   UNL     1       1.035   9.131  20.197  0.00  0.00    +0.000 A 
ATOM      5  C   UNL     1       1.828   8.007  20.128  0.00  0.00    +0.000 A 
ATOM      6  C   UNL     1       2.317   7.622  18.870  0.00  0.00    +0.000 A 
ATOM      7  C   UNL     1       1.974   8.384  17.725  0.00  0.00    +0.000 A 
ATOM      8  C   UNL     1       1.170   9.530  17.825  0.00  0.00    +0.000 A 
ATOM      9  C   UNL     1       0.717   9.904  19.080  0.00  0.00    +0.000 A 
ATOM     10  C   UNL     1      -0.129  11.089  19.508  0.00  0.00    +0.000 C 
ATOM     11  H   UNL     1       0.561   9.300  22.278  0.00  0.00    +0.000 HD
ENDROOT
BRANCH  10  12
ATOM     12  C   UNL     1       0.482  12.462  19.232  0.00  0.00    +0.000 A 
ATOM     13  C   UNL     1       1.850  12.589  18.906  0.00  0.00    +0.000 A 
ATOM     14  C   UNL     1       2.411  13.835  18.608  0.00  0.00    +0.000 A 
ATOM     15 CL   UNL     1       4.078  13.944  18.200  0.00  0.00    +0.000 Cl
ATOM     16  C   UNL     1       1.635  14.988  18.630  0.00  0.00    +0.000 A 
ATOM     17  C   UNL     1       0.287  14.885  18.950  0.00  0.00    +0.000 A 
ATOM     18 CL   UNL     1      -0.686  16.312  18.970  0.00  0.00    +0.000 Cl
ATOM     19  C   UNL     1      -0.285  13.638  19.246  0.00  0.00    +0.000 A 
BRANCH  19  20
ATOM     20  O   UNL     1      -1.620  13.558  19.545  0.00  0.00    +0.000 OA
ATOM     21  H   UNL     1      -1.704  13.105  20.406  0.00  0.00    +0.000 HD
ENDBRANCH  19  20
ENDBRANCH  10  12
BRANCH   6  22
ATOM     22  C   UNL     1       3.199   6.403  18.747  0.00  0.00    +0.000 C 
ATOM     23  F   UNL     1       3.567   5.881  19.952  0.00  0.00    +0.000 F 
ATOM     24  F   UNL     1       2.597   5.385  18.072  0.00  0.00    +0.000 F 
ATOM     25  F   UNL     1       4.362   6.659  18.086  0.00  0.00    +0.000 F 
ENDBRANCH   6  22
BRANCH  10  26
ATOM     26  O   UNL     1      -1.405  10.968  18.876  0.00  0.00    +0.000 OA
ATOM     27  H   UNL     1      -1.636  11.852  18.543  0.00  0.00    +0.000 HD
ENDBRANCH  10  26
TORSDOF 4
ENDMDL
MODEL 7
REMARK VINA RESULT:      -6.9      4.683      6.736
REMARK  Name = 
REMARK  4 active torsions:
REMARK  status: ('A' for Active; 'I' for Inactive)
REMARK    1  A    between atoms: C_6  and  C_7
REMARK    2  A    between atoms: C_14  and  O_15
REMARK    3  A    between atoms: C_14  and  C_16
REMARK    4  A    between atoms: C_23  and  O_24
REMARK                            x       y       z     vdW  Elec       q    Type
REMARK                         _______ _______ _______ _____ _____    ______ ____
ROOT
ATOM      1  O   UNL     1       4.398   2.079  16.901  0.00  0.00    +0.000 OA
ATOM      2  C   UNL     1       4.291   3.293  17.013  0.00  0.00    +0.000 C 
ATOM      3  N   UNL     1       3.155   3.947  17.482  0.00  0.00    +0.000 N 
ATOM      4  C   UNL     1       3.345   5.317  17.537  0.00  0.00    +0.000 A 
ATOM      5  C   UNL     1       2.414   6.256  17.923  0.00  0.00    +0.000 A 
ATOM      6  C   UNL     1       2.799   7.605  17.923  0.00  0.00    +0.000 A 
ATOM      7  C   UNL     1       4.119   7.954  17.543  0.00  0.00    +0.000 A 
ATOM      8  C   UNL     1       5.047   6.978  17.148  0.00  0.00    +0.000 A 
ATOM      9  C   UNL     1       4.639   5.654  17.133  0.00  0.00    +0.000 A 
ATOM     10  C   UNL     1       5.387   4.397  16.733  0.00  0.00    +0.000 C 
ATOM     11  H   UNL     1       2.299   3.457  17.694  0.00  0.00    +0.000 HD
ENDROOT
BRANCH  10  12
ATOM     12  C   UNL     1       5.855   4.351  15.279  0.00  0.00    +0.000 A 
ATOM     13  C   UNL     1       5.093   3.679  14.298  0.00  0.00    +0.000 A 
ATOM     14  C   UNL     1       5.488   3.666  12.956  0.00  0.00    +0.000 A 
ATOM     15 CL   UNL     1       4.522   2.851  11.790  0.00  0.00    +0.000 Cl
ATOM     16  C   UNL     1       6.650   4.314  12.551  0.00  0.00    +0.000 A 
ATOM     17  C   UNL     1       7.415   4.979  13.500  0.00  0.00    +0.000 A 
ATOM     18 CL   UNL     1       8.854   5.793  13.003  0.00  0.00    +0.000 Cl
ATOM     19  C   UNL     1       7.023   5.000  14.848  0.00  0.00    +0.000 A 
BRANCH  19  20
ATOM     20  O   UNL     1       7.786   5.674  15.766  0.00  0.00    +0.000 OA
ATOM     21  H   UNL     1       7.261   5.756  16.584  0.00  0.00    +0.000 HD
ENDBRANCH  19  20
ENDBRANCH  10  12
BRANCH   6  22
ATOM     22  C   UNL     1       1.808   8.670  18.327  0.00  0.00    +0.000 C 
ATOM     23  F   UNL     1       2.293   9.937  18.190  0.00  0.00    +0.000 F 
ATOM     24  F   UNL     1       0.665   8.631  17.589  0.00  0.00    +0.000 F 
ATOM     25  F   UNL     1       1.421   8.562  19.628  0.00  0.00    +0.000 F 
ENDBRANCH   6  22
BRANCH  10  26
ATOM     26  O   UNL     1       6.494   4.242  17.623  0.00  0.00    +0.000 OA
ATOM     27  H   UNL     1       6.122   4.046  18.500  0.00  0.00    +0.000 HD
ENDBRANCH  10  26
TORSDOF 4
ENDMDL
MODEL 8
REMARK VINA RESULT:      -6.7      6.727      8.878
REMARK  Name = 
REMARK  4 active torsions:
REMARK  status: ('A' for Active; 'I' for Inactive)
REMARK    1  A    between atoms: C_6  and  C_7
REMARK    2  A    between atoms: C_14  and  O_15
REMARK    3  A    between atoms: C_14  and  C_16
REMARK    4  A    between atoms: C_23  and  O_24
REMARK                            x       y       z     vdW  Elec       q    Type
REMARK                         _______ _______ _______ _____ _____    ______ ____
ROOT
ATOM      1  O   UNL     1      -0.690  11.142  22.626  0.00  0.00    +0.000 OA
ATOM      2  C   UNL     1      -0.135  10.625  21.666  0.00  0.00    +0.000 C 
ATOM      3  N   UNL     1       0.566   9.423  21.710  0.00  0.00    +0.000 N 
ATOM      4  C   UNL     1       1.048   9.071  20.460  0.00  0.00    +0.000 A 
ATOM      5  C   UNL     1       1.807   7.962  20.162  0.00  0.00    +0.000 A 
ATOM      6  C   UNL     1       2.194   7.769  18.826  0.00  0.00    +0.000 A 
ATOM      7  C   UNL     1       1.787   8.701  17.840  0.00  0.00    +0.000 A 
ATOM      8  C   UNL     1       1.018   9.827  18.172  0.00  0.00    +0.000 A 
ATOM      9  C   UNL     1       0.666  10.010  19.500  0.00  0.00    +0.000 A 
ATOM     10  C   UNL     1      -0.119  11.124  20.166  0.00  0.00    +0.000 C 
ATOM     11  H   UNL     1       0.730   8.925  22.572  0.00  0.00    +0.000 HD
ENDROOT
BRANCH  10  12
ATOM     12  C   UNL     1       0.501  12.517  20.056  0.00  0.00    +0.000 A 
ATOM     13  C   UNL     1       1.777  12.781  20.599  0.00  0.00    +0.000 A 
ATOM     14  C   UNL     1       2.374  14.039  20.467  0.00  0.00    +0.000 A 
ATOM     15 CL   UNL     1       3.938  14.315  21.129  0.00  0.00    +0.000 Cl
ATOM     16  C   UNL     1       1.722  15.069  19.799  0.00  0.00    +0.000 A 
ATOM     17  C   UNL     1       0.465  14.830  19.260  0.00  0.00    +0.000 A 
ATOM     18 CL   UNL     1      -0.347  16.102  18.421  0.00  0.00    +0.000 Cl
ATOM     19  C   UNL     1      -0.139  13.570  19.384  0.00  0.00    +0.000 A 
BRANCH  19  20
ATOM     20  O   UNL     1      -1.375  13.352  18.831  0.00  0.00    +0.000 OA
ATOM     21  H   UNL     1      -1.649  14.176  18.385  0.00  0.00    +0.000 HD
ENDBRANCH  19  20
ENDBRANCH  10  12
BRANCH   6  22
ATOM     22  C   UNL     1       3.038   6.573  18.453  0.00  0.00    +0.000 C 
ATOM     23  F   UNL     1       2.330   5.590  17.826  0.00  0.00    +0.000 F 
ATOM     24  F   UNL     1       4.056   6.892  17.608  0.00  0.00    +0.000 F 
ATOM     25  F   UNL     1       3.615   5.979  19.534  0.00  0.00    +0.000 F 
ENDBRANCH   6  22
BRANCH  10  26
ATOM     26  O   UNL     1      -1.440  11.117  19.621  0.00  0.00    +0.000 OA
ATOM     27  H   UNL     1      -1.612  12.016  19.294  0.00  0.00    +0.000 HD
ENDBRANCH  10  26
TORSDOF 4
ENDMDL
MODEL 9
REMARK VINA RESULT:      -6.7      6.548      8.611
REMARK  Name = 
REMARK  4 active torsions:
REMARK  status: ('A' for Active; 'I' for Inactive)
REMARK    1  A    between atoms: C_6  and  C_7
REMARK    2  A    between atoms: C_14  and  O_15
REMARK    3  A    between atoms: C_14  and  C_16
REMARK    4  A    between atoms: C_23  and  O_24
REMARK                            x       y       z     vdW  Elec       q    Type
REMARK                         _______ _______ _______ _____ _____    ______ ____
ROOT
ATOM      1  O   UNL     1      -0.773  10.809  22.341  0.00  0.00    +0.000 OA
ATOM      2  C   UNL     1      -0.152  10.320  21.407  0.00  0.00    +0.000 C 
ATOM      3  N   UNL     1       0.644   9.182  21.496  0.00  0.00    +0.000 N 
ATOM      4  C   UNL     1       1.185   8.845  20.267  0.00  0.00    +0.000 A 
ATOM      5  C   UNL     1       2.042   7.796  20.012  0.00  0.00    +0.000 A 
ATOM      6  C   UNL     1       2.477   7.607  18.691  0.00  0.00    +0.000 A 
ATOM      7  C   UNL     1       2.019   8.481  17.674  0.00  0.00    +0.000 A 
ATOM      8  C   UNL     1       1.152   9.546  17.962  0.00  0.00    +0.000 A 
ATOM      9  C   UNL     1       0.752   9.727  19.276  0.00  0.00    +0.000 A 
ATOM     10  C   UNL     1      -0.140  10.786  19.897  0.00  0.00    +0.000 C 
ATOM     11  H   UNL     1       0.828   8.717  22.373  0.00  0.00    +0.000 HD
ENDROOT
BRANCH  10  12
ATOM     12  C   UNL     1       0.365  12.223  19.769  0.00  0.00    +0.000 A 
ATOM     13  C   UNL     1       1.677  12.487  19.319  0.00  0.00    +0.000 A 
ATOM     14  C   UNL     1       2.137  13.798  19.157  0.00  0.00    +0.000 A 
ATOM     15 CL   UNL     1       3.737  14.077  18.590  0.00  0.00    +0.000 Cl
ATOM     16  C   UNL     1       1.312  14.881  19.439  0.00  0.00    +0.000 A 
ATOM     17  C   UNL     1       0.019  14.642  19.884  0.00  0.00    +0.000 A 
ATOM     18 CL   UNL     1      -1.014  15.983  20.228  0.00  0.00    +0.000 Cl
ATOM     19  C   UNL     1      -0.451  13.330  20.046  0.00  0.00    +0.000 A 
BRANCH  19  20
ATOM     20  O   UNL     1      -1.737  13.118  20.474  0.00  0.00    +0.000 OA
ATOM     21  H   UNL     1      -1.772  13.332  21.426  0.00  0.00    +0.000 HD
ENDBRANCH  19  20
ENDBRANCH  10  12
BRANCH   6  22
ATOM     22  C   UNL     1       3.426   6.478  18.367  0.00  0.00    +0.000 C 
ATOM     23  F   UNL     1       4.411   6.837  17.494  0.00  0.00    +0.000 F 
ATOM     24  F   UNL     1       4.067   5.998  19.468  0.00  0.00    +0.000 F 
ATOM     25  F   UNL     1       2.800   5.411  17.799  0.00  0.00    +0.000 F 
ENDBRANCH   6  22
BRANCH  10  26
ATOM     26  O   UNL     1      -1.441  10.656  19.321  0.00  0.00    +0.000 OA
ATOM     27  H   UNL     1      -1.986  11.367  19.699  0.00  0.00    +0.000 HD
ENDBRANCH  10  26
TORSDOF 4
ENDMDL
