MODEL 1
REMARK VINA RESULT:      -7.5      0.000      0.000
REMARK  Name = 
REMARK  4 active torsions:
REMARK  status: ('A' for Active; 'I' for Inactive)
REMARK    1  A    between atoms: C_4  and  N_5
REMARK    2  A    between atoms: N_12  and  C_13
REMARK    3  A    between atoms: C_13  and  C_14
REMARK    4  A    between atoms: C_17  and  C_18
REMARK                            x       y       z     vdW  Elec       q    Type
REMARK                         _______ _______ _______ _____ _____    ______ ____
ROOT
ATOM      1  N   UNL     1       0.992   6.196  20.945  0.00  0.00    +0.000 NA
ATOM      2  C   UNL     1       1.897   5.448  20.439  0.00  0.00    +0.000 A 
ATOM      3  S   UNL     1       2.075   3.759  20.917  0.00  0.00    +0.000 S 
ATOM      4  C   UNL     1       3.481   3.599  19.857  0.00  0.00    +0.000 A 
ATOM      5  C   UNL     1       3.773   4.741  19.193  0.00  0.00    +0.000 A 
ATOM      6  N   UNL     1       2.845   5.738  19.514  0.00  0.00    +0.000 N 
ATOM      7  C   UNL     1       3.152   7.012  18.912  0.00  0.00    +0.000 C 
ATOM      8  C   UNL     1       4.173   6.600  17.817  0.00  0.00    +0.000 C 
ATOM      9  N   UNL     1       4.671   5.273  18.274  0.00  0.00    +0.000 N 
ATOM     10  H   UNL     1       0.458   5.629  21.614  0.00  0.00    +0.000 HD
ENDROOT
BRANCH   4  11
ATOM     11  N   UNL     1       4.196   2.355  19.684  0.00  0.00    +0.000 N 
ATOM     12  O   UNL     1       5.110   2.110  20.482  0.00  0.00    +0.000 OA
ATOM     13  O   UNL     1       3.886   1.616  18.741  0.00  0.00    +0.000 OA
ENDBRANCH   4  11
BRANCH   9  14
ATOM     14  C   UNL     1       5.945   4.722  17.829  0.00  0.00    +0.000 C 
BRANCH  14  15
ATOM     15  C   UNL     1       6.091   4.544  16.337  0.00  0.00    +0.000 A 
ATOM     16  C   UNL     1       5.159   3.829  15.580  0.00  0.00    +0.000 A 
ATOM     17  C   UNL     1       5.376   3.629  14.215  0.00  0.00    +0.000 A 
ATOM     18  C   UNL     1       6.510   4.179  13.614  0.00  0.00    +0.000 A 
ATOM     19  N   UNL     1       7.408   4.912  14.332  0.00  0.00    +0.000 NA
ATOM     20  C   UNL     1       7.185   5.068  15.659  0.00  0.00    +0.000 A 
BRANCH  18  21
ATOM     21  C   UNL     1       6.763   3.966  12.126  0.00  0.00    +0.000 C 
ATOM     22  F   UNL     1       5.616   3.967  11.379  0.00  0.00    +0.000 F 
ATOM     23  F   UNL     1       7.550   4.934  11.575  0.00  0.00    +0.000 F 
ATOM     24  F   UNL     1       7.373   2.778  11.848  0.00  0.00    +0.000 F 
ENDBRANCH  18  21
ENDBRANCH  14  15
ENDBRANCH   9  14
TORSDOF 4
ENDMDL
MODEL 2
REMARK VINA RESULT:      -7.1      0.658      1.217
REMARK  Name = 
REMARK  4 active torsions:
REMARK  status: ('A' for Active; 'I' for Inactive)
REMARK    1  A    between atoms: C_4  and  N_5
REMARK    2  A    between atoms: N_12  and  C_13
REMARK    3  A    between atoms: C_13  and  C_14
REMARK    4  A    between atoms: C_17  and  C_18
REMARK                            x       y       z     vdW  Elec       q    Type
REMARK                         _______ _______ _______ _____ _____    ______ ____
ROOT
ATOM      1  N   UNL     1       1.166   6.542  20.804  0.00  0.00    +0.000 NA
ATOM      2  C   UNL     1       2.047   5.723  20.371  0.00  0.00    +0.000 A 
ATOM      3  S   UNL     1       2.163   4.076  20.992  0.00  0.00    +0.000 S 
ATOM      4  C   UNL     1       3.569   3.778  19.962  0.00  0.00    +0.000 A 
ATOM      5  C   UNL     1       3.904   4.850  19.206  0.00  0.00    +0.000 A 
ATOM      6  N   UNL     1       3.010   5.901  19.433  0.00  0.00    +0.000 N 
ATOM      7  C   UNL     1       3.365   7.108  18.728  0.00  0.00    +0.000 C 
ATOM      8  C   UNL     1       4.378   6.570  17.682  0.00  0.00    +0.000 C 
ATOM      9  N   UNL     1       4.826   5.271  18.254  0.00  0.00    +0.000 N 
ATOM     10  H   UNL     1       0.608   6.053  21.514  0.00  0.00    +0.000 HD
ENDROOT
BRANCH   4  11
ATOM     11  N   UNL     1       4.241   2.501  19.900  0.00  0.00    +0.000 N 
ATOM     12  O   UNL     1       4.021   1.790  18.910  0.00  0.00    +0.000 OA
ATOM     13  O   UNL     1       4.974   2.167  20.840  0.00  0.00    +0.000 OA
ENDBRANCH   4  11
BRANCH   9  14
ATOM     14  C   UNL     1       6.083   4.641  17.868  0.00  0.00    +0.000 C 
BRANCH  14  15
ATOM     15  C   UNL     1       6.261   4.397  16.388  0.00  0.00    +0.000 A 
ATOM     16  C   UNL     1       7.197   5.102  15.627  0.00  0.00    +0.000 A 
ATOM     17  C   UNL     1       7.273   4.893  14.248  0.00  0.00    +0.000 A 
ATOM     18  C   UNL     1       6.432   3.953  13.651  0.00  0.00    +0.000 A 
ATOM     19  N   UNL     1       5.541   3.229  14.387  0.00  0.00    +0.000 NA
ATOM     20  C   UNL     1       5.471   3.471  15.717  0.00  0.00    +0.000 A 
BRANCH  18  21
ATOM     21  C   UNL     1       6.500   3.717  12.146  0.00  0.00    +0.000 C 
ATOM     22  F   UNL     1       5.267   3.652  11.556  0.00  0.00    +0.000 F 
ATOM     23  F   UNL     1       7.165   4.705  11.481  0.00  0.00    +0.000 F 
ATOM     24  F   UNL     1       7.121   2.550  11.811  0.00  0.00    +0.000 F 
ENDBRANCH  18  21
ENDBRANCH  14  15
ENDBRANCH   9  14
TORSDOF 4
ENDMDL
MODEL 3
REMARK VINA RESULT:      -6.9      0.720      1.248
REMARK  Name = 
REMARK  4 active torsions:
REMARK  status: ('A' for Active; 'I' for Inactive)
REMARK    1  A    between atoms: C_4  and  N_5
REMARK    2  A    between atoms: N_12  and  C_13
REMARK    3  A    between atoms: C_13  and  C_14
REMARK    4  A    between atoms: C_17  and  C_18
REMARK                            x       y       z     vdW  Elec       q    Type
REMARK                         _______ _______ _______ _____ _____    ______ ____
ROOT
ATOM      1  N   UNL     1       0.337   4.867  20.692  0.00  0.00    +0.000 NA
ATOM      2  C   UNL     1       1.400   4.360  20.192  0.00  0.00    +0.000 A 
ATOM      3  S   UNL     1       1.812   2.662  20.425  0.00  0.00    +0.000 S 
ATOM      4  C   UNL     1       3.321   2.897  19.533  0.00  0.00    +0.000 A 
ATOM      5  C   UNL     1       3.479   4.167  19.092  0.00  0.00    +0.000 A 
ATOM      6  N   UNL     1       2.370   4.944  19.445  0.00  0.00    +0.000 N 
ATOM      7  C   UNL     1       2.515   6.333  19.087  0.00  0.00    +0.000 C 
ATOM      8  C   UNL     1       3.692   6.271  18.076  0.00  0.00    +0.000 C 
ATOM      9  N   UNL     1       4.359   4.977  18.382  0.00  0.00    +0.000 N 
ATOM     10  H   UNL     1      -0.156   4.121  21.196  0.00  0.00    +0.000 HD
ENDROOT
BRANCH   4  11
ATOM     11  N   UNL     1       4.248   1.823  19.260  0.00  0.00    +0.000 N 
ATOM     12  O   UNL     1       4.052   1.148  18.242  0.00  0.00    +0.000 OA
ATOM     13  O   UNL     1       5.168   1.612  20.062  0.00  0.00    +0.000 OA
ENDBRANCH   4  11
BRANCH   9  14
ATOM     14  C   UNL     1       5.745   4.707  18.018  0.00  0.00    +0.000 C 
BRANCH  14  15
ATOM     15  C   UNL     1       6.019   4.606  16.536  0.00  0.00    +0.000 A 
ATOM     16  C   UNL     1       5.223   3.838  15.683  0.00  0.00    +0.000 A 
ATOM     17  C   UNL     1       5.561   3.717  14.334  0.00  0.00    +0.000 A 
ATOM     18  C   UNL     1       6.677   4.398  13.845  0.00  0.00    +0.000 A 
ATOM     19  N   UNL     1       7.441   5.183  14.657  0.00  0.00    +0.000 NA
ATOM     20  C   UNL     1       7.105   5.261  15.965  0.00  0.00    +0.000 A 
BRANCH  18  21
ATOM     21  C   UNL     1       7.062   4.273  12.374  0.00  0.00    +0.000 C 
ATOM     22  F   UNL     1       7.914   5.259  11.956  0.00  0.00    +0.000 F 
ATOM     23  F   UNL     1       7.700   3.102  12.088  0.00  0.00    +0.000 F 
ATOM     24  F   UNL     1       5.993   4.339  11.530  0.00  0.00    +0.000 F 
ENDBRANCH  18  21
ENDBRANCH  14  15
ENDBRANCH   9  14
TORSDOF 4
ENDMDL
MODEL 4
REMARK VINA RESULT:      -6.9      1.039      1.412
REMARK  Name = 
REMARK  4 active torsions:
REMARK  status: ('A' for Active; 'I' for Inactive)
REMARK    1  A    between atoms: C_4  and  N_5
REMARK    2  A    between atoms: N_12  and  C_13
REMARK    3  A    between atoms: C_13  and  C_14
REMARK    4  A    between atoms: C_17  and  C_18
REMARK                            x       y       z     vdW  Elec       q    Type
REMARK                         _______ _______ _______ _____ _____    ______ ____
ROOT
ATOM      1  N   UNL     1       1.412   7.136  20.894  0.00  0.00    +0.000 NA
ATOM      2  C   UNL     1       1.972   6.102  20.391  0.00  0.00    +0.000 A 
ATOM      3  S   UNL     1       1.721   4.493  21.066  0.00  0.00    +0.000 S 
ATOM      4  C   UNL     1       2.842   3.811  19.881  0.00  0.00    +0.000 A 
ATOM      5  C   UNL     1       3.350   4.743  19.041  0.00  0.00    +0.000 A 
ATOM      6  N   UNL     1       2.813   6.001  19.332  0.00  0.00    +0.000 N 
ATOM      7  C   UNL     1       3.384   7.058  18.533  0.00  0.00    +0.000 C 
ATOM      8  C   UNL     1       4.063   6.253  17.393  0.00  0.00    +0.000 C 
ATOM      9  N   UNL     1       4.215   4.886  17.961  0.00  0.00    +0.000 N 
ATOM     10  H   UNL     1       0.843   6.825  21.691  0.00  0.00    +0.000 HD
ENDROOT
BRANCH   4  11
ATOM     11  N   UNL     1       3.129   2.398  19.793  0.00  0.00    +0.000 N 
ATOM     12  O   UNL     1       2.248   1.668  19.319  0.00  0.00    +0.000 OA
ATOM     13  O   UNL     1       4.215   1.983  20.216  0.00  0.00    +0.000 OA
ENDBRANCH   4  11
BRANCH   9  14
ATOM     14  C   UNL     1       5.191   3.932  17.449  0.00  0.00    +0.000 C 
BRANCH  14  15
ATOM     15  C   UNL     1       5.853   4.315  16.147  0.00  0.00    +0.000 A 
ATOM     16  C   UNL     1       5.377   3.869  14.911  0.00  0.00    +0.000 A 
ATOM     17  C   UNL     1       6.067   4.190  13.741  0.00  0.00    +0.000 A 
ATOM     18  C   UNL     1       7.210   4.987  13.817  0.00  0.00    +0.000 A 
ATOM     19  N   UNL     1       7.665   5.463  15.012  0.00  0.00    +0.000 NA
ATOM     20  C   UNL     1       6.991   5.114  16.133  0.00  0.00    +0.000 A 
BRANCH  18  21
ATOM     21  C   UNL     1       7.977   5.343  12.549  0.00  0.00    +0.000 C 
ATOM     22  F   UNL     1       7.855   4.402  11.563  0.00  0.00    +0.000 F 
ATOM     23  F   UNL     1       7.558   6.512  11.983  0.00  0.00    +0.000 F 
ATOM     24  F   UNL     1       9.319   5.480  12.751  0.00  0.00    +0.000 F 
ENDBRANCH  18  21
ENDBRANCH  14  15
ENDBRANCH   9  14
TORSDOF 4
ENDMDL
MODEL 5
REMARK VINA RESULT:      -6.8      5.064      6.683
REMARK  Name = 
REMARK  4 active torsions:
REMARK  status: ('A' for Active; 'I' for Inactive)
REMARK    1  A    between atoms: C_4  and  N_5
REMARK    2  A    between atoms: N_12  and  C_13
REMARK    3  A    between atoms: C_13  and  C_14
REMARK    4  A    between atoms: C_17  and  C_18
REMARK                            x       y       z     vdW  Elec       q    Type
REMARK                         _______ _______ _______ _____ _____    ______ ____
ROOT
ATOM      1  N   UNL     1       0.025  12.607  18.292  0.00  0.00    +0.000 NA
ATOM      2  C   UNL     1       0.128  11.627  19.107  0.00  0.00    +0.000 A 
ATOM      3  S   UNL     1      -0.635  11.661  20.696  0.00  0.00    +0.000 S 
ATOM      4  C   UNL     1       0.060  10.080  21.073  0.00  0.00    +0.000 A 
ATOM      5  C   UNL     1       0.801   9.575  20.059  0.00  0.00    +0.000 A 
ATOM      6  N   UNL     1       0.783  10.448  18.966  0.00  0.00    +0.000 N 
ATOM      7  C   UNL     1       1.631  10.015  17.882  0.00  0.00    +0.000 C 
ATOM      8  C   UNL     1       1.874   8.527  18.254  0.00  0.00    +0.000 C 
ATOM      9  N   UNL     1       1.566   8.467  19.709  0.00  0.00    +0.000 N 
ATOM     10  H   UNL     1      -0.550  13.329  18.744  0.00  0.00    +0.000 HD
ENDROOT
BRANCH   4  11
ATOM     11  N   UNL     1      -0.195   9.385  22.314  0.00  0.00    +0.000 N 
ATOM     12  O   UNL     1       0.295   9.865  23.345  0.00  0.00    +0.000 OA
ATOM     13  O   UNL     1      -0.857   8.340  22.287  0.00  0.00    +0.000 OA
ENDBRANCH   4  11
BRANCH   9  14
ATOM     14  C   UNL     1       2.082   7.413  20.573  0.00  0.00    +0.000 C 
BRANCH  14  15
ATOM     15  C   UNL     1       2.337   6.086  19.899  0.00  0.00    +0.000 A 
ATOM     16  C   UNL     1       1.400   5.050  19.918  0.00  0.00    +0.000 A 
ATOM     17  C   UNL     1       1.712   3.817  19.343  0.00  0.00    +0.000 A 
ATOM     18  C   UNL     1       2.950   3.645  18.723  0.00  0.00    +0.000 A 
ATOM     19  N   UNL     1       3.860   4.659  18.661  0.00  0.00    +0.000 NA
ATOM     20  C   UNL     1       3.541   5.835  19.250  0.00  0.00    +0.000 A 
BRANCH  18  21
ATOM     21  C   UNL     1       3.308   2.302  18.094  0.00  0.00    +0.000 C 
ATOM     22  F   UNL     1       4.357   2.380  17.219  0.00  0.00    +0.000 F 
ATOM     23  F   UNL     1       3.677   1.364  19.014  0.00  0.00    +0.000 F 
ATOM     24  F   UNL     1       2.284   1.752  17.381  0.00  0.00    +0.000 F 
ENDBRANCH  18  21
ENDBRANCH  14  15
ENDBRANCH   9  14
TORSDOF 4
ENDMDL
MODEL 6
REMARK VINA RESULT:      -6.8      5.093      6.712
REMARK  Name = 
REMARK  4 active torsions:
REMARK  status: ('A' for Active; 'I' for Inactive)
REMARK    1  A    between atoms: C_4  and  N_5
REMARK    2  A    between atoms: N_12  and  C_13
REMARK    3  A    between atoms: C_13  and  C_14
REMARK    4  A    between atoms: C_17  and  C_18
REMARK                            x       y       z     vdW  Elec       q    Type
REMARK                         _______ _______ _______ _____ _____    ______ ____
ROOT
ATOM      1  N   UNL     1       0.620  12.538  18.281  0.00  0.00    +0.000 NA
ATOM      2  C   UNL     1       0.579  11.568  19.112  0.00  0.00    +0.000 A 
ATOM      3  S   UNL     1      -0.222  11.723  20.675  0.00  0.00    +0.000 S 
ATOM      4  C   UNL     1       0.263  10.076  21.097  0.00  0.00    +0.000 A 
ATOM      5  C   UNL     1       0.968   9.467  20.114  0.00  0.00    +0.000 A 
ATOM      6  N   UNL     1       1.090  10.316  19.009  0.00  0.00    +0.000 N 
ATOM      7  C   UNL     1       1.912   9.764  17.960  0.00  0.00    +0.000 C 
ATOM      8  C   UNL     1       1.961   8.265  18.361  0.00  0.00    +0.000 C 
ATOM      9  N   UNL     1       1.603   8.269  19.806  0.00  0.00    +0.000 N 
ATOM     10  H   UNL     1       0.124  13.332  18.703  0.00  0.00    +0.000 HD
ENDROOT
BRANCH   4  11
ATOM     11  N   UNL     1      -0.112   9.439  22.339  0.00  0.00    +0.000 N 
ATOM     12  O   UNL     1      -0.835   8.437  22.267  0.00  0.00    +0.000 OA
ATOM     13  O   UNL     1       0.279   9.935  23.403  0.00  0.00    +0.000 OA
ENDBRANCH   4  11
BRANCH   9  14
ATOM     14  C   UNL     1       1.961   7.176  20.701  0.00  0.00    +0.000 C 
BRANCH  14  15
ATOM     15  C   UNL     1       2.375   5.890  20.025  0.00  0.00    +0.000 A 
ATOM     16  C   UNL     1       3.657   5.705  19.502  0.00  0.00    +0.000 A 
ATOM     17  C   UNL     1       3.968   4.526  18.821  0.00  0.00    +0.000 A 
ATOM     18  C   UNL     1       2.999   3.528  18.702  0.00  0.00    +0.000 A 
ATOM     19  N   UNL     1       1.756   3.679  19.242  0.00  0.00    +0.000 NA
ATOM     20  C   UNL     1       1.474   4.842  19.874  0.00  0.00    +0.000 A 
BRANCH  18  21
ATOM     21  C   UNL     1       3.322   2.237  17.958  0.00  0.00    +0.000 C 
ATOM     22  F   UNL     1       3.655   1.205  18.791  0.00  0.00    +0.000 F 
ATOM     23  F   UNL     1       2.276   1.775  17.215  0.00  0.00    +0.000 F 
ATOM     24  F   UNL     1       4.373   2.359  17.098  0.00  0.00    +0.000 F 
ENDBRANCH  18  21
ENDBRANCH  14  15
ENDBRANCH   9  14
TORSDOF 4
ENDMDL
MODEL 7
REMARK VINA RESULT:      -6.7      5.065      6.702
REMARK  Name = 
REMARK  4 active torsions:
REMARK  status: ('A' for Active; 'I' for Inactive)
REMARK    1  A    between atoms: C_4  and  N_5
REMARK    2  A    between atoms: N_12  and  C_13
REMARK    3  A    between atoms: C_13  and  C_14
REMARK    4  A    between atoms: C_17  and  C_18
REMARK                            x       y       z     vdW  Elec       q    Type
REMARK                         _______ _______ _______ _____ _____    ______ ____
ROOT
ATOM      1  N   UNL     1       0.023  12.563  18.321  0.00  0.00    +0.000 NA
ATOM      2  C   UNL     1       0.130  11.590  19.144  0.00  0.00    +0.000 A 
ATOM      3  S   UNL     1      -0.614  11.644  20.742  0.00  0.00    +0.000 S 
ATOM      4  C   UNL     1       0.076  10.063  21.127  0.00  0.00    +0.000 A 
ATOM      5  C   UNL     1       0.803   9.544  20.109  0.00  0.00    +0.000 A 
ATOM      6  N   UNL     1       0.778  10.407  19.008  0.00  0.00    +0.000 N 
ATOM      7  C   UNL     1       1.611   9.958  17.920  0.00  0.00    +0.000 C 
ATOM      8  C   UNL     1       1.851   8.473  18.304  0.00  0.00    +0.000 C 
ATOM      9  N   UNL     1       1.559   8.430  19.762  0.00  0.00    +0.000 N 
ATOM     10  H   UNL     1      -0.543  13.292  18.772  0.00  0.00    +0.000 HD
ENDROOT
BRANCH   4  11
ATOM     11  N   UNL     1      -0.168   9.382  22.378  0.00  0.00    +0.000 N 
ATOM     12  O   UNL     1      -0.813   8.327  22.333  0.00  0.00    +0.000 OA
ATOM     13  O   UNL     1       0.249   9.892  23.425  0.00  0.00    +0.000 OA
ENDBRANCH   4  11
BRANCH   9  14
ATOM     14  C   UNL     1       2.079   7.381  20.631  0.00  0.00    +0.000 C 
BRANCH  14  15
ATOM     15  C   UNL     1       2.311   6.044  19.970  0.00  0.00    +0.000 A 
ATOM     16  C   UNL     1       1.541   4.919  20.278  0.00  0.00    +0.000 A 
ATOM     17  C   UNL     1       1.842   3.687  19.693  0.00  0.00    +0.000 A 
ATOM     18  C   UNL     1       2.892   3.602  18.777  0.00  0.00    +0.000 A 
ATOM     19  N   UNL     1       3.627   4.700  18.437  0.00  0.00    +0.000 NA
ATOM     20  C   UNL     1       3.330   5.875  19.039  0.00  0.00    +0.000 A 
BRANCH  18  21
ATOM     21  C   UNL     1       3.236   2.263  18.133  0.00  0.00    +0.000 C 
ATOM     22  F   UNL     1       2.250   1.794  17.309  0.00  0.00    +0.000 F 
ATOM     23  F   UNL     1       4.357   2.317  17.358  0.00  0.00    +0.000 F 
ATOM     24  F   UNL     1       3.450   1.269  19.041  0.00  0.00    +0.000 F 
ENDBRANCH  18  21
ENDBRANCH  14  15
ENDBRANCH   9  14
TORSDOF 4
ENDMDL
MODEL 8
REMARK VINA RESULT:      -6.7      5.760      7.291
REMARK  Name = 
REMARK  4 active torsions:
REMARK  status: ('A' for Active; 'I' for Inactive)
REMARK    1  A    between atoms: C_4  and  N_5
REMARK    2  A    between atoms: N_12  and  C_13
REMARK    3  A    between atoms: C_13  and  C_14
REMARK    4  A    between atoms: C_17  and  C_18
REMARK                            x       y       z     vdW  Elec       q    Type
REMARK                         _______ _______ _______ _____ _____    ______ ____
ROOT
ATOM      1  N   UNL     1       5.336   1.377  20.316  0.00  0.00    +0.000 NA
ATOM      2  C   UNL     1       4.519   2.251  19.865  0.00  0.00    +0.000 A 
ATOM      3  S   UNL     1       2.792   1.920  19.729  0.00  0.00    +0.000 S 
ATOM      4  C   UNL     1       2.534   3.514  19.011  0.00  0.00    +0.000 A 
ATOM      5  C   UNL     1       3.676   4.232  18.899  0.00  0.00    +0.000 A 
ATOM      6  N   UNL     1       4.755   3.510  19.421  0.00  0.00    +0.000 N 
ATOM      7  C   UNL     1       6.020   4.180  19.248  0.00  0.00    +0.000 C 
ATOM      8  C   UNL     1       5.564   5.627  18.919  0.00  0.00    +0.000 C 
ATOM      9  N   UNL     1       4.157   5.462  18.462  0.00  0.00    +0.000 N 
ATOM     10  H   UNL     1       4.794   0.538  20.555  0.00  0.00    +0.000 HD
ENDROOT
BRANCH   4  11
ATOM     11  N   UNL     1       1.227   4.009  18.643  0.00  0.00    +0.000 N 
ATOM     12  O   UNL     1       1.009   4.194  17.438  0.00  0.00    +0.000 OA
ATOM     13  O   UNL     1       0.407   4.248  19.538  0.00  0.00    +0.000 OA
ENDBRANCH   4  11
BRANCH   9  14
ATOM     14  C   UNL     1       3.485   6.454  17.631  0.00  0.00    +0.000 C 
BRANCH  14  15
ATOM     15  C   UNL     1       2.607   7.435  18.370  0.00  0.00    +0.000 A 
ATOM     16  C   UNL     1       2.103   8.587  17.761  0.00  0.00    +0.000 A 
ATOM     17  C   UNL     1       1.356   9.500  18.508  0.00  0.00    +0.000 A 
ATOM     18  C   UNL     1       1.092   9.232  19.852  0.00  0.00    +0.000 A 
ATOM     19  N   UNL     1       1.544   8.092  20.450  0.00  0.00    +0.000 NA
ATOM     20  C   UNL     1       2.287   7.237  19.709  0.00  0.00    +0.000 A 
BRANCH  18  21
ATOM     21  C   UNL     1       0.281  10.221  20.683  0.00  0.00    +0.000 C 
ATOM     22  F   UNL     1       1.002  11.320  21.063  0.00  0.00    +0.000 F 
ATOM     23  F   UNL     1      -0.801  10.715  20.016  0.00  0.00    +0.000 F 
ATOM     24  F   UNL     1      -0.198   9.686  21.841  0.00  0.00    +0.000 F 
ENDBRANCH  18  21
ENDBRANCH  14  15
ENDBRANCH   9  14
TORSDOF 4
ENDMDL
MODEL 9
REMARK VINA RESULT:      -6.7      0.715      1.201
REMARK  Name = 
REMARK  4 active torsions:
REMARK  status: ('A' for Active; 'I' for Inactive)
REMARK    1  A    between atoms: C_4  and  N_5
REMARK    2  A    between atoms: N_12  and  C_13
REMARK    3  A    between atoms: C_13  and  C_14
REMARK    4  A    between atoms: C_17  and  C_18
REMARK                            x       y       z     vdW  Elec       q    Type
REMARK                         _______ _______ _______ _____ _____    ______ ____
ROOT
ATOM      1  N   UNL     1       1.267   7.477  20.552  0.00  0.00    +0.000 NA
ATOM      2  C   UNL     1       2.041   6.549  20.135  0.00  0.00    +0.000 A 
ATOM      3  S   UNL     1       1.991   4.925  20.821  0.00  0.00    +0.000 S 
ATOM      4  C   UNL     1       3.329   4.433  19.775  0.00  0.00    +0.000 A 
ATOM      5  C   UNL     1       3.761   5.430  18.969  0.00  0.00    +0.000 A 
ATOM      6  N   UNL     1       2.994   6.583  19.171  0.00  0.00    +0.000 N 
ATOM      7  C   UNL     1       3.462   7.714  18.409  0.00  0.00    +0.000 C 
ATOM      8  C   UNL     1       4.382   7.026  17.365  0.00  0.00    +0.000 C 
ATOM      9  N   UNL     1       4.699   5.709  17.980  0.00  0.00    +0.000 N 
ATOM     10  H   UNL     1       0.677   7.081  21.293  0.00  0.00    +0.000 HD
ENDROOT
BRANCH   4  11
ATOM     11  N   UNL     1       3.855   3.087  19.752  0.00  0.00    +0.000 N 
ATOM     12  O   UNL     1       3.079   2.180  19.424  0.00  0.00    +0.000 OA
ATOM     13  O   UNL     1       5.032   2.902  20.085  0.00  0.00    +0.000 OA
ENDBRANCH   4  11
BRANCH   9  14
ATOM     14  C   UNL     1       5.869   4.929  17.595  0.00  0.00    +0.000 C 
BRANCH  14  15
ATOM     15  C   UNL     1       6.038   4.699  16.112  0.00  0.00    +0.000 A 
ATOM     16  C   UNL     1       5.086   4.013  15.353  0.00  0.00    +0.000 A 
ATOM     17  C   UNL     1       5.322   3.762  14.000  0.00  0.00    +0.000 A 
ATOM     18  C   UNL     1       6.497   4.233  13.412  0.00  0.00    +0.000 A 
ATOM     19  N   UNL     1       7.417   4.938  14.130  0.00  0.00    +0.000 NA
ATOM     20  C   UNL     1       7.174   5.144  15.446  0.00  0.00    +0.000 A 
BRANCH  18  21
ATOM     21  C   UNL     1       6.771   3.963  11.936  0.00  0.00    +0.000 C 
ATOM     22  F   UNL     1       7.521   4.941  11.341  0.00  0.00    +0.000 F 
ATOM     23  F   UNL     1       7.461   2.805  11.725  0.00  0.00    +0.000 F 
ATOM     24  F   UNL     1       5.637   3.872  11.185  0.00  0.00    +0.000 F 
ENDBRANCH  18  21
ENDBRANCH  14  15
ENDBRANCH   9  14
TORSDOF 4
ENDMDL
