MODEL 1
REMARK VINA RESULT:      -8.8      0.000      0.000
REMARK  Name = 
REMARK  5 active torsions:
REMARK  status: ('A' for Active; 'I' for Inactive)
REMARK    1  A    between atoms: C_1  and  C_2
REMARK    2  A    between atoms: C_7  and  S_8
REMARK    3  A    between atoms: S_8  and  C_9
REMARK    4  A    between atoms: C_9  and  C_10
REMARK    5  A    between atoms: C_12  and  O_13
REMARK                            x       y       z     vdW  Elec       q    Type
REMARK                         _______ _______ _______ _____ _____    ______ ____
ROOT
ATOM      1  C   UNL     1       6.825   5.089  18.878  0.00  0.00    +0.000 C 
ENDROOT
BRANCH   1   2
ATOM      2  C   UNL     1       5.366   4.828  19.206  0.00  0.00    +0.000 A 
ATOM      3  N   UNL     1       4.602   5.876  19.569  0.00  0.00    +0.000 NA
ATOM      4  C   UNL     1       3.304   5.602  19.745  0.00  0.00    +0.000 A 
ATOM      5  C   UNL     1       2.701   4.363  19.578  0.00  0.00    +0.000 A 
ATOM      6  C   UNL     1       1.317   4.105  19.723  0.00  0.00    +0.000 A 
ATOM      7  C   UNL     1       0.818   2.824  19.502  0.00  0.00    +0.000 A 
ATOM      8  C   UNL     1       1.697   1.802  19.165  0.00  0.00    +0.000 A 
ATOM      9  C   UNL     1       3.066   2.071  19.040  0.00  0.00    +0.000 A 
ATOM     10  C   UNL     1       3.589   3.346  19.226  0.00  0.00    +0.000 A 
ATOM     11  N   UNL     1       4.903   3.568  19.048  0.00  0.00    +0.000 NA
BRANCH   4  12
ATOM     12  O   UNL     1       2.572   6.693  20.102  0.00  0.00    +0.000 OA
ATOM     13  H   UNL     1       1.848   6.265  20.592  0.00  0.00    +0.000 HD
ENDBRANCH   4  12
ENDBRANCH   1   2
BRANCH   1  14
ATOM     14  S   UNL     1       6.986   6.442  17.666  0.00  0.00    +0.000 S 
BRANCH  14  21
ATOM     15  C   UNL     1       4.886   2.620  11.389  0.00  0.00    +0.000 C 
ATOM     16  C   UNL     1       5.685   3.454  12.350  0.00  0.00    +0.000 A 
ATOM     17  C   UNL     1       6.948   3.945  11.983  0.00  0.00    +0.000 A 
ATOM     18  C   UNL     1       7.716   4.724  12.859  0.00  0.00    +0.000 A 
ATOM     19  C   UNL     1       7.165   4.989  14.113  0.00  0.00    +0.000 A 
ATOM     20  N   UNL     1       7.624   5.699  15.192  0.00  0.00    +0.000 N 
ATOM     21  C   UNL     1       6.678   5.637  16.173  0.00  0.00    +0.000 A 
ATOM     22  N   UNL     1       5.631   4.937  15.810  0.00  0.00    +0.000 NA
ATOM     23  C   UNL     1       5.917   4.523  14.522  0.00  0.00    +0.000 A 
ATOM     24  C   UNL     1       5.164   3.743  13.629  0.00  0.00    +0.000 A 
ATOM     25  H   UNL     1       8.503   6.186  15.264  0.00  0.00    +0.000 HD
ENDBRANCH  14  21
ENDBRANCH   1  14
TORSDOF 4
ENDMDL
MODEL 2
REMARK VINA RESULT:      -8.6      1.484      1.958
REMARK  Name = 
REMARK  5 active torsions:
REMARK  status: ('A' for Active; 'I' for Inactive)
REMARK    1  A    between atoms: C_1  and  C_2
REMARK    2  A    between atoms: C_7  and  S_8
REMARK    3  A    between atoms: S_8  and  C_9
REMARK    4  A    between atoms: C_9  and  C_10
REMARK    5  A    between atoms: C_12  and  O_13
REMARK                            x       y       z     vdW  Elec       q    Type
REMARK                         _______ _______ _______ _____ _____    ______ ____
ROOT
ATOM      1  C   UNL     1       6.206   5.988  18.517  0.00  0.00    +0.000 C 
ENDROOT
BRANCH   1   2
ATOM      2  C   UNL     1       5.165   4.995  18.998  0.00  0.00    +0.000 A 
ATOM      3  N   UNL     1       5.571   3.743  19.288  0.00  0.00    +0.000 NA
ATOM      4  C   UNL     1       4.629   2.944  19.806  0.00  0.00    +0.000 A 
ATOM      5  C   UNL     1       3.313   3.296  20.067  0.00  0.00    +0.000 A 
ATOM      6  C   UNL     1       2.345   2.449  20.659  0.00  0.00    +0.000 A 
ATOM      7  C   UNL     1       1.058   2.920  20.901  0.00  0.00    +0.000 A 
ATOM      8  C   UNL     1       0.730   4.219  20.531  0.00  0.00    +0.000 A 
ATOM      9  C   UNL     1       1.694   5.040  19.933  0.00  0.00    +0.000 A 
ATOM     10  C   UNL     1       2.996   4.605  19.705  0.00  0.00    +0.000 A 
ATOM     11  N   UNL     1       3.902   5.444  19.172  0.00  0.00    +0.000 NA
BRANCH   4  12
ATOM     12  O   UNL     1       5.088   1.694  20.091  0.00  0.00    +0.000 OA
ATOM     13  H   UNL     1       6.040   1.875  20.182  0.00  0.00    +0.000 HD
ENDBRANCH   4  12
ENDBRANCH   1   2
BRANCH   1  14
ATOM     14  S   UNL     1       7.634   5.127  17.779  0.00  0.00    +0.000 S 
BRANCH  14  21
ATOM     15  C   UNL     1       4.410   2.992  11.187  0.00  0.00    +0.000 C 
ATOM     16  C   UNL     1       5.366   3.595  12.177  0.00  0.00    +0.000 A 
ATOM     17  C   UNL     1       6.518   4.264  11.735  0.00  0.00    +0.000 A 
ATOM     18  C   UNL     1       7.427   4.835  12.635  0.00  0.00    +0.000 A 
ATOM     19  C   UNL     1       7.132   4.707  13.993  0.00  0.00    +0.000 A 
ATOM     20  N   UNL     1       7.781   5.132  15.122  0.00  0.00    +0.000 N 
ATOM     21  C   UNL     1       7.053   4.734  16.205  0.00  0.00    +0.000 A 
ATOM     22  N   UNL     1       5.970   4.078  15.862  0.00  0.00    +0.000 NA
ATOM     23  C   UNL     1       6.003   4.052  14.479  0.00  0.00    +0.000 A 
ATOM     24  C   UNL     1       5.104   3.486  13.559  0.00  0.00    +0.000 A 
ATOM     25  H   UNL     1       8.645   5.649  15.164  0.00  0.00    +0.000 HD
ENDBRANCH  14  21
ENDBRANCH   1  14
TORSDOF 4
ENDMDL
MODEL 3
REMARK VINA RESULT:      -8.0      1.425      6.482
REMARK  Name = 
REMARK  5 active torsions:
REMARK  status: ('A' for Active; 'I' for Inactive)
REMARK    1  A    between atoms: C_1  and  C_2
REMARK    2  A    between atoms: C_7  and  S_8
REMARK    3  A    between atoms: S_8  and  C_9
REMARK    4  A    between atoms: C_9  and  C_10
REMARK    5  A    between atoms: C_12  and  O_13
REMARK                            x       y       z     vdW  Elec       q    Type
REMARK                         _______ _______ _______ _____ _____    ______ ____
ROOT
ATOM      1  C   UNL     1       7.369   6.727  17.440  0.00  0.00    +0.000 C 
ENDROOT
BRANCH   1   2
ATOM      2  C   UNL     1       6.875   5.793  16.351  0.00  0.00    +0.000 A 
ATOM      3  N   UNL     1       5.708   5.149  16.551  0.00  0.00    +0.000 NA
ATOM      4  C   UNL     1       5.273   4.422  15.515  0.00  0.00    +0.000 A 
ATOM      5  C   UNL     1       5.904   4.293  14.286  0.00  0.00    +0.000 A 
ATOM      6  C   UNL     1       5.402   3.557  13.185  0.00  0.00    +0.000 A 
ATOM      7  C   UNL     1       6.109   3.521  11.987  0.00  0.00    +0.000 A 
ATOM      8  C   UNL     1       7.322   4.193  11.895  0.00  0.00    +0.000 A 
ATOM      9  C   UNL     1       7.813   4.904  12.997  0.00  0.00    +0.000 A 
ATOM     10  C   UNL     1       7.114   4.981  14.197  0.00  0.00    +0.000 A 
ATOM     11  N   UNL     1       7.600   5.716  15.213  0.00  0.00    +0.000 NA
BRANCH   4  12
ATOM     12  O   UNL     1       4.088   3.798  15.761  0.00  0.00    +0.000 OA
ATOM     13  H   UNL     1       4.263   2.928  15.361  0.00  0.00    +0.000 HD
ENDBRANCH   4  12
ENDBRANCH   1   2
BRANCH   1  14
ATOM     14  S   UNL     1       7.610   5.827  19.008  0.00  0.00    +0.000 S 
BRANCH  14  21
ATOM     15  C   UNL     1       0.477   3.419  20.327  0.00  0.00    +0.000 C 
ATOM     16  C   UNL     1       1.940   3.424  19.981  0.00  0.00    +0.000 A 
ATOM     17  C   UNL     1       2.595   2.227  19.650  0.00  0.00    +0.000 A 
ATOM     18  C   UNL     1       3.957   2.201  19.325  0.00  0.00    +0.000 A 
ATOM     19  C   UNL     1       4.632   3.422  19.346  0.00  0.00    +0.000 A 
ATOM     20  N   UNL     1       5.935   3.761  19.089  0.00  0.00    +0.000 N 
ATOM     21  C   UNL     1       6.064   5.109  19.260  0.00  0.00    +0.000 A 
ATOM     22  N   UNL     1       4.934   5.675  19.611  0.00  0.00    +0.000 NA
ATOM     23  C   UNL     1       4.025   4.634  19.669  0.00  0.00    +0.000 A 
ATOM     24  C   UNL     1       2.658   4.638  19.993  0.00  0.00    +0.000 A 
ATOM     25  H   UNL     1       6.679   3.138  18.819  0.00  0.00    +0.000 HD
ENDBRANCH  14  21
ENDBRANCH   1  14
TORSDOF 4
ENDMDL
MODEL 4
REMARK VINA RESULT:      -7.9      1.353      1.396
REMARK  Name = 
REMARK  5 active torsions:
REMARK  status: ('A' for Active; 'I' for Inactive)
REMARK    1  A    between atoms: C_1  and  C_2
REMARK    2  A    between atoms: C_7  and  S_8
REMARK    3  A    between atoms: S_8  and  C_9
REMARK    4  A    between atoms: C_9  and  C_10
REMARK    5  A    between atoms: C_12  and  O_13
REMARK                            x       y       z     vdW  Elec       q    Type
REMARK                         _______ _______ _______ _____ _____    ______ ____
ROOT
ATOM      1  C   UNL     1       4.406   7.183  17.294  0.00  0.00    +0.000 C 
ENDROOT
BRANCH   1   2
ATOM      2  C   UNL     1       3.547   6.309  18.189  0.00  0.00    +0.000 A 
ATOM      3  N   UNL     1       3.077   6.845  19.333  0.00  0.00    +0.000 NA
ATOM      4  C   UNL     1       2.243   6.062  20.028  0.00  0.00    +0.000 A 
ATOM      5  C   UNL     1       1.829   4.787  19.669  0.00  0.00    +0.000 A 
ATOM      6  C   UNL     1       0.908   3.995  20.395  0.00  0.00    +0.000 A 
ATOM      7  C   UNL     1       0.543   2.737  19.923  0.00  0.00    +0.000 A 
ATOM      8  C   UNL     1       1.114   2.261  18.748  0.00  0.00    +0.000 A 
ATOM      9  C   UNL     1       2.035   3.051  18.049  0.00  0.00    +0.000 A 
ATOM     10  C   UNL     1       2.396   4.323  18.482  0.00  0.00    +0.000 A 
ATOM     11  N   UNL     1       3.248   5.065  17.753  0.00  0.00    +0.000 NA
BRANCH   4  12
ATOM     12  O   UNL     1       1.788   6.649  21.169  0.00  0.00    +0.000 OA
ATOM     13  H   UNL     1       2.541   6.484  21.763  0.00  0.00    +0.000 HD
ENDBRANCH   4  12
ENDBRANCH   1   2
BRANCH   1  14
ATOM     14  S   UNL     1       6.130   6.589  17.265  0.00  0.00    +0.000 S 
BRANCH  14  21
ATOM     15  C   UNL     1       5.587   1.987  11.188  0.00  0.00    +0.000 C 
ATOM     16  C   UNL     1       6.085   3.033  12.144  0.00  0.00    +0.000 A 
ATOM     17  C   UNL     1       7.260   3.748  11.864  0.00  0.00    +0.000 A 
ATOM     18  C   UNL     1       7.750   4.728  12.737  0.00  0.00    +0.000 A 
ATOM     19  C   UNL     1       7.012   4.960  13.898  0.00  0.00    +0.000 A 
ATOM     20  N   UNL     1       7.191   5.823  14.948  0.00  0.00    +0.000 N 
ATOM     21  C   UNL     1       6.167   5.636  15.830  0.00  0.00    +0.000 A 
ATOM     22  N   UNL     1       5.328   4.710  15.428  0.00  0.00    +0.000 NA
ATOM     23  C   UNL     1       5.842   4.276  14.219  0.00  0.00    +0.000 A 
ATOM     24  C   UNL     1       5.369   3.297  13.330  0.00  0.00    +0.000 A 
ATOM     25  H   UNL     1       7.941   6.486  15.065  0.00  0.00    +0.000 HD
ENDBRANCH  14  21
ENDBRANCH   1  14
TORSDOF 4
ENDMDL
MODEL 5
REMARK VINA RESULT:      -7.8      1.405      2.343
REMARK  Name = 
REMARK  5 active torsions:
REMARK  status: ('A' for Active; 'I' for Inactive)
REMARK    1  A    between atoms: C_1  and  C_2
REMARK    2  A    between atoms: C_7  and  S_8
REMARK    3  A    between atoms: S_8  and  C_9
REMARK    4  A    between atoms: C_9  and  C_10
REMARK    5  A    between atoms: C_12  and  O_13
REMARK                            x       y       z     vdW  Elec       q    Type
REMARK                         _______ _______ _______ _____ _____    ______ ____
ROOT
ATOM      1  C   UNL     1       6.870   5.573  19.039  0.00  0.00    +0.000 C 
ENDROOT
BRANCH   1   2
ATOM      2  C   UNL     1       5.556   4.827  19.173  0.00  0.00    +0.000 A 
ATOM      3  N   UNL     1       5.562   3.494  18.976  0.00  0.00    +0.000 NA
ATOM      4  C   UNL     1       4.397   2.877  19.210  0.00  0.00    +0.000 A 
ATOM      5  C   UNL     1       3.224   3.483  19.636  0.00  0.00    +0.000 A 
ATOM      6  C   UNL     1       2.015   2.805  19.923  0.00  0.00    +0.000 A 
ATOM      7  C   UNL     1       0.905   3.515  20.373  0.00  0.00    +0.000 A 
ATOM      8  C   UNL     1       0.992   4.895  20.510  0.00  0.00    +0.000 A 
ATOM      9  C   UNL     1       2.191   5.553  20.207  0.00  0.00    +0.000 A 
ATOM     10  C   UNL     1       3.324   4.866  19.783  0.00  0.00    +0.000 A 
ATOM     11  N   UNL     1       4.467   5.534  19.551  0.00  0.00    +0.000 NA
BRANCH   4  12
ATOM     12  O   UNL     1       4.455   1.532  19.006  0.00  0.00    +0.000 OA
ATOM     13  H   UNL     1       4.790   1.239  19.872  0.00  0.00    +0.000 HD
ENDBRANCH   4  12
ENDBRANCH   1   2
BRANCH   1  14
ATOM     14  S   UNL     1       6.752   6.875  17.767  0.00  0.00    +0.000 S 
BRANCH  14  21
ATOM     15  C   UNL     1       7.162   3.026  11.177  0.00  0.00    +0.000 C 
ATOM     16  C   UNL     1       6.632   3.616  12.453  0.00  0.00    +0.000 A 
ATOM     17  C   UNL     1       5.299   3.397  12.836  0.00  0.00    +0.000 A 
ATOM     18  C   UNL     1       4.777   3.935  14.019  0.00  0.00    +0.000 A 
ATOM     19  C   UNL     1       5.645   4.699  14.799  0.00  0.00    +0.000 A 
ATOM     20  N   UNL     1       5.478   5.360  15.988  0.00  0.00    +0.000 N 
ATOM     21  C   UNL     1       6.662   5.958  16.311  0.00  0.00    +0.000 A 
ATOM     22  N   UNL     1       7.593   5.732  15.415  0.00  0.00    +0.000 NA
ATOM     23  C   UNL     1       6.974   4.944  14.460  0.00  0.00    +0.000 A 
ATOM     24  C   UNL     1       7.478   4.396  13.269  0.00  0.00    +0.000 A 
ATOM     25  H   UNL     1       4.637   5.406  16.541  0.00  0.00    +0.000 HD
ENDBRANCH  14  21
ENDBRANCH   1  14
TORSDOF 4
ENDMDL
MODEL 6
REMARK VINA RESULT:      -7.7      2.973      7.464
REMARK  Name = 
REMARK  5 active torsions:
REMARK  status: ('A' for Active; 'I' for Inactive)
REMARK    1  A    between atoms: C_1  and  C_2
REMARK    2  A    between atoms: C_7  and  S_8
REMARK    3  A    between atoms: S_8  and  C_9
REMARK    4  A    between atoms: C_9  and  C_10
REMARK    5  A    between atoms: C_12  and  O_13
REMARK                            x       y       z     vdW  Elec       q    Type
REMARK                         _______ _______ _______ _____ _____    ______ ____
ROOT
ATOM      1  C   UNL     1       3.902   3.875  17.575  0.00  0.00    +0.000 C 
ENDROOT
BRANCH   1   2
ATOM      2  C   UNL     1       4.872   4.341  16.505  0.00  0.00    +0.000 A 
ATOM      3  N   UNL     1       5.830   5.221  16.859  0.00  0.00    +0.000 NA
ATOM      4  C   UNL     1       6.717   5.514  15.901  0.00  0.00    +0.000 A 
ATOM      5  C   UNL     1       6.733   4.993  14.615  0.00  0.00    +0.000 A 
ATOM      6  C   UNL     1       7.709   5.280  13.631  0.00  0.00    +0.000 A 
ATOM      7  C   UNL     1       7.641   4.674  12.380  0.00  0.00    +0.000 A 
ATOM      8  C   UNL     1       6.591   3.806  12.103  0.00  0.00    +0.000 A 
ATOM      9  C   UNL     1       5.625   3.543  13.082  0.00  0.00    +0.000 A 
ATOM     10  C   UNL     1       5.684   4.113  14.350  0.00  0.00    +0.000 A 
ATOM     11  N   UNL     1       4.761   3.793  15.274  0.00  0.00    +0.000 NA
BRANCH   4  12
ATOM     12  O   UNL     1       7.669   6.399  16.308  0.00  0.00    +0.000 OA
ATOM     13  H   UNL     1       7.266   7.235  16.016  0.00  0.00    +0.000 HD
ENDBRANCH   4  12
ENDBRANCH   1   2
BRANCH   1  14
ATOM     14  S   UNL     1       4.333   4.586  19.198  0.00  0.00    +0.000 S 
BRANCH  14  21
ATOM     15  C   UNL     1       0.153  10.962  18.664  0.00  0.00    +0.000 C 
ATOM     16  C   UNL     1       0.796   9.720  19.214  0.00  0.00    +0.000 A 
ATOM     17  C   UNL     1       0.562   9.329  20.542  0.00  0.00    +0.000 A 
ATOM     18  C   UNL     1       1.148   8.177  21.083  0.00  0.00    +0.000 A 
ATOM     19  C   UNL     1       1.975   7.436  20.237  0.00  0.00    +0.000 A 
ATOM     20  N   UNL     1       2.694   6.285  20.425  0.00  0.00    +0.000 N 
ATOM     21  C   UNL     1       3.339   5.992  19.259  0.00  0.00    +0.000 A 
ATOM     22  N   UNL     1       3.090   6.872  18.319  0.00  0.00    +0.000 NA
ATOM     23  C   UNL     1       2.237   7.785  18.914  0.00  0.00    +0.000 A 
ATOM     24  C   UNL     1       1.640   8.944  18.392  0.00  0.00    +0.000 A 
ATOM     25  H   UNL     1       2.747   5.737  21.270  0.00  0.00    +0.000 HD
ENDBRANCH  14  21
ENDBRANCH   1  14
TORSDOF 4
ENDMDL
MODEL 7
REMARK VINA RESULT:      -7.7      3.362      6.958
REMARK  Name = 
REMARK  5 active torsions:
REMARK  status: ('A' for Active; 'I' for Inactive)
REMARK    1  A    between atoms: C_1  and  C_2
REMARK    2  A    between atoms: C_7  and  S_8
REMARK    3  A    between atoms: S_8  and  C_9
REMARK    4  A    between atoms: C_9  and  C_10
REMARK    5  A    between atoms: C_12  and  O_13
REMARK                            x       y       z     vdW  Elec       q    Type
REMARK                         _______ _______ _______ _____ _____    ______ ____
ROOT
ATOM      1  C   UNL     1       2.441   3.746  19.411  0.00  0.00    +0.000 C 
ENDROOT
BRANCH   1   2
ATOM      2  C   UNL     1       3.731   4.174  18.736  0.00  0.00    +0.000 A 
ATOM      3  N   UNL     1       4.764   4.540  19.520  0.00  0.00    +0.000 NA
ATOM      4  C   UNL     1       5.905   4.807  18.872  0.00  0.00    +0.000 A 
ATOM      5  C   UNL     1       6.102   4.729  17.501  0.00  0.00    +0.000 A 
ATOM      6  C   UNL     1       7.331   4.970  16.840  0.00  0.00    +0.000 A 
ATOM      7  C   UNL     1       7.420   4.833  15.458  0.00  0.00    +0.000 A 
ATOM      8  C   UNL     1       6.284   4.485  14.736  0.00  0.00    +0.000 A 
ATOM      9  C   UNL     1       5.073   4.264  15.403  0.00  0.00    +0.000 A 
ATOM     10  C   UNL     1       4.961   4.366  16.786  0.00  0.00    +0.000 A 
ATOM     11  N   UNL     1       3.790   4.098  17.388  0.00  0.00    +0.000 NA
BRANCH   4  12
ATOM     12  O   UNL     1       6.921   5.162  19.706  0.00  0.00    +0.000 OA
ATOM     13  H   UNL     1       7.633   4.594  19.365  0.00  0.00    +0.000 HD
ENDBRANCH   4  12
ENDBRANCH   1   2
BRANCH   1  14
ATOM     14  S   UNL     1       2.187   4.660  20.969  0.00  0.00    +0.000 S 
BRANCH  14  21
ATOM     15  C   UNL     1       0.548  11.916  19.217  0.00  0.00    +0.000 C 
ATOM     16  C   UNL     1       1.078  10.513  19.129  0.00  0.00    +0.000 A 
ATOM     17  C   UNL     1       1.784  10.091  17.991  0.00  0.00    +0.000 A 
ATOM     18  C   UNL     1       2.289   8.789  17.881  0.00  0.00    +0.000 A 
ATOM     19  C   UNL     1       2.056   7.931  18.957  0.00  0.00    +0.000 A 
ATOM     20  N   UNL     1       2.396   6.623  19.185  0.00  0.00    +0.000 N 
ATOM     21  C   UNL     1       1.913   6.267  20.410  0.00  0.00    +0.000 A 
ATOM     22  N   UNL     1       1.281   7.253  21.001  0.00  0.00    +0.000 NA
ATOM     23  C   UNL     1       1.361   8.304  20.105  0.00  0.00    +0.000 A 
ATOM     24  C   UNL     1       0.863   9.615  20.195  0.00  0.00    +0.000 A 
ATOM     25  H   UNL     1       2.912   6.017  18.568  0.00  0.00    +0.000 HD
ENDBRANCH  14  21
ENDBRANCH   1  14
TORSDOF 4
ENDMDL
MODEL 8
REMARK VINA RESULT:      -7.6      6.625      8.281
REMARK  Name = 
REMARK  5 active torsions:
REMARK  status: ('A' for Active; 'I' for Inactive)
REMARK    1  A    between atoms: C_1  and  C_2
REMARK    2  A    between atoms: C_7  and  S_8
REMARK    3  A    between atoms: S_8  and  C_9
REMARK    4  A    between atoms: C_9  and  C_10
REMARK    5  A    between atoms: C_12  and  O_13
REMARK                            x       y       z     vdW  Elec       q    Type
REMARK                         _______ _______ _______ _____ _____    ______ ____
ROOT
ATOM      1  C   UNL     1       8.280   9.280  17.552  0.00  0.00    +0.000 C 
ENDROOT
BRANCH   1   2
ATOM      2  C   UNL     1       7.700   7.900  17.804  0.00  0.00    +0.000 A 
ATOM      3  N   UNL     1       8.254   7.150  18.777  0.00  0.00    +0.000 NA
ATOM      4  C   UNL     1       7.635   5.989  19.022  0.00  0.00    +0.000 A 
ATOM      5  C   UNL     1       6.499   5.517  18.380  0.00  0.00    +0.000 A 
ATOM      6  C   UNL     1       5.833   4.306  18.688  0.00  0.00    +0.000 A 
ATOM      7  C   UNL     1       4.681   3.946  17.994  0.00  0.00    +0.000 A 
ATOM      8  C   UNL     1       4.211   4.774  16.982  0.00  0.00    +0.000 A 
ATOM      9  C   UNL     1       4.890   5.962  16.680  0.00  0.00    +0.000 A 
ATOM     10  C   UNL     1       6.027   6.361  17.375  0.00  0.00    +0.000 A 
ATOM     11  N   UNL     1       6.618   7.532  17.083  0.00  0.00    +0.000 NA
BRANCH   4  12
ATOM     12  O   UNL     1       8.224   5.271  20.018  0.00  0.00    +0.000 OA
ATOM     13  H   UNL     1       9.067   5.039  19.591  0.00  0.00    +0.000 HD
ENDBRANCH   4  12
ENDBRANCH   1   2
BRANCH   1  14
ATOM     14  S   UNL     1       9.125   9.913  19.039  0.00  0.00    +0.000 S 
BRANCH  14  21
ATOM     15  C   UNL     1      10.393  17.250  17.315  0.00  0.00    +0.000 C 
ATOM     16  C   UNL     1      10.546  15.757  17.398  0.00  0.00    +0.000 A 
ATOM     17  C   UNL     1      11.625  15.119  16.766  0.00  0.00    +0.000 A 
ATOM     18  C   UNL     1      11.794  13.729  16.825  0.00  0.00    +0.000 A 
ATOM     19  C   UNL     1      10.837  13.010  17.543  0.00  0.00    +0.000 A 
ATOM     20  N   UNL     1      10.692  11.672  17.803  0.00  0.00    +0.000 N 
ATOM     21  C   UNL     1       9.568  11.507  18.559  0.00  0.00    +0.000 A 
ATOM     22  N   UNL     1       8.969  12.646  18.814  0.00  0.00    +0.000 NA
ATOM     23  C   UNL     1       9.750  13.599  18.185  0.00  0.00    +0.000 A 
ATOM     24  C   UNL     1       9.600  14.994  18.113  0.00  0.00    +0.000 A 
ATOM     25  H   UNL     1      11.298  10.928  17.497  0.00  0.00    +0.000 HD
ENDBRANCH  14  21
ENDBRANCH   1  14
TORSDOF 4
ENDMDL
MODEL 9
REMARK VINA RESULT:      -7.6      2.791      7.216
REMARK  Name = 
REMARK  5 active torsions:
REMARK  status: ('A' for Active; 'I' for Inactive)
REMARK    1  A    between atoms: C_1  and  C_2
REMARK    2  A    between atoms: C_7  and  S_8
REMARK    3  A    between atoms: S_8  and  C_9
REMARK    4  A    between atoms: C_9  and  C_10
REMARK    5  A    between atoms: C_12  and  O_13
REMARK                            x       y       z     vdW  Elec       q    Type
REMARK                         _______ _______ _______ _____ _____    ______ ____
ROOT
ATOM      1  C   UNL     1       4.098   3.489  17.476  0.00  0.00    +0.000 C 
ENDROOT
BRANCH   1   2
ATOM      2  C   UNL     1       5.026   4.077  16.429  0.00  0.00    +0.000 A 
ATOM      3  N   UNL     1       5.927   4.996  16.826  0.00  0.00    +0.000 NA
ATOM      4  C   UNL     1       6.784   5.400  15.881  0.00  0.00    +0.000 A 
ATOM      5  C   UNL     1       6.822   4.954  14.568  0.00  0.00    +0.000 A 
ATOM      6  C   UNL     1       7.768   5.359  13.596  0.00  0.00    +0.000 A 
ATOM      7  C   UNL     1       7.727   4.821  12.313  0.00  0.00    +0.000 A 
ATOM      8  C   UNL     1       6.733   3.904  11.993  0.00  0.00    +0.000 A 
ATOM      9  C   UNL     1       5.796   3.523  12.962  0.00  0.00    +0.000 A 
ATOM     10  C   UNL     1       5.830   4.023  14.259  0.00  0.00    +0.000 A 
ATOM     11  N   UNL     1       4.939   3.593  15.170  0.00  0.00    +0.000 NA
BRANCH   4  12
ATOM     12  O   UNL     1       7.681   6.321  16.332  0.00  0.00    +0.000 OA
ATOM     13  H   UNL     1       8.125   5.806  17.028  0.00  0.00    +0.000 HD
ENDBRANCH   4  12
ENDBRANCH   1   2
BRANCH   1  14
ATOM     14  S   UNL     1       4.512   4.117  19.138  0.00  0.00    +0.000 S 
BRANCH  14  21
ATOM     15  C   UNL     1       0.069  10.210  20.377  0.00  0.00    +0.000 C 
ATOM     16  C   UNL     1       0.987   9.227  19.706  0.00  0.00    +0.000 A 
ATOM     17  C   UNL     1       1.408   9.438  18.384  0.00  0.00    +0.000 A 
ATOM     18  C   UNL     1       2.262   8.538  17.733  0.00  0.00    +0.000 A 
ATOM     19  C   UNL     1       2.674   7.423  18.462  0.00  0.00    +0.000 A 
ATOM     20  N   UNL     1       3.488   6.365  18.150  0.00  0.00    +0.000 N 
ATOM     21  C   UNL     1       3.555   5.546  19.239  0.00  0.00    +0.000 A 
ATOM     22  N   UNL     1       2.842   5.996  20.244  0.00  0.00    +0.000 NA
ATOM     23  C   UNL     1       2.283   7.172  19.776  0.00  0.00    +0.000 A 
ATOM     24  C   UNL     1       1.426   8.086  20.410  0.00  0.00    +0.000 A 
ATOM     25  H   UNL     1       3.962   6.205  17.276  0.00  0.00    +0.000 HD
ENDBRANCH  14  21
ENDBRANCH   1  14
TORSDOF 4
ENDMDL
