MODEL 1
REMARK VINA RESULT:      -6.1      0.000      0.000
REMARK  Name = 
REMARK  4 active torsions:
REMARK  status: ('A' for Active; 'I' for Inactive)
REMARK    1  A    between atoms: N_1  and  C_2
REMARK    2  A    between atoms: C_2  and  N_4
REMARK    3  A    between atoms: N_4  and  N_5
REMARK    4  A    between atoms: C_6  and  C_8
REMARK                            x       y       z     vdW  Elec       q    Type
REMARK                         _______ _______ _______ _____ _____    ______ ____
ROOT
ATOM      1  N   UNL     1       5.608   4.118  19.270  0.00  0.00    +0.000 NA
ATOM      2  C   UNL     1       4.468   3.955  18.663  0.00  0.00    +0.000 C 
ATOM      3  N   UNL     1       4.273   4.108  17.301  0.00  0.00    +0.000 N 
ATOM      4  H   UNL     1       4.720   4.938  16.930  0.00  0.00    +0.000 HD
ATOM      5  H   UNL     1       3.277   4.104  17.074  0.00  0.00    +0.000 HD
ENDROOT
BRANCH   2   6
ATOM      6  C   UNL     1       3.271   3.605  19.510  0.00  0.00    +0.000 A 
ATOM      7  C   UNL     1       1.993   3.999  19.129  0.00  0.00    +0.000 A 
ATOM      8  C   UNL     1       0.925   3.654  19.948  0.00  0.00    +0.000 A 
ATOM      9  C   UNL     1       1.170   2.932  21.110  0.00  0.00    +0.000 A 
ATOM     10  C   UNL     1       2.479   2.572  21.406  0.00  0.00    +0.000 A 
ATOM     11  N   UNL     1       3.543   2.880  20.631  0.00  0.00    +0.000 NA
ENDBRANCH   2   6
BRANCH   1  12
ATOM     12  N   UNL     1       6.693   4.359  18.478  0.00  0.00    +0.000 N 
ATOM     13  H   UNL     1       7.045   3.611  17.888  0.00  0.00    +0.000 HD
BRANCH  12  14
ATOM     14  C   UNL     1       7.432   5.498  18.646  0.00  0.00    +0.000 C 
ATOM     15  S   UNL     1       7.378   6.770  17.585  0.00  0.00    +0.000 S 
BRANCH  14  16
ATOM     16  N   UNL     1       8.213   5.517  19.754  0.00  0.00    +0.000 N 
ATOM     17  H   UNL     1       8.930   6.217  19.870  0.00  0.00    +0.000 HD
ATOM     18  H   UNL     1       8.260   4.646  20.267  0.00  0.00    +0.000 HD
ENDBRANCH  14  16
ENDBRANCH  12  14
ENDBRANCH   1  12
TORSDOF 4
ENDMDL
MODEL 2
REMARK VINA RESULT:      -6.1      1.198      1.461
REMARK  Name = 
REMARK  4 active torsions:
REMARK  status: ('A' for Active; 'I' for Inactive)
REMARK    1  A    between atoms: N_1  and  C_2
REMARK    2  A    between atoms: C_2  and  N_4
REMARK    3  A    between atoms: N_4  and  N_5
REMARK    4  A    between atoms: C_6  and  C_8
REMARK                            x       y       z     vdW  Elec       q    Type
REMARK                         _______ _______ _______ _____ _____    ______ ____
ROOT
ATOM      1  N   UNL     1       5.742   4.339  19.024  0.00  0.00    +0.000 NA
ATOM      2  C   UNL     1       4.734   3.666  18.550  0.00  0.00    +0.000 C 
ATOM      3  N   UNL     1       4.769   2.906  17.393  0.00  0.00    +0.000 N 
ATOM      4  H   UNL     1       5.231   3.379  16.625  0.00  0.00    +0.000 HD
ATOM      5  H   UNL     1       3.829   2.613  17.121  0.00  0.00    +0.000 HD
ENDROOT
BRANCH   2   6
ATOM      6  C   UNL     1       3.428   3.746  19.298  0.00  0.00    +0.000 A 
ATOM      7  C   UNL     1       2.983   4.955  19.821  0.00  0.00    +0.000 A 
ATOM      8  C   UNL     1       1.774   4.971  20.507  0.00  0.00    +0.000 A 
ATOM      9  C   UNL     1       1.058   3.788  20.643  0.00  0.00    +0.000 A 
ATOM     10  C   UNL     1       1.575   2.629  20.078  0.00  0.00    +0.000 A 
ATOM     11  N   UNL     1       2.741   2.573  19.396  0.00  0.00    +0.000 NA
ENDBRANCH   2   6
BRANCH   1  12
ATOM     12  N   UNL     1       6.934   4.193  18.375  0.00  0.00    +0.000 N 
ATOM     13  H   UNL     1       7.579   3.474  18.691  0.00  0.00    +0.000 HD
BRANCH  12  14
ATOM     14  C   UNL     1       7.353   5.135  17.477  0.00  0.00    +0.000 C 
ATOM     15  S   UNL     1       7.383   6.756  17.821  0.00  0.00    +0.000 S 
BRANCH  14  16
ATOM     16  N   UNL     1       7.753   4.646  16.277  0.00  0.00    +0.000 N 
ATOM     17  H   UNL     1       8.080   3.696  16.189  0.00  0.00    +0.000 HD
ATOM     18  H   UNL     1       8.007   5.342  15.587  0.00  0.00    +0.000 HD
ENDBRANCH  14  16
ENDBRANCH  12  14
ENDBRANCH   1  12
TORSDOF 4
ENDMDL
MODEL 3
REMARK VINA RESULT:      -6.1      0.805      1.365
REMARK  Name = 
REMARK  4 active torsions:
REMARK  status: ('A' for Active; 'I' for Inactive)
REMARK    1  A    between atoms: N_1  and  C_2
REMARK    2  A    between atoms: C_2  and  N_4
REMARK    3  A    between atoms: N_4  and  N_5
REMARK    4  A    between atoms: C_6  and  C_8
REMARK                            x       y       z     vdW  Elec       q    Type
REMARK                         _______ _______ _______ _____ _____    ______ ____
ROOT
ATOM      1  N   UNL     1       5.584   4.148  19.334  0.00  0.00    +0.000 NA
ATOM      2  C   UNL     1       4.574   3.608  18.717  0.00  0.00    +0.000 C 
ATOM      3  N   UNL     1       4.566   3.260  17.377  0.00  0.00    +0.000 N 
ATOM      4  H   UNL     1       4.960   3.978  16.781  0.00  0.00    +0.000 HD
ATOM      5  H   UNL     1       3.621   3.017  17.070  0.00  0.00    +0.000 HD
ENDROOT
BRANCH   2   6
ATOM      6  C   UNL     1       3.315   3.372  19.513  0.00  0.00    +0.000 A 
ATOM      7  C   UNL     1       3.371   2.792  20.775  0.00  0.00    +0.000 A 
ATOM      8  C   UNL     1       2.180   2.593  21.462  0.00  0.00    +0.000 A 
ATOM      9  C   UNL     1       0.984   2.979  20.868  0.00  0.00    +0.000 A 
ATOM     10  C   UNL     1       1.025   3.561  19.608  0.00  0.00    +0.000 A 
ATOM     11  N   UNL     1       2.163   3.781  18.911  0.00  0.00    +0.000 NA
ENDBRANCH   2   6
BRANCH   1  12
ATOM     12  N   UNL     1       6.738   4.283  18.618  0.00  0.00    +0.000 N 
ATOM     13  H   UNL     1       7.144   3.460  18.183  0.00  0.00    +0.000 HD
BRANCH  12  14
ATOM     14  C   UNL     1       7.456   5.445  18.676  0.00  0.00    +0.000 C 
ATOM     15  S   UNL     1       7.334   6.638  17.531  0.00  0.00    +0.000 S 
BRANCH  14  16
ATOM     16  N   UNL     1       8.277   5.559  19.749  0.00  0.00    +0.000 N 
ATOM     17  H   UNL     1       8.290   4.851  20.468  0.00  0.00    +0.000 HD
ATOM     18  H   UNL     1       8.607   6.496  19.947  0.00  0.00    +0.000 HD
ENDBRANCH  14  16
ENDBRANCH  12  14
ENDBRANCH   1  12
TORSDOF 4
ENDMDL
MODEL 4
REMARK VINA RESULT:      -6.0      1.056      1.175
REMARK  Name = 
REMARK  4 active torsions:
REMARK  status: ('A' for Active; 'I' for Inactive)
REMARK    1  A    between atoms: N_1  and  C_2
REMARK    2  A    between atoms: C_2  and  N_4
REMARK    3  A    between atoms: N_4  and  N_5
REMARK    4  A    between atoms: C_6  and  C_8
REMARK                            x       y       z     vdW  Elec       q    Type
REMARK                         _______ _______ _______ _____ _____    ______ ____
ROOT
ATOM      1  N   UNL     1       5.535   4.124  19.162  0.00  0.00    +0.000 NA
ATOM      2  C   UNL     1       4.527   3.980  18.351  0.00  0.00    +0.000 C 
ATOM      3  N   UNL     1       4.603   4.095  16.973  0.00  0.00    +0.000 N 
ATOM      4  H   UNL     1       5.144   4.898  16.674  0.00  0.00    +0.000 HD
ATOM      5  H   UNL     1       3.669   4.118  16.558  0.00  0.00    +0.000 HD
ENDROOT
BRANCH   2   6
ATOM      6  C   UNL     1       3.177   3.697  18.959  0.00  0.00    +0.000 A 
ATOM      7  C   UNL     1       2.682   4.490  19.988  0.00  0.00    +0.000 A 
ATOM      8  C   UNL     1       1.434   4.182  20.515  0.00  0.00    +0.000 A 
ATOM      9  C   UNL     1       0.730   3.101  19.999  0.00  0.00    +0.000 A 
ATOM     10  C   UNL     1       1.298   2.370  18.963  0.00  0.00    +0.000 A 
ATOM     11  N   UNL     1       2.504   2.643  18.416  0.00  0.00    +0.000 NA
ENDBRANCH   2   6
BRANCH   1  12
ATOM     12  N   UNL     1       6.760   4.304  18.589  0.00  0.00    +0.000 N 
ATOM     13  H   UNL     1       7.228   3.504  18.171  0.00  0.00    +0.000 HD
BRANCH  12  14
ATOM     14  C   UNL     1       7.446   5.472  18.775  0.00  0.00    +0.000 C 
ATOM     15  S   UNL     1       7.374   6.738  17.708  0.00  0.00    +0.000 S 
BRANCH  14  16
ATOM     16  N   UNL     1       8.190   5.526  19.907  0.00  0.00    +0.000 N 
ATOM     17  H   UNL     1       7.784   5.306  20.804  0.00  0.00    +0.000 HD
ATOM     18  H   UNL     1       9.029   6.090  19.849  0.00  0.00    +0.000 HD
ENDBRANCH  14  16
ENDBRANCH  12  14
ENDBRANCH   1  12
TORSDOF 4
ENDMDL
MODEL 5
REMARK VINA RESULT:      -6.0      1.160      1.543
REMARK  Name = 
REMARK  4 active torsions:
REMARK  status: ('A' for Active; 'I' for Inactive)
REMARK    1  A    between atoms: N_1  and  C_2
REMARK    2  A    between atoms: C_2  and  N_4
REMARK    3  A    between atoms: N_4  and  N_5
REMARK    4  A    between atoms: C_6  and  C_8
REMARK                            x       y       z     vdW  Elec       q    Type
REMARK                         _______ _______ _______ _____ _____    ______ ____
ROOT
ATOM      1  N   UNL     1       5.154   4.298  18.839  0.00  0.00    +0.000 NA
ATOM      2  C   UNL     1       4.562   3.273  19.380  0.00  0.00    +0.000 C 
ATOM      3  N   UNL     1       5.205   2.112  19.776  0.00  0.00    +0.000 N 
ATOM      4  H   UNL     1       5.868   1.774  19.088  0.00  0.00    +0.000 HD
ATOM      5  H   UNL     1       4.527   1.383  20.010  0.00  0.00    +0.000 HD
ENDROOT
BRANCH   2   6
ATOM      6  C   UNL     1       3.067   3.346  19.561  0.00  0.00    +0.000 A 
ATOM      7  C   UNL     1       2.500   4.294  20.404  0.00  0.00    +0.000 A 
ATOM      8  C   UNL     1       1.117   4.313  20.537  0.00  0.00    +0.000 A 
ATOM      9  C   UNL     1       0.356   3.392  19.828  0.00  0.00    +0.000 A 
ATOM     10  C   UNL     1       1.008   2.487  19.000  0.00  0.00    +0.000 A 
ATOM     11  N   UNL     1       2.350   2.442  18.835  0.00  0.00    +0.000 NA
ENDBRANCH   2   6
BRANCH   1  12
ATOM     12  N   UNL     1       6.516   4.244  18.754  0.00  0.00    +0.000 N 
ATOM     13  H   UNL     1       6.974   3.338  18.806  0.00  0.00    +0.000 HD
BRANCH  12  14
ATOM     14  C   UNL     1       7.260   5.388  18.831  0.00  0.00    +0.000 C 
ATOM     15  S   UNL     1       7.216   6.571  17.671  0.00  0.00    +0.000 S 
BRANCH  14  16
ATOM     16  N   UNL     1       8.037   5.492  19.937  0.00  0.00    +0.000 N 
ATOM     17  H   UNL     1       8.201   6.387  20.373  0.00  0.00    +0.000 HD
ATOM     18  H   UNL     1       8.677   4.723  20.093  0.00  0.00    +0.000 HD
ENDBRANCH  14  16
ENDBRANCH  12  14
ENDBRANCH   1  12
TORSDOF 4
ENDMDL
MODEL 6
REMARK VINA RESULT:      -6.0      1.269      1.608
REMARK  Name = 
REMARK  4 active torsions:
REMARK  status: ('A' for Active; 'I' for Inactive)
REMARK    1  A    between atoms: N_1  and  C_2
REMARK    2  A    between atoms: C_2  and  N_4
REMARK    3  A    between atoms: N_4  and  N_5
REMARK    4  A    between atoms: C_6  and  C_8
REMARK                            x       y       z     vdW  Elec       q    Type
REMARK                         _______ _______ _______ _____ _____    ______ ____
ROOT
ATOM      1  N   UNL     1       5.743   4.324  19.021  0.00  0.00    +0.000 NA
ATOM      2  C   UNL     1       4.710   3.706  18.526  0.00  0.00    +0.000 C 
ATOM      3  N   UNL     1       4.705   3.024  17.321  0.00  0.00    +0.000 N 
ATOM      4  H   UNL     1       5.160   3.539  16.575  0.00  0.00    +0.000 HD
ATOM      5  H   UNL     1       3.753   2.769  17.051  0.00  0.00    +0.000 HD
ENDROOT
BRANCH   2   6
ATOM      6  C   UNL     1       3.422   3.761  19.307  0.00  0.00    +0.000 A 
ATOM      7  C   UNL     1       2.601   2.644  19.401  0.00  0.00    +0.000 A 
ATOM      8  C   UNL     1       1.422   2.752  20.129  0.00  0.00    +0.000 A 
ATOM      9  C   UNL     1       1.109   3.963  20.734  0.00  0.00    +0.000 A 
ATOM     10  C   UNL     1       1.995   5.024  20.596  0.00  0.00    +0.000 A 
ATOM     11  N   UNL     1       3.156   4.957  19.904  0.00  0.00    +0.000 NA
ENDBRANCH   2   6
BRANCH   1  12
ATOM     12  N   UNL     1       6.917   4.199  18.338  0.00  0.00    +0.000 N 
ATOM     13  H   UNL     1       7.574   3.478  18.622  0.00  0.00    +0.000 HD
BRANCH  12  14
ATOM     14  C   UNL     1       7.307   5.161  17.448  0.00  0.00    +0.000 C 
ATOM     15  S   UNL     1       7.447   6.761  17.857  0.00  0.00    +0.000 S 
BRANCH  14  16
ATOM     16  N   UNL     1       7.579   4.710  16.199  0.00  0.00    +0.000 N 
ATOM     17  H   UNL     1       7.622   3.722  16.003  0.00  0.00    +0.000 HD
ATOM     18  H   UNL     1       8.040   5.374  15.589  0.00  0.00    +0.000 HD
ENDBRANCH  14  16
ENDBRANCH  12  14
ENDBRANCH   1  12
TORSDOF 4
ENDMDL
MODEL 7
REMARK VINA RESULT:      -5.9      1.544      1.909
REMARK  Name = 
REMARK  4 active torsions:
REMARK  status: ('A' for Active; 'I' for Inactive)
REMARK    1  A    between atoms: N_1  and  C_2
REMARK    2  A    between atoms: C_2  and  N_4
REMARK    3  A    between atoms: N_4  and  N_5
REMARK    4  A    between atoms: C_6  and  C_8
REMARK                            x       y       z     vdW  Elec       q    Type
REMARK                         _______ _______ _______ _____ _____    ______ ____
ROOT
ATOM      1  N   UNL     1       5.758   4.142  18.815  0.00  0.00    +0.000 NA
ATOM      2  C   UNL     1       5.004   3.737  17.836  0.00  0.00    +0.000 C 
ATOM      3  N   UNL     1       5.416   3.628  16.518  0.00  0.00    +0.000 N 
ATOM      4  H   UNL     1       5.948   4.431  16.204  0.00  0.00    +0.000 HD
ATOM      5  H   UNL     1       4.619   3.460  15.901  0.00  0.00    +0.000 HD
ENDROOT
BRANCH   2   6
ATOM      6  C   UNL     1       3.572   3.390  18.155  0.00  0.00    +0.000 A 
ATOM      7  C   UNL     1       3.262   2.231  18.857  0.00  0.00    +0.000 A 
ATOM      8  C   UNL     1       1.925   1.957  19.120  0.00  0.00    +0.000 A 
ATOM      9  C   UNL     1       0.953   2.845  18.675  0.00  0.00    +0.000 A 
ATOM     10  C   UNL     1       1.356   3.984  17.990  0.00  0.00    +0.000 A 
ATOM     11  N   UNL     1       2.645   4.292  17.723  0.00  0.00    +0.000 NA
ENDBRANCH   2   6
BRANCH   1  12
ATOM     12  N   UNL     1       7.070   4.378  18.521  0.00  0.00    +0.000 N 
ATOM     13  H   UNL     1       7.651   3.602  18.216  0.00  0.00    +0.000 HD
BRANCH  12  14
ATOM     14  C   UNL     1       7.648   5.573  18.848  0.00  0.00    +0.000 C 
ATOM     15  S   UNL     1       7.571   6.909  17.871  0.00  0.00    +0.000 S 
BRANCH  14  16
ATOM     16  N   UNL     1       8.290   5.591  20.043  0.00  0.00    +0.000 N 
ATOM     17  H   UNL     1       8.086   4.901  20.750  0.00  0.00    +0.000 HD
ATOM     18  H   UNL     1       8.710   6.476  20.297  0.00  0.00    +0.000 HD
ENDBRANCH  14  16
ENDBRANCH  12  14
ENDBRANCH   1  12
TORSDOF 4
ENDMDL
MODEL 8
REMARK VINA RESULT:      -5.9      1.297      1.964
REMARK  Name = 
REMARK  4 active torsions:
REMARK  status: ('A' for Active; 'I' for Inactive)
REMARK    1  A    between atoms: N_1  and  C_2
REMARK    2  A    between atoms: C_2  and  N_4
REMARK    3  A    between atoms: N_4  and  N_5
REMARK    4  A    between atoms: C_6  and  C_8
REMARK                            x       y       z     vdW  Elec       q    Type
REMARK                         _______ _______ _______ _____ _____    ______ ____
ROOT
ATOM      1  N   UNL     1       5.122   4.090  18.740  0.00  0.00    +0.000 NA
ATOM      2  C   UNL     1       4.576   3.108  19.397  0.00  0.00    +0.000 C 
ATOM      3  N   UNL     1       5.268   2.023  19.908  0.00  0.00    +0.000 N 
ATOM      4  H   UNL     1       5.938   1.638  19.253  0.00  0.00    +0.000 HD
ATOM      5  H   UNL     1       4.622   1.298  20.228  0.00  0.00    +0.000 HD
ENDROOT
BRANCH   2   6
ATOM      6  C   UNL     1       3.081   3.141  19.588  0.00  0.00    +0.000 A 
ATOM      7  C   UNL     1       2.531   3.287  20.856  0.00  0.00    +0.000 A 
ATOM      8  C   UNL     1       1.147   3.307  20.976  0.00  0.00    +0.000 A 
ATOM      9  C   UNL     1       0.367   3.181  19.832  0.00  0.00    +0.000 A 
ATOM     10  C   UNL     1       1.003   3.050  18.605  0.00  0.00    +0.000 A 
ATOM     11  N   UNL     1       2.346   3.037  18.445  0.00  0.00    +0.000 NA
ENDBRANCH   2   6
BRANCH   1  12
ATOM     12  N   UNL     1       6.483   4.080  18.644  0.00  0.00    +0.000 N 
ATOM     13  H   UNL     1       7.020   3.588  19.352  0.00  0.00    +0.000 HD
BRANCH  12  14
ATOM     14  C   UNL     1       7.120   4.902  17.756  0.00  0.00    +0.000 C 
ATOM     15  S   UNL     1       7.053   6.556  17.853  0.00  0.00    +0.000 S 
BRANCH  14  16
ATOM     16  N   UNL     1       7.822   4.265  16.787  0.00  0.00    +0.000 N 
ATOM     17  H   UNL     1       8.459   4.772  16.191  0.00  0.00    +0.000 HD
ATOM     18  H   UNL     1       7.445   3.373  16.492  0.00  0.00    +0.000 HD
ENDBRANCH  14  16
ENDBRANCH  12  14
ENDBRANCH   1  12
TORSDOF 4
ENDMDL
MODEL 9
REMARK VINA RESULT:      -5.9      1.166      1.473
REMARK  Name = 
REMARK  4 active torsions:
REMARK  status: ('A' for Active; 'I' for Inactive)
REMARK    1  A    between atoms: N_1  and  C_2
REMARK    2  A    between atoms: C_2  and  N_4
REMARK    3  A    between atoms: N_4  and  N_5
REMARK    4  A    between atoms: C_6  and  C_8
REMARK                            x       y       z     vdW  Elec       q    Type
REMARK                         _______ _______ _______ _____ _____    ______ ____
ROOT
ATOM      1  N   UNL     1       5.249   4.506  18.900  0.00  0.00    +0.000 NA
ATOM      2  C   UNL     1       4.620   3.491  19.419  0.00  0.00    +0.000 C 
ATOM      3  N   UNL     1       5.197   2.262  19.688  0.00  0.00    +0.000 N 
ATOM      4  H   UNL     1       5.779   1.925  18.929  0.00  0.00    +0.000 HD
ATOM      5  H   UNL     1       4.484   1.570  19.927  0.00  0.00    +0.000 HD
ENDROOT
BRANCH   2   6
ATOM      6  C   UNL     1       3.153   3.660  19.721  0.00  0.00    +0.000 A 
ATOM      7  C   UNL     1       2.240   2.667  19.384  0.00  0.00    +0.000 A 
ATOM      8  C   UNL     1       0.899   2.876  19.681  0.00  0.00    +0.000 A 
ATOM      9  C   UNL     1       0.520   4.061  20.300  0.00  0.00    +0.000 A 
ATOM     10  C   UNL     1       1.502   4.993  20.610  0.00  0.00    +0.000 A 
ATOM     11  N   UNL     1       2.818   4.824  20.347  0.00  0.00    +0.000 NA
ENDBRANCH   2   6
BRANCH   1  12
ATOM     12  N   UNL     1       6.592   4.358  18.705  0.00  0.00    +0.000 N 
ATOM     13  H   UNL     1       6.977   3.420  18.637  0.00  0.00    +0.000 HD
BRANCH  12  14
ATOM     14  C   UNL     1       7.431   5.430  18.830  0.00  0.00    +0.000 C 
ATOM     15  S   UNL     1       7.451   6.689  17.752  0.00  0.00    +0.000 S 
BRANCH  14  16
ATOM     16  N   UNL     1       8.247   5.395  19.912  0.00  0.00    +0.000 N 
ATOM     17  H   UNL     1       8.956   6.100  20.049  0.00  0.00    +0.000 HD
ATOM     18  H   UNL     1       8.327   4.495  20.368  0.00  0.00    +0.000 HD
ENDBRANCH  14  16
ENDBRANCH  12  14
ENDBRANCH   1  12
TORSDOF 4
ENDMDL
