MODEL 1
REMARK VINA RESULT:      -6.8      0.000      0.000
REMARK  Name = 
REMARK  9 active torsions:
REMARK  status: ('A' for Active; 'I' for Inactive)
REMARK    1  A    between atoms: O_1  and  C_2
REMARK    2  A    between atoms: C_2  and  C_3
REMARK    3  A    between atoms: C_3  and  C_4
REMARK    4  A    between atoms: C_3  and  O_6
REMARK    5  A    between atoms: C_4  and  O_5
REMARK    6  A    between atoms: O_6  and  C_7
REMARK    7  A    between atoms: C_7  and  N_8
REMARK    8  A    between atoms: C_16  and  C_17
REMARK    9  A    between atoms: C_25  and  O_26
REMARK                            x       y       z     vdW  Elec       q    Type
REMARK                         _______ _______ _______ _____ _____    ______ ____
ROOT
ATOM      1  N   UNL     1       4.222   3.368  17.824  0.00  0.00    +0.000 N 
ATOM      2  C   UNL     1       3.841   1.980  18.055  0.00  0.00    +0.000 C 
ATOM      3  N   UNL     1       2.720   2.086  18.980  0.00  0.00    +0.000 N 
ATOM      4  C   UNL     1       2.488   3.383  19.351  0.00  0.00    +0.000 A 
ATOM      5  C   UNL     1       3.422   4.239  18.536  0.00  0.00    +0.000 A 
ATOM      6  N   UNL     1       3.433   5.536  18.521  0.00  0.00    +0.000 NA
ATOM      7  C   UNL     1       2.546   6.149  19.369  0.00  0.00    +0.000 A 
ATOM      8  N   UNL     1       2.310   7.440  19.522  0.00  0.00    +0.000 NA
ATOM      9  C   UNL     1       1.391   7.547  20.540  0.00  0.00    +0.000 A 
ATOM     10  C   UNL     1       1.019   6.300  20.989  0.00  0.00    +0.000 A 
ATOM     11  N   UNL     1       1.731   5.406  20.232  0.00  0.00    +0.000 N 
ATOM     12  C   UNL     1       1.697   4.005  20.228  0.00  0.00    +0.000 A 
ATOM     13  H   UNL     1       2.535   1.366  19.666  0.00  0.00    +0.000 HD
ENDROOT
BRANCH   9  14
ATOM     14  C   UNL     1       0.865   8.803  21.052  0.00  0.00    +0.000 A 
ATOM     15  C   UNL     1       0.866   9.952  20.253  0.00  0.00    +0.000 A 
ATOM     16  C   UNL     1       0.322  11.149  20.732  0.00  0.00    +0.000 A 
ATOM     17  C   UNL     1      -0.214  11.211  22.018  0.00  0.00    +0.000 A 
ATOM     18  C   UNL     1      -0.205  10.079  22.829  0.00  0.00    +0.000 A 
ATOM     19  C   UNL     1       0.332   8.882  22.349  0.00  0.00    +0.000 A 
ENDBRANCH   9  14
BRANCH  12  20
ATOM     20  O   UNL     1       0.856   3.271  21.050  0.00  0.00    +0.000 OA
ATOM     21  H   UNL     1      -0.052   3.597  20.950  0.00  0.00    +0.000 HD
ENDBRANCH  12  20
BRANCH   1  22
ATOM     22  C   UNL     1       4.988   3.693  16.659  0.00  0.00    +0.000 C 
BRANCH  22  23
ATOM     23  O   UNL     1       6.265   4.221  16.998  0.00  0.00    +0.000 OA
BRANCH  23  24
ATOM     24  C   UNL     1       6.606   5.464  16.359  0.00  0.00    +0.000 C 
BRANCH  24  25
ATOM     25  C   UNL     1       5.420   6.098  15.611  0.00  0.00    +0.000 C 
BRANCH  25  26
ATOM     26  O   UNL     1       4.755   7.055  16.438  0.00  0.00    +0.000 OA
ATOM     27  H   UNL     1       4.487   6.578  17.245  0.00  0.00    +0.000 HD
ENDBRANCH  25  26
ENDBRANCH  24  25
BRANCH  24  28
ATOM     28  C   UNL     1       7.159   6.411  17.443  0.00  0.00    +0.000 C 
BRANCH  28  29
ATOM     29  O   UNL     1       7.562   7.682  16.938  0.00  0.00    +0.000 OA
ATOM     30  H   UNL     1       8.525   7.759  17.111  0.00  0.00    +0.000 HD
ENDBRANCH  28  29
ENDBRANCH  24  28
ENDBRANCH  23  24
ENDBRANCH  22  23
ENDBRANCH   1  22
TORSDOF 9
ENDMDL
MODEL 2
REMARK VINA RESULT:      -6.8      3.106      7.872
REMARK  Name = 
REMARK  9 active torsions:
REMARK  status: ('A' for Active; 'I' for Inactive)
REMARK    1  A    between atoms: O_1  and  C_2
REMARK    2  A    between atoms: C_2  and  C_3
REMARK    3  A    between atoms: C_3  and  C_4
REMARK    4  A    between atoms: C_3  and  O_6
REMARK    5  A    between atoms: C_4  and  O_5
REMARK    6  A    between atoms: O_6  and  C_7
REMARK    7  A    between atoms: C_7  and  N_8
REMARK    8  A    between atoms: C_16  and  C_17
REMARK    9  A    between atoms: C_25  and  O_26
REMARK                            x       y       z     vdW  Elec       q    Type
REMARK                         _______ _______ _______ _____ _____    ______ ____
ROOT
ATOM      1  N   UNL     1       2.159   6.238  20.029  0.00  0.00    +0.000 N 
ATOM      2  C   UNL     1       1.932   5.299  21.120  0.00  0.00    +0.000 C 
ATOM      3  N   UNL     1       2.691   4.123  20.718  0.00  0.00    +0.000 N 
ATOM      4  C   UNL     1       3.252   4.277  19.479  0.00  0.00    +0.000 A 
ATOM      5  C   UNL     1       2.971   5.695  19.053  0.00  0.00    +0.000 A 
ATOM      6  N   UNL     1       3.430   6.262  17.981  0.00  0.00    +0.000 NA
ATOM      7  C   UNL     1       4.186   5.464  17.161  0.00  0.00    +0.000 A 
ATOM      8  N   UNL     1       4.814   5.788  16.044  0.00  0.00    +0.000 NA
ATOM      9  C   UNL     1       5.366   4.626  15.560  0.00  0.00    +0.000 A 
ATOM     10  C   UNL     1       5.117   3.578  16.417  0.00  0.00    +0.000 A 
ATOM     11  N   UNL     1       4.388   4.108  17.449  0.00  0.00    +0.000 N 
ATOM     12  C   UNL     1       3.918   3.501  18.622  0.00  0.00    +0.000 A 
ATOM     13  H   UNL     1       2.395   3.191  20.981  0.00  0.00    +0.000 HD
ENDROOT
BRANCH   9  14
ATOM     14  C   UNL     1       6.132   4.524  14.327  0.00  0.00    +0.000 A 
ATOM     15  C   UNL     1       5.731   3.646  13.313  0.00  0.00    +0.000 A 
ATOM     16  C   UNL     1       6.445   3.578  12.111  0.00  0.00    +0.000 A 
ATOM     17  C   UNL     1       7.572   4.377  11.918  0.00  0.00    +0.000 A 
ATOM     18  C   UNL     1       7.991   5.242  12.926  0.00  0.00    +0.000 A 
ATOM     19  C   UNL     1       7.275   5.314  14.124  0.00  0.00    +0.000 A 
ENDBRANCH   9  14
BRANCH  12  20
ATOM     20  O   UNL     1       4.158   2.172  18.928  0.00  0.00    +0.000 OA
ATOM     21  H   UNL     1       3.353   1.656  18.766  0.00  0.00    +0.000 HD
ENDBRANCH  12  20
BRANCH   1  22
ATOM     22  C   UNL     1       1.939   7.635  20.257  0.00  0.00    +0.000 C 
BRANCH  22  23
ATOM     23  O   UNL     1       1.046   7.857  21.342  0.00  0.00    +0.000 OA
BRANCH  23  24
ATOM     24  C   UNL     1       1.028   9.201  21.857  0.00  0.00    +0.000 C 
BRANCH  24  25
ATOM     25  C   UNL     1       0.846  10.262  20.757  0.00  0.00    +0.000 C 
BRANCH  25  26
ATOM     26  O   UNL     1       1.308  11.537  21.205  0.00  0.00    +0.000 OA
ATOM     27  H   UNL     1       2.229  11.617  20.895  0.00  0.00    +0.000 HD
ENDBRANCH  25  26
ENDBRANCH  24  25
BRANCH  24  28
ATOM     28  C   UNL     1      -0.097   9.283  22.909  0.00  0.00    +0.000 C 
BRANCH  28  29
ATOM     29  O   UNL     1      -0.346  10.607  23.374  0.00  0.00    +0.000 OA
ATOM     30  H   UNL     1      -1.134  10.555  23.957  0.00  0.00    +0.000 HD
ENDBRANCH  28  29
ENDBRANCH  24  28
ENDBRANCH  23  24
ENDBRANCH  22  23
ENDBRANCH   1  22
TORSDOF 9
ENDMDL
MODEL 3
REMARK VINA RESULT:      -6.8      1.101      1.542
REMARK  Name = 
REMARK  9 active torsions:
REMARK  status: ('A' for Active; 'I' for Inactive)
REMARK    1  A    between atoms: O_1  and  C_2
REMARK    2  A    between atoms: C_2  and  C_3
REMARK    3  A    between atoms: C_3  and  C_4
REMARK    4  A    between atoms: C_3  and  O_6
REMARK    5  A    between atoms: C_4  and  O_5
REMARK    6  A    between atoms: O_6  and  C_7
REMARK    7  A    between atoms: C_7  and  N_8
REMARK    8  A    between atoms: C_16  and  C_17
REMARK    9  A    between atoms: C_25  and  O_26
REMARK                            x       y       z     vdW  Elec       q    Type
REMARK                         _______ _______ _______ _____ _____    ______ ____
ROOT
ATOM      1  N   UNL     1       4.160   4.040  17.666  0.00  0.00    +0.000 N 
ATOM      2  C   UNL     1       4.033   2.634  18.030  0.00  0.00    +0.000 C 
ATOM      3  N   UNL     1       3.086   2.655  19.138  0.00  0.00    +0.000 N 
ATOM      4  C   UNL     1       2.735   3.933  19.483  0.00  0.00    +0.000 A 
ATOM      5  C   UNL     1       3.377   4.845  18.470  0.00  0.00    +0.000 A 
ATOM      6  N   UNL     1       3.196   6.126  18.391  0.00  0.00    +0.000 NA
ATOM      7  C   UNL     1       2.391   6.675  19.356  0.00  0.00    +0.000 A 
ATOM      8  N   UNL     1       1.998   7.929  19.487  0.00  0.00    +0.000 NA
ATOM      9  C   UNL     1       1.265   7.986  20.650  0.00  0.00    +0.000 A 
ATOM     10  C   UNL     1       1.163   6.737  21.219  0.00  0.00    +0.000 A 
ATOM     11  N   UNL     1       1.856   5.894  20.389  0.00  0.00    +0.000 N 
ATOM     12  C   UNL     1       2.027   4.504  20.458  0.00  0.00    +0.000 A 
ATOM     13  H   UNL     1       3.131   1.969  19.880  0.00  0.00    +0.000 HD
ENDROOT
BRANCH   9  14
ATOM     14  C   UNL     1       0.659   9.193  21.188  0.00  0.00    +0.000 A 
ATOM     15  C   UNL     1      -0.032   9.159  22.405  0.00  0.00    +0.000 A 
ATOM     16  C   UNL     1      -0.580  10.329  22.943  0.00  0.00    +0.000 A 
ATOM     17  C   UNL     1      -0.454  11.540  22.262  0.00  0.00    +0.000 A 
ATOM     18  C   UNL     1       0.216  11.584  21.042  0.00  0.00    +0.000 A 
ATOM     19  C   UNL     1       0.768  10.417  20.508  0.00  0.00    +0.000 A 
ENDBRANCH   9  14
BRANCH  12  20
ATOM     20  O   UNL     1       1.459   3.726  21.454  0.00  0.00    +0.000 OA
ATOM     21  H   UNL     1       1.273   2.842  21.102  0.00  0.00    +0.000 HD
ENDBRANCH  12  20
BRANCH   1  22
ATOM     22  C   UNL     1       4.656   4.378  16.366  0.00  0.00    +0.000 C 
BRANCH  22  23
ATOM     23  O   UNL     1       5.766   3.568  15.998  0.00  0.00    +0.000 OA
BRANCH  23  24
ATOM     24  C   UNL     1       6.964   4.287  15.654  0.00  0.00    +0.000 C 
BRANCH  24  25
ATOM     25  C   UNL     1       6.835   5.072  14.337  0.00  0.00    +0.000 C 
BRANCH  25  26
ATOM     26  O   UNL     1       8.112   5.550  13.907  0.00  0.00    +0.000 OA
ATOM     27  H   UNL     1       8.715   5.432  14.664  0.00  0.00    +0.000 HD
ENDBRANCH  25  26
ENDBRANCH  24  25
BRANCH  24  28
ATOM     28  C   UNL     1       7.305   5.220  16.834  0.00  0.00    +0.000 C 
BRANCH  28  29
ATOM     29  O   UNL     1       7.537   6.571  16.443  0.00  0.00    +0.000 OA
ATOM     30  H   UNL     1       7.603   7.094  17.271  0.00  0.00    +0.000 HD
ENDBRANCH  28  29
ENDBRANCH  24  28
ENDBRANCH  23  24
ENDBRANCH  22  23
ENDBRANCH   1  22
TORSDOF 9
ENDMDL
MODEL 4
REMARK VINA RESULT:      -6.8      1.104      1.584
REMARK  Name = 
REMARK  9 active torsions:
REMARK  status: ('A' for Active; 'I' for Inactive)
REMARK    1  A    between atoms: O_1  and  C_2
REMARK    2  A    between atoms: C_2  and  C_3
REMARK    3  A    between atoms: C_3  and  C_4
REMARK    4  A    between atoms: C_3  and  O_6
REMARK    5  A    between atoms: C_4  and  O_5
REMARK    6  A    between atoms: O_6  and  C_7
REMARK    7  A    between atoms: C_7  and  N_8
REMARK    8  A    between atoms: C_16  and  C_17
REMARK    9  A    between atoms: C_25  and  O_26
REMARK                            x       y       z     vdW  Elec       q    Type
REMARK                         _______ _______ _______ _____ _____    ______ ____
ROOT
ATOM      1  N   UNL     1       4.245   4.209  17.641  0.00  0.00    +0.000 N 
ATOM      2  C   UNL     1       4.066   2.790  17.925  0.00  0.00    +0.000 C 
ATOM      3  N   UNL     1       3.067   2.780  18.985  0.00  0.00    +0.000 N 
ATOM      4  C   UNL     1       2.729   4.047  19.378  0.00  0.00    +0.000 A 
ATOM      5  C   UNL     1       3.442   4.992  18.445  0.00  0.00    +0.000 A 
ATOM      6  N   UNL     1       3.295   6.280  18.425  0.00  0.00    +0.000 NA
ATOM      7  C   UNL     1       2.455   6.800  19.376  0.00  0.00    +0.000 A 
ATOM      8  N   UNL     1       2.086   8.056  19.553  0.00  0.00    +0.000 NA
ATOM      9  C   UNL     1       1.298   8.074  20.680  0.00  0.00    +0.000 A 
ATOM     10  C   UNL     1       1.139   6.800  21.178  0.00  0.00    +0.000 A 
ATOM     11  N   UNL     1       1.852   5.982  20.340  0.00  0.00    +0.000 N 
ATOM     12  C   UNL     1       1.987   4.587  20.346  0.00  0.00    +0.000 A 
ATOM     13  H   UNL     1       3.059   2.057  19.692  0.00  0.00    +0.000 HD
ENDROOT
BRANCH   9  14
ATOM     14  C   UNL     1       0.693   9.267  21.250  0.00  0.00    +0.000 A 
ATOM     15  C   UNL     1       0.802  10.500  20.596  0.00  0.00    +0.000 A 
ATOM     16  C   UNL     1       0.186  11.640  21.125  0.00  0.00    +0.000 A 
ATOM     17  C   UNL     1      -0.534  11.560  22.317  0.00  0.00    +0.000 A 
ATOM     18  C   UNL     1      -0.635  10.342  22.986  0.00  0.00    +0.000 A 
ATOM     19  C   UNL     1      -0.025   9.203  22.455  0.00  0.00    +0.000 A 
ENDBRANCH   9  14
BRANCH  12  20
ATOM     20  O   UNL     1       1.352   3.775  21.272  0.00  0.00    +0.000 OA
ATOM     21  H   UNL     1       0.820   4.326  21.868  0.00  0.00    +0.000 HD
ENDBRANCH  12  20
BRANCH   1  22
ATOM     22  C   UNL     1       4.812   4.599  16.385  0.00  0.00    +0.000 C 
BRANCH  22  23
ATOM     23  O   UNL     1       5.497   5.843  16.481  0.00  0.00    +0.000 OA
BRANCH  23  24
ATOM     24  C   UNL     1       6.933   5.752  16.511  0.00  0.00    +0.000 C 
BRANCH  24  25
ATOM     25  C   UNL     1       7.474   5.236  17.855  0.00  0.00    +0.000 C 
BRANCH  25  26
ATOM     26  O   UNL     1       8.281   4.073  17.662  0.00  0.00    +0.000 OA
ATOM     27  H   UNL     1       9.021   4.348  17.089  0.00  0.00    +0.000 HD
ENDBRANCH  25  26
ENDBRANCH  24  25
BRANCH  24  28
ATOM     28  C   UNL     1       7.368   4.843  15.343  0.00  0.00    +0.000 C 
BRANCH  28  29
ATOM     29  O   UNL     1       7.648   5.556  14.140  0.00  0.00    +0.000 OA
ATOM     30  H   UNL     1       7.356   4.980  13.401  0.00  0.00    +0.000 HD
ENDBRANCH  28  29
ENDBRANCH  24  28
ENDBRANCH  23  24
ENDBRANCH  22  23
ENDBRANCH   1  22
TORSDOF 9
ENDMDL
MODEL 5
REMARK VINA RESULT:      -6.7      2.007      2.399
REMARK  Name = 
REMARK  9 active torsions:
REMARK  status: ('A' for Active; 'I' for Inactive)
REMARK    1  A    between atoms: O_1  and  C_2
REMARK    2  A    between atoms: C_2  and  C_3
REMARK    3  A    between atoms: C_3  and  C_4
REMARK    4  A    between atoms: C_3  and  O_6
REMARK    5  A    between atoms: C_4  and  O_5
REMARK    6  A    between atoms: O_6  and  C_7
REMARK    7  A    between atoms: C_7  and  N_8
REMARK    8  A    between atoms: C_16  and  C_17
REMARK    9  A    between atoms: C_25  and  O_26
REMARK                            x       y       z     vdW  Elec       q    Type
REMARK                         _______ _______ _______ _____ _____    ______ ____
ROOT
ATOM      1  N   UNL     1       5.057   5.011  16.544  0.00  0.00    +0.000 N 
ATOM      2  C   UNL     1       5.298   3.596  16.793  0.00  0.00    +0.000 C 
ATOM      3  N   UNL     1       4.500   3.320  17.981  0.00  0.00    +0.000 N 
ATOM      4  C   UNL     1       3.903   4.452  18.467  0.00  0.00    +0.000 A 
ATOM      5  C   UNL     1       4.202   5.554  17.483  0.00  0.00    +0.000 A 
ATOM      6  N   UNL     1       3.722   6.757  17.534  0.00  0.00    +0.000 NA
ATOM      7  C   UNL     1       2.922   7.035  18.612  0.00  0.00    +0.000 A 
ATOM      8  N   UNL     1       2.266   8.148  18.888  0.00  0.00    +0.000 NA
ATOM      9  C   UNL     1       1.673   7.955  20.114  0.00  0.00    +0.000 A 
ATOM     10  C   UNL     1       1.926   6.684  20.578  0.00  0.00    +0.000 A 
ATOM     11  N   UNL     1       2.699   6.085  19.618  0.00  0.00    +0.000 N 
ATOM     12  C   UNL     1       3.193   4.775  19.549  0.00  0.00    +0.000 A 
ATOM     13  H   UNL     1       4.783   2.619  18.653  0.00  0.00    +0.000 HD
ENDROOT
BRANCH   9  14
ATOM     14  C   UNL     1       0.866   8.945  20.809  0.00  0.00    +0.000 A 
ATOM     15  C   UNL     1       0.203   9.950  20.095  0.00  0.00    +0.000 A 
ATOM     16  C   UNL     1      -0.606  10.878  20.761  0.00  0.00    +0.000 A 
ATOM     17  C   UNL     1      -0.748  10.817  22.147  0.00  0.00    +0.000 A 
ATOM     18  C   UNL     1      -0.080   9.833  22.871  0.00  0.00    +0.000 A 
ATOM     19  C   UNL     1       0.723   8.902  22.205  0.00  0.00    +0.000 A 
ENDBRANCH   9  14
BRANCH  12  20
ATOM     20  O   UNL     1       2.933   3.822  20.521  0.00  0.00    +0.000 OA
ATOM     21  H   UNL     1       3.010   4.231  21.398  0.00  0.00    +0.000 HD
ENDBRANCH  12  20
BRANCH   1  22
ATOM     22  C   UNL     1       5.315   5.540  15.239  0.00  0.00    +0.000 C 
BRANCH  22  23
ATOM     23  O   UNL     1       6.706   5.549  14.939  0.00  0.00    +0.000 OA
BRANCH  23  24
ATOM     24  C   UNL     1       7.121   4.623  13.920  0.00  0.00    +0.000 C 
BRANCH  24  25
ATOM     25  C   UNL     1       5.945   3.853  13.294  0.00  0.00    +0.000 C 
BRANCH  25  26
ATOM     26  O   UNL     1       6.420   2.838  12.408  0.00  0.00    +0.000 OA
ATOM     27  H   UNL     1       5.633   2.344  12.113  0.00  0.00    +0.000 HD
ENDBRANCH  25  26
ENDBRANCH  24  25
BRANCH  24  28
ATOM     28  C   UNL     1       7.902   5.419  12.855  0.00  0.00    +0.000 C 
BRANCH  28  29
ATOM     29  O   UNL     1       9.083   6.038  13.360  0.00  0.00    +0.000 OA
ATOM     30  H   UNL     1       9.543   6.434  12.588  0.00  0.00    +0.000 HD
ENDBRANCH  28  29
ENDBRANCH  24  28
ENDBRANCH  23  24
ENDBRANCH  22  23
ENDBRANCH   1  22
TORSDOF 9
ENDMDL
MODEL 6
REMARK VINA RESULT:      -6.7      1.044      1.502
REMARK  Name = 
REMARK  9 active torsions:
REMARK  status: ('A' for Active; 'I' for Inactive)
REMARK    1  A    between atoms: O_1  and  C_2
REMARK    2  A    between atoms: C_2  and  C_3
REMARK    3  A    between atoms: C_3  and  C_4
REMARK    4  A    between atoms: C_3  and  O_6
REMARK    5  A    between atoms: C_4  and  O_5
REMARK    6  A    between atoms: O_6  and  C_7
REMARK    7  A    between atoms: C_7  and  N_8
REMARK    8  A    between atoms: C_16  and  C_17
REMARK    9  A    between atoms: C_25  and  O_26
REMARK                            x       y       z     vdW  Elec       q    Type
REMARK                         _______ _______ _______ _____ _____    ______ ____
ROOT
ATOM      1  N   UNL     1       4.447   3.871  18.005  0.00  0.00    +0.000 N 
ATOM      2  C   UNL     1       4.068   2.465  18.078  0.00  0.00    +0.000 C 
ATOM      3  N   UNL     1       2.854   2.483  18.883  0.00  0.00    +0.000 N 
ATOM      4  C   UNL     1       2.560   3.742  19.334  0.00  0.00    +0.000 A 
ATOM      5  C   UNL     1       3.560   4.672  18.696  0.00  0.00    +0.000 A 
ATOM      6  N   UNL     1       3.549   5.965  18.790  0.00  0.00    +0.000 NA
ATOM      7  C   UNL     1       2.567   6.497  19.585  0.00  0.00    +0.000 A 
ATOM      8  N   UNL     1       2.292   7.768  19.818  0.00  0.00    +0.000 NA
ATOM      9  C   UNL     1       1.269   7.781  20.737  0.00  0.00    +0.000 A 
ATOM     10  C   UNL     1       0.873   6.497  21.039  0.00  0.00    +0.000 A 
ATOM     11  N   UNL     1       1.678   5.676  20.292  0.00  0.00    +0.000 N 
ATOM     12  C   UNL     1       1.670   4.280  20.168  0.00  0.00    +0.000 A 
ATOM     13  H   UNL     1       2.610   1.706  19.484  0.00  0.00    +0.000 HD
ENDROOT
BRANCH   9  14
ATOM     14  C   UNL     1       0.669   8.984  21.292  0.00  0.00    +0.000 A 
ATOM     15  C   UNL     1       0.748  10.200  20.603  0.00  0.00    +0.000 A 
ATOM     16  C   UNL     1       0.135  11.349  21.118  0.00  0.00    +0.000 A 
ATOM     17  C   UNL     1      -0.550  11.294  22.331  0.00  0.00    +0.000 A 
ATOM     18  C   UNL     1      -0.622  10.094  23.034  0.00  0.00    +0.000 A 
ATOM     19  C   UNL     1      -0.015   8.946  22.518  0.00  0.00    +0.000 A 
ENDBRANCH   9  14
BRANCH  12  20
ATOM     20  O   UNL     1       0.760   3.473  20.832  0.00  0.00    +0.000 OA
ATOM     21  H   UNL     1      -0.126   3.861  20.757  0.00  0.00    +0.000 HD
ENDBRANCH  12  20
BRANCH   1  22
ATOM     22  C   UNL     1       5.326   4.299  16.960  0.00  0.00    +0.000 C 
BRANCH  22  23
ATOM     23  O   UNL     1       6.656   4.482  17.432  0.00  0.00    +0.000 OA
BRANCH  23  24
ATOM     24  C   UNL     1       6.851   5.616  18.296  0.00  0.00    +0.000 C 
BRANCH  24  25
ATOM     25  C   UNL     1       8.143   5.522  19.126  0.00  0.00    +0.000 C 
BRANCH  25  26
ATOM     26  O   UNL     1       7.842   5.444  20.521  0.00  0.00    +0.000 OA
ATOM     27  H   UNL     1       7.331   6.247  20.734  0.00  0.00    +0.000 HD
ENDBRANCH  25  26
ENDBRANCH  24  25
BRANCH  24  28
ATOM     28  C   UNL     1       6.838   6.882  17.416  0.00  0.00    +0.000 C 
BRANCH  28  29
ATOM     29  O   UNL     1       7.706   6.801  16.288  0.00  0.00    +0.000 OA
ATOM     30  H   UNL     1       7.607   5.894  15.925  0.00  0.00    +0.000 HD
ENDBRANCH  28  29
ENDBRANCH  24  28
ENDBRANCH  23  24
ENDBRANCH  22  23
ENDBRANCH   1  22
TORSDOF 9
ENDMDL
MODEL 7
REMARK VINA RESULT:      -6.7      4.128      8.255
REMARK  Name = 
REMARK  9 active torsions:
REMARK  status: ('A' for Active; 'I' for Inactive)
REMARK    1  A    between atoms: O_1  and  C_2
REMARK    2  A    between atoms: C_2  and  C_3
REMARK    3  A    between atoms: C_3  and  C_4
REMARK    4  A    between atoms: C_3  and  O_6
REMARK    5  A    between atoms: C_4  and  O_5
REMARK    6  A    between atoms: O_6  and  C_7
REMARK    7  A    between atoms: C_7  and  N_8
REMARK    8  A    between atoms: C_16  and  C_17
REMARK    9  A    between atoms: C_25  and  O_26
REMARK                            x       y       z     vdW  Elec       q    Type
REMARK                         _______ _______ _______ _____ _____    ______ ____
ROOT
ATOM      1  N   UNL     1      -0.688  11.435  19.422  0.00  0.00    +0.000 N 
ATOM      2  C   UNL     1      -0.999  11.670  20.826  0.00  0.00    +0.000 C 
ATOM      3  N   UNL     1      -0.184  10.683  21.523  0.00  0.00    +0.000 N 
ATOM      4  C   UNL     1       0.486   9.869  20.651  0.00  0.00    +0.000 A 
ATOM      5  C   UNL     1       0.221  10.406  19.268  0.00  0.00    +0.000 A 
ATOM      6  N   UNL     1       0.766   9.972  18.176  0.00  0.00    +0.000 NA
ATOM      7  C   UNL     1       1.610   8.900  18.316  0.00  0.00    +0.000 A 
ATOM      8  N   UNL     1       2.332   8.292  17.392  0.00  0.00    +0.000 NA
ATOM      9  C   UNL     1       2.949   7.233  18.016  0.00  0.00    +0.000 A 
ATOM     10  C   UNL     1       2.640   7.216  19.358  0.00  0.00    +0.000 A 
ATOM     11  N   UNL     1       1.809   8.287  19.560  0.00  0.00    +0.000 N 
ATOM     12  C   UNL     1       1.243   8.774  20.747  0.00  0.00    +0.000 A 
ATOM     13  H   UNL     1      -0.487  10.276  22.399  0.00  0.00    +0.000 HD
ENDROOT
BRANCH   9  14
ATOM     14  C   UNL     1       3.827   6.280  17.357  0.00  0.00    +0.000 A 
ATOM     15  C   UNL     1       3.647   4.903  17.540  0.00  0.00    +0.000 A 
ATOM     16  C   UNL     1       4.467   3.986  16.873  0.00  0.00    +0.000 A 
ATOM     17  C   UNL     1       5.481   4.436  16.028  0.00  0.00    +0.000 A 
ATOM     18  C   UNL     1       5.681   5.803  15.850  0.00  0.00    +0.000 A 
ATOM     19  C   UNL     1       4.858   6.719  16.511  0.00  0.00    +0.000 A 
ENDBRANCH   9  14
BRANCH  12  20
ATOM     20  O   UNL     1       1.477   8.195  21.983  0.00  0.00    +0.000 OA
ATOM     21  H   UNL     1       1.545   7.233  21.878  0.00  0.00    +0.000 HD
ENDBRANCH  12  20
BRANCH   1  22
ATOM     22  C   UNL     1      -0.954  12.470  18.469  0.00  0.00    +0.000 C 
BRANCH  22  23
ATOM     23  O   UNL     1      -1.751  12.000  17.389  0.00  0.00    +0.000 OA
BRANCH  23  24
ATOM     24  C   UNL     1      -2.734  11.008  17.736  0.00  0.00    +0.000 C 
BRANCH  24  25
ATOM     25  C   UNL     1      -4.139  11.601  17.939  0.00  0.00    +0.000 C 
BRANCH  25  26
ATOM     26  O   UNL     1      -4.603  12.221  16.738  0.00  0.00    +0.000 OA
ATOM     27  H   UNL     1      -3.838  12.695  16.364  0.00  0.00    +0.000 HD
ENDBRANCH  25  26
ENDBRANCH  24  25
BRANCH  24  28
ATOM     28  C   UNL     1      -2.730   9.937  16.626  0.00  0.00    +0.000 C 
BRANCH  28  29
ATOM     29  O   UNL     1      -2.656  10.482  15.310  0.00  0.00    +0.000 OA
ATOM     30  H   UNL     1      -2.481  11.442  15.415  0.00  0.00    +0.000 HD
ENDBRANCH  28  29
ENDBRANCH  24  28
ENDBRANCH  23  24
ENDBRANCH  22  23
ENDBRANCH   1  22
TORSDOF 9
ENDMDL
MODEL 8
REMARK VINA RESULT:      -6.7      2.665      4.973
REMARK  Name = 
REMARK  9 active torsions:
REMARK  status: ('A' for Active; 'I' for Inactive)
REMARK    1  A    between atoms: O_1  and  C_2
REMARK    2  A    between atoms: C_2  and  C_3
REMARK    3  A    between atoms: C_3  and  C_4
REMARK    4  A    between atoms: C_3  and  O_6
REMARK    5  A    between atoms: C_4  and  O_5
REMARK    6  A    between atoms: O_6  and  C_7
REMARK    7  A    between atoms: C_7  and  N_8
REMARK    8  A    between atoms: C_16  and  C_17
REMARK    9  A    between atoms: C_25  and  O_26
REMARK                            x       y       z     vdW  Elec       q    Type
REMARK                         _______ _______ _______ _____ _____    ______ ____
ROOT
ATOM      1  N   UNL     1       2.633   6.090  19.332  0.00  0.00    +0.000 N 
ATOM      2  C   UNL     1       3.253   6.111  18.013  0.00  0.00    +0.000 C 
ATOM      3  N   UNL     1       3.038   7.478  17.559  0.00  0.00    +0.000 N 
ATOM      4  C   UNL     1       2.291   8.199  18.451  0.00  0.00    +0.000 A 
ATOM      5  C   UNL     1       2.087   7.316  19.655  0.00  0.00    +0.000 A 
ATOM      6  N   UNL     1       1.518   7.676  20.763  0.00  0.00    +0.000 NA
ATOM      7  C   UNL     1       1.024   8.955  20.792  0.00  0.00    +0.000 A 
ATOM      8  N   UNL     1       0.449   9.595  21.795  0.00  0.00    +0.000 NA
ATOM      9  C   UNL     1       0.065  10.821  21.303  0.00  0.00    +0.000 A 
ATOM     10  C   UNL     1       0.454  10.958  19.989  0.00  0.00    +0.000 A 
ATOM     11  N   UNL     1       1.085   9.785  19.665  0.00  0.00    +0.000 N 
ATOM     12  C   UNL     1       1.726   9.408  18.477  0.00  0.00    +0.000 A 
ATOM     13  H   UNL     1       2.923   7.694  16.577  0.00  0.00    +0.000 HD
ENDROOT
BRANCH   9  14
ATOM     14  C   UNL     1      -0.630  11.841  22.071  0.00  0.00    +0.000 A 
ATOM     15  C   UNL     1      -0.207  13.175  22.027  0.00  0.00    +0.000 A 
ATOM     16  C   UNL     1      -0.901  14.163  22.735  0.00  0.00    +0.000 A 
ATOM     17  C   UNL     1      -2.016  13.824  23.502  0.00  0.00    +0.000 A 
ATOM     18  C   UNL     1      -2.437  12.498  23.567  0.00  0.00    +0.000 A 
ATOM     19  C   UNL     1      -1.747  11.513  22.856  0.00  0.00    +0.000 A 
ENDBRANCH   9  14
BRANCH  12  20
ATOM     20  O   UNL     1       1.827  10.247  17.378  0.00  0.00    +0.000 OA
ATOM     21  H   UNL     1       1.636   9.742  16.572  0.00  0.00    +0.000 HD
ENDBRANCH  12  20
BRANCH   1  22
ATOM     22  C   UNL     1       3.009   5.067  20.260  0.00  0.00    +0.000 C 
BRANCH  22  23
ATOM     23  O   UNL     1       3.401   3.871  19.596  0.00  0.00    +0.000 OA
BRANCH  23  24
ATOM     24  C   UNL     1       2.649   2.696  19.952  0.00  0.00    +0.000 C 
BRANCH  24  25
ATOM     25  C   UNL     1       1.523   2.987  20.958  0.00  0.00    +0.000 C 
BRANCH  25  26
ATOM     26  O   UNL     1       0.265   3.102  20.289  0.00  0.00    +0.000 OA
ATOM     27  H   UNL     1       0.452   3.525  19.431  0.00  0.00    +0.000 HD
ENDBRANCH  25  26
ENDBRANCH  24  25
BRANCH  24  28
ATOM     28  C   UNL     1       2.096   2.084  18.649  0.00  0.00    +0.000 C 
BRANCH  28  29
ATOM     29  O   UNL     1       1.525   3.046  17.765  0.00  0.00    +0.000 OA
ATOM     30  H   UNL     1       0.573   2.823  17.687  0.00  0.00    +0.000 HD
ENDBRANCH  28  29
ENDBRANCH  24  28
ENDBRANCH  23  24
ENDBRANCH  22  23
ENDBRANCH   1  22
TORSDOF 9
ENDMDL
MODEL 9
REMARK VINA RESULT:      -6.6      1.129      1.305
REMARK  Name = 
REMARK  9 active torsions:
REMARK  status: ('A' for Active; 'I' for Inactive)
REMARK    1  A    between atoms: O_1  and  C_2
REMARK    2  A    between atoms: C_2  and  C_3
REMARK    3  A    between atoms: C_3  and  C_4
REMARK    4  A    between atoms: C_3  and  O_6
REMARK    5  A    between atoms: C_4  and  O_5
REMARK    6  A    between atoms: O_6  and  C_7
REMARK    7  A    between atoms: C_7  and  N_8
REMARK    8  A    between atoms: C_16  and  C_17
REMARK    9  A    between atoms: C_25  and  O_26
REMARK                            x       y       z     vdW  Elec       q    Type
REMARK                         _______ _______ _______ _____ _____    ______ ____
ROOT
ATOM      1  N   UNL     1       4.483   3.613  18.401  0.00  0.00    +0.000 N 
ATOM      2  C   UNL     1       3.964   2.253  18.320  0.00  0.00    +0.000 C 
ATOM      3  N   UNL     1       2.629   2.366  18.894  0.00  0.00    +0.000 N 
ATOM      4  C   UNL     1       2.380   3.629  19.360  0.00  0.00    +0.000 A 
ATOM      5  C   UNL     1       3.566   4.474  18.970  0.00  0.00    +0.000 A 
ATOM      6  N   UNL     1       3.663   5.755  19.140  0.00  0.00    +0.000 NA
ATOM      7  C   UNL     1       2.607   6.354  19.777  0.00  0.00    +0.000 A 
ATOM      8  N   UNL     1       2.418   7.637  20.034  0.00  0.00    +0.000 NA
ATOM      9  C   UNL     1       1.249   7.720  20.754  0.00  0.00    +0.000 A 
ATOM     10  C   UNL     1       0.683   6.473  20.901  0.00  0.00    +0.000 A 
ATOM     11  N   UNL     1       1.528   5.604  20.262  0.00  0.00    +0.000 N 
ATOM     12  C   UNL     1       1.408   4.223  20.053  0.00  0.00    +0.000 A 
ATOM     13  H   UNL     1       2.204   1.595  19.392  0.00  0.00    +0.000 HD
ENDROOT
BRANCH   9  14
ATOM     14  C   UNL     1       0.677   8.955  21.265  0.00  0.00    +0.000 A 
ATOM     15  C   UNL     1       0.717  10.126  20.499  0.00  0.00    +0.000 A 
ATOM     16  C   UNL     1       0.129  11.304  20.975  0.00  0.00    +0.000 A 
ATOM     17  C   UNL     1      -0.491  11.325  22.223  0.00  0.00    +0.000 A 
ATOM     18  C   UNL     1      -0.523  10.171  23.002  0.00  0.00    +0.000 A 
ATOM     19  C   UNL     1       0.058   8.993  22.525  0.00  0.00    +0.000 A 
ENDBRANCH   9  14
BRANCH  12  20
ATOM     20  O   UNL     1       0.317   3.489  20.493  0.00  0.00    +0.000 OA
ATOM     21  H   UNL     1      -0.488   4.019  20.387  0.00  0.00    +0.000 HD
ENDBRANCH  12  20
BRANCH   1  22
ATOM     22  C   UNL     1       5.578   3.989  17.559  0.00  0.00    +0.000 C 
BRANCH  22  23
ATOM     23  O   UNL     1       6.771   4.198  18.306  0.00  0.00    +0.000 OA
BRANCH  23  24
ATOM     24  C   UNL     1       7.569   5.320  17.888  0.00  0.00    +0.000 C 
BRANCH  24  25
ATOM     25  C   UNL     1       6.905   6.147  16.774  0.00  0.00    +0.000 C 
BRANCH  25  26
ATOM     26  O   UNL     1       7.602   5.981  15.538  0.00  0.00    +0.000 OA
ATOM     27  H   UNL     1       8.495   5.665  15.770  0.00  0.00    +0.000 HD
ENDBRANCH  25  26
ENDBRANCH  24  25
BRANCH  24  28
ATOM     28  C   UNL     1       7.853   6.181  19.136  0.00  0.00    +0.000 C 
BRANCH  28  29
ATOM     29  O   UNL     1       8.018   5.418  20.329  0.00  0.00    +0.000 OA
ATOM     30  H   UNL     1       8.356   6.037  21.012  0.00  0.00    +0.000 HD
ENDBRANCH  28  29
ENDBRANCH  24  28
ENDBRANCH  23  24
ENDBRANCH  22  23
ENDBRANCH   1  22
TORSDOF 9
ENDMDL
