MODEL 1
REMARK VINA RESULT:      -7.7      0.000      0.000
REMARK  Name = 
REMARK  3 active torsions:
REMARK  status: ('A' for Active; 'I' for Inactive)
REMARK    1  A    between atoms: C_2  and  C_3
REMARK    2  A    between atoms: C_6  and  N_7
REMARK    3  A    between atoms: C_14  and  C_15
REMARK                            x       y       z     vdW  Elec       q    Type
REMARK                         _______ _______ _______ _____ _____    ______ ____
ROOT
ATOM      1  N   UNL     1       2.649   7.174  18.790  0.00  0.00    +0.000 N 
ATOM      2  C   UNL     1       2.820   5.967  19.422  0.00  0.00    +0.000 C 
ATOM      3  O   UNL     1       2.302   5.629  20.483  0.00  0.00    +0.000 OA
ATOM      4  N   UNL     1       3.585   5.042  18.755  0.00  0.00    +0.000 N 
ATOM      5  C   UNL     1       4.278   5.306  17.611  0.00  0.00    +0.000 A 
ATOM      6  N   UNL     1       4.477   6.477  17.057  0.00  0.00    +0.000 NA
ATOM      7  N   UNL     1       5.153   6.372  15.872  0.00  0.00    +0.000 NA
ATOM      8  C   UNL     1       5.403   5.116  15.549  0.00  0.00    +0.000 A 
ATOM      9  S   UNL     1       4.914   3.983  16.761  0.00  0.00    +0.000 S 
ATOM     10  H   UNL     1       3.169   7.293  17.925  0.00  0.00    +0.000 HD
ATOM     11  H   UNL     1       3.589   4.109  19.137  0.00  0.00    +0.000 HD
ENDROOT
BRANCH   1  15
ATOM     12  C   UNL     1       0.228  10.378  20.043  0.00  0.00    +0.000 A 
ATOM     13  C   UNL     1       0.617  10.293  18.700  0.00  0.00    +0.000 A 
ATOM     14  C   UNL     1       1.421   9.241  18.257  0.00  0.00    +0.000 A 
ATOM     15  C   UNL     1       1.838   8.259  19.150  0.00  0.00    +0.000 A 
ATOM     16  C   UNL     1       1.447   8.338  20.494  0.00  0.00    +0.000 A 
ATOM     17  C   UNL     1       0.650   9.394  20.941  0.00  0.00    +0.000 A 
ATOM     18 BR   UNL     1       0.189   9.433  22.784  0.00  0.00    +0.000 Br
BRANCH  12  20
ATOM     19  N   UNL     1      -1.250  12.383  20.757  0.00  0.00    +0.000 NA
ATOM     20  C   UNL     1      -0.593  11.477  20.448  0.00  0.00    +0.000 C 
ENDBRANCH  12  20
ENDBRANCH   1  15
BRANCH   8  21
ATOM     21  C   UNL     1       6.058   4.710  14.307  0.00  0.00    +0.000 A 
ATOM     22  C   UNL     1       7.256   5.333  13.940  0.00  0.00    +0.000 A 
ATOM     23  C   UNL     1       7.865   4.957  12.757  0.00  0.00    +0.000 A 
ATOM     24  N   UNL     1       7.360   4.025  11.923  0.00  0.00    +0.000 NA
ATOM     25  C   UNL     1       6.192   3.453  12.280  0.00  0.00    +0.000 A 
ATOM     26  C   UNL     1       5.510   3.758  13.445  0.00  0.00    +0.000 A 
ENDBRANCH   8  21
TORSDOF 3
ENDMDL
MODEL 2
REMARK VINA RESULT:      -7.7      4.649     10.100
REMARK  Name = 
REMARK  3 active torsions:
REMARK  status: ('A' for Active; 'I' for Inactive)
REMARK    1  A    between atoms: C_2  and  C_3
REMARK    2  A    between atoms: C_6  and  N_7
REMARK    3  A    between atoms: C_14  and  C_15
REMARK                            x       y       z     vdW  Elec       q    Type
REMARK                         _______ _______ _______ _____ _____    ______ ____
ROOT
ATOM      1  N   UNL     1       2.033   8.081  19.444  0.00  0.00    +0.000 N 
ATOM      2  C   UNL     1       1.810   8.889  18.357  0.00  0.00    +0.000 C 
ATOM      3  O   UNL     1       2.140   8.646  17.199  0.00  0.00    +0.000 OA
ATOM      4  N   UNL     1       1.088  10.032  18.595  0.00  0.00    +0.000 N 
ATOM      5  C   UNL     1       0.724  10.461  19.837  0.00  0.00    +0.000 A 
ATOM      6  N   UNL     1       1.125   9.983  20.990  0.00  0.00    +0.000 NA
ATOM      7  N   UNL     1       0.504  10.601  22.041  0.00  0.00    +0.000 NA
ATOM      8  C   UNL     1      -0.381  11.496  21.643  0.00  0.00    +0.000 A 
ATOM      9  S   UNL     1      -0.415  11.715  19.927  0.00  0.00    +0.000 S 
ATOM     10  H   UNL     1       1.708   8.447  20.336  0.00  0.00    +0.000 HD
ATOM     11  H   UNL     1       0.791  10.549  17.782  0.00  0.00    +0.000 HD
ENDROOT
BRANCH   1  15
ATOM     12  C   UNL     1       3.650   4.206  19.708  0.00  0.00    +0.000 A 
ATOM     13  C   UNL     1       4.330   5.188  18.976  0.00  0.00    +0.000 A 
ATOM     14  C   UNL     1       3.816   6.482  18.870  0.00  0.00    +0.000 A 
ATOM     15  C   UNL     1       2.621   6.810  19.502  0.00  0.00    +0.000 A 
ATOM     16  C   UNL     1       1.940   5.832  20.240  0.00  0.00    +0.000 A 
ATOM     17  C   UNL     1       2.448   4.535  20.339  0.00  0.00    +0.000 A 
ATOM     18 BR   UNL     1       1.446   3.268  21.340  0.00  0.00    +0.000 Br
BRANCH  12  20
ATOM     19  N   UNL     1       4.670   1.829  19.868  0.00  0.00    +0.000 NA
ATOM     20  C   UNL     1       4.217   2.895  19.782  0.00  0.00    +0.000 C 
ENDBRANCH  12  20
ENDBRANCH   1  15
BRANCH   8  21
ATOM     21  C   UNL     1      -1.232  12.261  22.553  0.00  0.00    +0.000 A 
ATOM     22  C   UNL     1      -2.434  11.694  22.991  0.00  0.00    +0.000 A 
ATOM     23  C   UNL     1      -3.244  12.426  23.838  0.00  0.00    +0.000 A 
ATOM     24  N   UNL     1      -2.946  13.671  24.262  0.00  0.00    +0.000 NA
ATOM     25  C   UNL     1      -1.796  14.212  23.810  0.00  0.00    +0.000 A 
ATOM     26  C   UNL     1      -0.918  13.558  22.964  0.00  0.00    +0.000 A 
ENDBRANCH   8  21
TORSDOF 3
ENDMDL
MODEL 3
REMARK VINA RESULT:      -7.6      4.559      9.775
REMARK  Name = 
REMARK  3 active torsions:
REMARK  status: ('A' for Active; 'I' for Inactive)
REMARK    1  A    between atoms: C_2  and  C_3
REMARK    2  A    between atoms: C_6  and  N_7
REMARK    3  A    between atoms: C_14  and  C_15
REMARK                            x       y       z     vdW  Elec       q    Type
REMARK                         _______ _______ _______ _____ _____    ______ ____
ROOT
ATOM      1  N   UNL     1       2.213   7.751  19.075  0.00  0.00    +0.000 N 
ATOM      2  C   UNL     1       2.214   8.547  17.956  0.00  0.00    +0.000 C 
ATOM      3  O   UNL     1       2.794   8.306  16.900  0.00  0.00    +0.000 OA
ATOM      4  N   UNL     1       1.433   9.674  18.019  0.00  0.00    +0.000 N 
ATOM      5  C   UNL     1       0.798  10.102  19.147  0.00  0.00    +0.000 A 
ATOM      6  N   UNL     1       0.948   9.640  20.365  0.00  0.00    +0.000 NA
ATOM      7  N   UNL     1       0.099  10.248  21.249  0.00  0.00    +0.000 NA
ATOM      8  C   UNL     1      -0.696  11.120  20.658  0.00  0.00    +0.000 A 
ATOM      9  S   UNL     1      -0.361  11.328  18.974  0.00  0.00    +0.000 S 
ATOM     10  H   UNL     1       1.694   8.114  19.870  0.00  0.00    +0.000 HD
ATOM     11  H   UNL     1       1.309  10.179  17.155  0.00  0.00    +0.000 HD
ENDROOT
BRANCH   1  15
ATOM     12  C   UNL     1       3.827   3.925  19.750  0.00  0.00    +0.000 A 
ATOM     13  C   UNL     1       4.562   4.863  19.014  0.00  0.00    +0.000 A 
ATOM     14  C   UNL     1       4.051   6.139  18.773  0.00  0.00    +0.000 A 
ATOM     15  C   UNL     1       2.802   6.495  19.273  0.00  0.00    +0.000 A 
ATOM     16  C   UNL     1       2.064   5.561  20.015  0.00  0.00    +0.000 A 
ATOM     17  C   UNL     1       2.571   4.280  20.248  0.00  0.00    +0.000 A 
ATOM     18 BR   UNL     1       1.492   3.073  21.243  0.00  0.00    +0.000 Br
BRANCH  12  20
ATOM     19  N   UNL     1       4.877   1.588  20.143  0.00  0.00    +0.000 NA
ATOM     20  C   UNL     1       4.393   2.630  19.966  0.00  0.00    +0.000 C 
ENDBRANCH  12  20
ENDBRANCH   1  15
BRANCH   8  21
ATOM     21  C   UNL     1      -1.742  11.870  21.352  0.00  0.00    +0.000 A 
ATOM     22  C   UNL     1      -1.829  11.775  22.746  0.00  0.00    +0.000 A 
ATOM     23  C   UNL     1      -2.828  12.473  23.398  0.00  0.00    +0.000 A 
ATOM     24  N   UNL     1      -3.740  13.236  22.762  0.00  0.00    +0.000 NA
ATOM     25  C   UNL     1      -3.658  13.295  21.417  0.00  0.00    +0.000 A 
ATOM     26  C   UNL     1      -2.691  12.638  20.676  0.00  0.00    +0.000 A 
ENDBRANCH   8  21
TORSDOF 3
ENDMDL
MODEL 4
REMARK VINA RESULT:      -7.6      4.810     10.368
REMARK  Name = 
REMARK  3 active torsions:
REMARK  status: ('A' for Active; 'I' for Inactive)
REMARK    1  A    between atoms: C_2  and  C_3
REMARK    2  A    between atoms: C_6  and  N_7
REMARK    3  A    between atoms: C_14  and  C_15
REMARK                            x       y       z     vdW  Elec       q    Type
REMARK                         _______ _______ _______ _____ _____    ______ ____
ROOT
ATOM      1  N   UNL     1       1.740   8.326  19.582  0.00  0.00    +0.000 N 
ATOM      2  C   UNL     1       1.673   9.218  18.541  0.00  0.00    +0.000 C 
ATOM      3  O   UNL     1       2.069   9.020  17.395  0.00  0.00    +0.000 OA
ATOM      4  N   UNL     1       1.036  10.405  18.806  0.00  0.00    +0.000 N 
ATOM      5  C   UNL     1       0.615  10.787  20.045  0.00  0.00    +0.000 A 
ATOM      6  N   UNL     1       0.883  10.202  21.188  0.00  0.00    +0.000 NA
ATOM      7  N   UNL     1       0.237  10.806  22.232  0.00  0.00    +0.000 NA
ATOM      8  C   UNL     1      -0.533  11.802  21.835  0.00  0.00    +0.000 A 
ATOM      9  S   UNL     1      -0.415  12.131  20.141  0.00  0.00    +0.000 S 
ATOM     10  H   UNL     1       1.379   8.663  20.471  0.00  0.00    +0.000 HD
ATOM     11  H   UNL     1       0.849  10.997  18.011  0.00  0.00    +0.000 HD
ENDROOT
BRANCH   1  15
ATOM     12  C   UNL     1       3.256   4.403  19.475  0.00  0.00    +0.000 A 
ATOM     13  C   UNL     1       2.375   4.774  20.500  0.00  0.00    +0.000 A 
ATOM     14  C   UNL     1       1.858   6.069  20.561  0.00  0.00    +0.000 A 
ATOM     15  C   UNL     1       2.209   7.005  19.593  0.00  0.00    +0.000 A 
ATOM     16  C   UNL     1       3.086   6.637  18.563  0.00  0.00    +0.000 A 
ATOM     17  C   UNL     1       3.612   5.344  18.506  0.00  0.00    +0.000 A 
ATOM     18 BR   UNL     1       4.812   4.941  17.089  0.00  0.00    +0.000 Br
BRANCH  12  20
ATOM     19  N   UNL     1       4.149   1.970  19.438  0.00  0.00    +0.000 NA
ATOM     20  C   UNL     1       3.761   3.066  19.460  0.00  0.00    +0.000 C 
ENDBRANCH  12  20
ENDBRANCH   1  15
BRANCH   8  21
ATOM     21  C   UNL     1      -1.382  12.582  22.733  0.00  0.00    +0.000 A 
ATOM     22  C   UNL     1      -2.638  12.074  23.087  0.00  0.00    +0.000 A 
ATOM     23  C   UNL     1      -3.445  12.822  23.923  0.00  0.00    +0.000 A 
ATOM     24  N   UNL     1      -3.096  14.030  24.412  0.00  0.00    +0.000 NA
ATOM     25  C   UNL     1      -1.894  14.516  24.040  0.00  0.00    +0.000 A 
ATOM     26  C   UNL     1      -1.013  13.841  23.212  0.00  0.00    +0.000 A 
ENDBRANCH   8  21
TORSDOF 3
ENDMDL
MODEL 5
REMARK VINA RESULT:      -7.3      4.767     10.020
REMARK  Name = 
REMARK  3 active torsions:
REMARK  status: ('A' for Active; 'I' for Inactive)
REMARK    1  A    between atoms: C_2  and  C_3
REMARK    2  A    between atoms: C_6  and  N_7
REMARK    3  A    between atoms: C_14  and  C_15
REMARK                            x       y       z     vdW  Elec       q    Type
REMARK                         _______ _______ _______ _____ _____    ______ ____
ROOT
ATOM      1  N   UNL     1       1.999   7.828  19.336  0.00  0.00    +0.000 N 
ATOM      2  C   UNL     1       2.058   8.645  18.234  0.00  0.00    +0.000 C 
ATOM      3  O   UNL     1       2.657   8.403  17.189  0.00  0.00    +0.000 OA
ATOM      4  N   UNL     1       1.315   9.797  18.299  0.00  0.00    +0.000 N 
ATOM      5  C   UNL     1       0.665  10.226  19.417  0.00  0.00    +0.000 A 
ATOM      6  N   UNL     1       0.767   9.736  20.630  0.00  0.00    +0.000 NA
ATOM      7  N   UNL     1      -0.084  10.357  21.503  0.00  0.00    +0.000 NA
ATOM      8  C   UNL     1      -0.833  11.267  20.909  0.00  0.00    +0.000 A 
ATOM      9  S   UNL     1      -0.446  11.495  19.238  0.00  0.00    +0.000 S 
ATOM     10  H   UNL     1       1.472   8.195  20.124  0.00  0.00    +0.000 HD
ATOM     11  H   UNL     1       1.231  10.322  17.441  0.00  0.00    +0.000 HD
ENDROOT
BRANCH   1  15
ATOM     12  C   UNL     1       3.765   4.039  19.809  0.00  0.00    +0.000 A 
ATOM     13  C   UNL     1       2.554   4.321  20.456  0.00  0.00    +0.000 A 
ATOM     14  C   UNL     1       1.947   5.570  20.317  0.00  0.00    +0.000 A 
ATOM     15  C   UNL     1       2.539   6.549  19.525  0.00  0.00    +0.000 A 
ATOM     16  C   UNL     1       3.748   6.270  18.872  0.00  0.00    +0.000 A 
ATOM     17  C   UNL     1       4.361   5.023  19.017  0.00  0.00    +0.000 A 
ATOM     18 BR   UNL     1       6.010   4.741  18.115  0.00  0.00    +0.000 Br
BRANCH  12  20
ATOM     19  N   UNL     1       4.836   1.704  20.151  0.00  0.00    +0.000 NA
ATOM     20  C   UNL     1       4.349   2.746  19.986  0.00  0.00    +0.000 C 
ENDBRANCH  12  20
ENDBRANCH   1  15
BRANCH   8  21
ATOM     21  C   UNL     1      -1.870  12.040  21.590  0.00  0.00    +0.000 A 
ATOM     22  C   UNL     1      -2.073  11.838  22.960  0.00  0.00    +0.000 A 
ATOM     23  C   UNL     1      -3.065  12.558  23.598  0.00  0.00    +0.000 A 
ATOM     24  N   UNL     1      -3.865  13.444  22.969  0.00  0.00    +0.000 NA
ATOM     25  C   UNL     1      -3.672  13.607  21.644  0.00  0.00    +0.000 A 
ATOM     26  C   UNL     1      -2.703  12.937  20.918  0.00  0.00    +0.000 A 
ENDBRANCH   8  21
TORSDOF 3
ENDMDL
MODEL 6
REMARK VINA RESULT:      -7.2      1.219      1.843
REMARK  Name = 
REMARK  3 active torsions:
REMARK  status: ('A' for Active; 'I' for Inactive)
REMARK    1  A    between atoms: C_2  and  C_3
REMARK    2  A    between atoms: C_6  and  N_7
REMARK    3  A    between atoms: C_14  and  C_15
REMARK                            x       y       z     vdW  Elec       q    Type
REMARK                         _______ _______ _______ _____ _____    ______ ____
ROOT
ATOM      1  N   UNL     1       2.583   6.654  19.493  0.00  0.00    +0.000 N 
ATOM      2  C   UNL     1       2.705   5.367  19.955  0.00  0.00    +0.000 C 
ATOM      3  O   UNL     1       2.177   4.910  20.964  0.00  0.00    +0.000 OA
ATOM      4  N   UNL     1       3.430   4.511  19.162  0.00  0.00    +0.000 N 
ATOM      5  C   UNL     1       4.130   4.899  18.059  0.00  0.00    +0.000 A 
ATOM      6  N   UNL     1       4.376   6.126  17.667  0.00  0.00    +0.000 NA
ATOM      7  N   UNL     1       5.044   6.155  16.473  0.00  0.00    +0.000 NA
ATOM      8  C   UNL     1       5.241   4.946  15.981  0.00  0.00    +0.000 A 
ATOM      9  S   UNL     1       4.709   3.679  17.033  0.00  0.00    +0.000 S 
ATOM     10  H   UNL     1       3.105   6.868  18.648  0.00  0.00    +0.000 HD
ATOM     11  H   UNL     1       3.396   3.535  19.414  0.00  0.00    +0.000 HD
ENDROOT
BRANCH   1  15
ATOM     12  C   UNL     1       0.315   9.921  20.868  0.00  0.00    +0.000 A 
ATOM     13  C   UNL     1       0.406   8.765  21.655  0.00  0.00    +0.000 A 
ATOM     14  C   UNL     1       1.150   7.666  21.223  0.00  0.00    +0.000 A 
ATOM     15  C   UNL     1       1.818   7.713  20.003  0.00  0.00    +0.000 A 
ATOM     16  C   UNL     1       1.735   8.869  19.215  0.00  0.00    +0.000 A 
ATOM     17  C   UNL     1       0.983   9.967  19.642  0.00  0.00    +0.000 A 
ATOM     18 BR   UNL     1       0.907  11.482  18.498  0.00  0.00    +0.000 Br
BRANCH  12  20
ATOM     19  N   UNL     1      -1.078  11.913  21.767  0.00  0.00    +0.000 NA
ATOM     20  C   UNL     1      -0.463  11.018  21.353  0.00  0.00    +0.000 C 
ENDBRANCH  12  20
ENDBRANCH   1  15
BRANCH   8  21
ATOM     21  C   UNL     1       5.876   4.685  14.691  0.00  0.00    +0.000 A 
ATOM     22  C   UNL     1       5.255   3.804  13.798  0.00  0.00    +0.000 A 
ATOM     23  C   UNL     1       5.866   3.548  12.585  0.00  0.00    +0.000 A 
ATOM     24  N   UNL     1       7.043   4.092  12.214  0.00  0.00    +0.000 NA
ATOM     25  C   UNL     1       7.640   4.918  13.097  0.00  0.00    +0.000 A 
ATOM     26  C   UNL     1       7.106   5.240  14.332  0.00  0.00    +0.000 A 
ENDBRANCH   8  21
TORSDOF 3
ENDMDL
MODEL 7
REMARK VINA RESULT:      -7.2      3.292      9.371
REMARK  Name = 
REMARK  3 active torsions:
REMARK  status: ('A' for Active; 'I' for Inactive)
REMARK    1  A    between atoms: C_2  and  C_3
REMARK    2  A    between atoms: C_6  and  N_7
REMARK    3  A    between atoms: C_14  and  C_15
REMARK                            x       y       z     vdW  Elec       q    Type
REMARK                         _______ _______ _______ _____ _____    ______ ____
ROOT
ATOM      1  N   UNL     1       2.785   6.696  19.265  0.00  0.00    +0.000 N 
ATOM      2  C   UNL     1       2.210   6.019  20.312  0.00  0.00    +0.000 C 
ATOM      3  O   UNL     1       2.385   4.836  20.588  0.00  0.00    +0.000 OA
ATOM      4  N   UNL     1       1.429   6.769  21.156  0.00  0.00    +0.000 N 
ATOM      5  C   UNL     1       1.090   8.070  20.930  0.00  0.00    +0.000 A 
ATOM      6  N   UNL     1       1.289   8.762  19.834  0.00  0.00    +0.000 NA
ATOM      7  N   UNL     1       0.893  10.065  19.975  0.00  0.00    +0.000 NA
ATOM      8  C   UNL     1       0.448  10.323  21.191  0.00  0.00    +0.000 A 
ATOM      9  S   UNL     1       0.384   8.927  22.212  0.00  0.00    +0.000 S 
ATOM     10  H   UNL     1       2.514   7.672  19.173  0.00  0.00    +0.000 HD
ATOM     11  H   UNL     1       1.130   6.317  22.007  0.00  0.00    +0.000 HD
ENDROOT
BRANCH   1  15
ATOM     12  C   UNL     1       5.695   5.463  16.488  0.00  0.00    +0.000 A 
ATOM     13  C   UNL     1       4.474   4.781  16.554  0.00  0.00    +0.000 A 
ATOM     14  C   UNL     1       3.490   5.168  17.467  0.00  0.00    +0.000 A 
ATOM     15  C   UNL     1       3.715   6.245  18.318  0.00  0.00    +0.000 A 
ATOM     16  C   UNL     1       4.935   6.934  18.252  0.00  0.00    +0.000 A 
ATOM     17  C   UNL     1       5.923   6.543  17.346  0.00  0.00    +0.000 A 
ATOM     18 BR   UNL     1       7.554   7.518  17.342  0.00  0.00    +0.000 Br
BRANCH  12  20
ATOM     19  N   UNL     1       7.458   4.691  14.752  0.00  0.00    +0.000 NA
ATOM     20  C   UNL     1       6.671   5.026  15.539  0.00  0.00    +0.000 C 
ENDBRANCH  12  20
ENDBRANCH   1  15
BRANCH   8  21
ATOM     21  C   UNL     1       0.017  11.646  21.637  0.00  0.00    +0.000 A 
ATOM     22  C   UNL     1       0.598  12.778  21.053  0.00  0.00    +0.000 A 
ATOM     23  C   UNL     1       0.199  14.028  21.488  0.00  0.00    +0.000 A 
ATOM     24  N   UNL     1      -0.715  14.222  22.460  0.00  0.00    +0.000 NA
ATOM     25  C   UNL     1      -1.245  13.121  23.029  0.00  0.00    +0.000 A 
ATOM     26  C   UNL     1      -0.915  11.828  22.660  0.00  0.00    +0.000 A 
ENDBRANCH   8  21
TORSDOF 3
ENDMDL
MODEL 8
REMARK VINA RESULT:      -7.2      4.779     10.122
REMARK  Name = 
REMARK  3 active torsions:
REMARK  status: ('A' for Active; 'I' for Inactive)
REMARK    1  A    between atoms: C_2  and  C_3
REMARK    2  A    between atoms: C_6  and  N_7
REMARK    3  A    between atoms: C_14  and  C_15
REMARK                            x       y       z     vdW  Elec       q    Type
REMARK                         _______ _______ _______ _____ _____    ______ ____
ROOT
ATOM      1  N   UNL     1       1.863   8.102  19.340  0.00  0.00    +0.000 N 
ATOM      2  C   UNL     1       1.864   8.910  18.230  0.00  0.00    +0.000 C 
ATOM      3  O   UNL     1       2.405   8.659  17.156  0.00  0.00    +0.000 OA
ATOM      4  N   UNL     1       1.127  10.065  18.326  0.00  0.00    +0.000 N 
ATOM      5  C   UNL     1       0.540  10.503  19.475  0.00  0.00    +0.000 A 
ATOM      6  N   UNL     1       0.706  10.023  20.684  0.00  0.00    +0.000 NA
ATOM      7  N   UNL     1      -0.096  10.652  21.597  0.00  0.00    +0.000 NA
ATOM      8  C   UNL     1      -0.874  11.560  21.038  0.00  0.00    +0.000 A 
ATOM      9  S   UNL     1      -0.577  11.774  19.347  0.00  0.00    +0.000 S 
ATOM     10  H   UNL     1       1.379   8.476  20.153  0.00  0.00    +0.000 HD
ATOM     11  H   UNL     1       0.998  10.584  17.471  0.00  0.00    +0.000 HD
ENDROOT
BRANCH   1  15
ATOM     12  C   UNL     1       3.638   4.309  19.736  0.00  0.00    +0.000 A 
ATOM     13  C   UNL     1       2.515   4.628  20.510  0.00  0.00    +0.000 A 
ATOM     14  C   UNL     1       1.906   5.880  20.401  0.00  0.00    +0.000 A 
ATOM     15  C   UNL     1       2.409   6.823  19.509  0.00  0.00    +0.000 A 
ATOM     16  C   UNL     1       3.530   6.506  18.729  0.00  0.00    +0.000 A 
ATOM     17  C   UNL     1       4.145   5.257  18.844  0.00  0.00    +0.000 A 
ATOM     18 BR   UNL     1       5.672   4.923  17.764  0.00  0.00    +0.000 Br
BRANCH  12  20
ATOM     19  N   UNL     1       4.729   1.973  20.003  0.00  0.00    +0.000 NA
ATOM     20  C   UNL     1       4.227   3.015  19.888  0.00  0.00    +0.000 C 
ENDBRANCH  12  20
ENDBRANCH   1  15
BRANCH   8  21
ATOM     21  C   UNL     1      -1.871  12.340  21.768  0.00  0.00    +0.000 A 
ATOM     22  C   UNL     1      -2.321  13.546  21.219  0.00  0.00    +0.000 A 
ATOM     23  C   UNL     1      -3.252  14.289  21.920  0.00  0.00    +0.000 A 
ATOM     24  N   UNL     1      -3.747  13.922  23.119  0.00  0.00    +0.000 NA
ATOM     25  C   UNL     1      -3.284  12.770  23.646  0.00  0.00    +0.000 A 
ATOM     26  C   UNL     1      -2.357  11.955  23.020  0.00  0.00    +0.000 A 
ENDBRANCH   8  21
TORSDOF 3
ENDMDL
MODEL 9
REMARK VINA RESULT:      -7.0      4.871      8.953
REMARK  Name = 
REMARK  3 active torsions:
REMARK  status: ('A' for Active; 'I' for Inactive)
REMARK    1  A    between atoms: C_2  and  C_3
REMARK    2  A    between atoms: C_6  and  N_7
REMARK    3  A    between atoms: C_14  and  C_15
REMARK                            x       y       z     vdW  Elec       q    Type
REMARK                         _______ _______ _______ _____ _____    ______ ____
ROOT
ATOM      1  N   UNL     1       1.322   8.702  20.034  0.00  0.00    +0.000 N 
ATOM      2  C   UNL     1       0.300   9.137  20.842  0.00  0.00    +0.000 C 
ATOM      3  O   UNL     1      -0.364   8.438  21.602  0.00  0.00    +0.000 OA
ATOM      4  N   UNL     1       0.065  10.489  20.839  0.00  0.00    +0.000 N 
ATOM      5  C   UNL     1       0.673  11.369  19.994  0.00  0.00    +0.000 A 
ATOM      6  N   UNL     1       1.427  11.083  18.960  0.00  0.00    +0.000 NA
ATOM      7  N   UNL     1       1.939  12.210  18.376  0.00  0.00    +0.000 NA
ATOM      8  C   UNL     1       1.589  13.309  19.017  0.00  0.00    +0.000 A 
ATOM      9  S   UNL     1       0.498  13.022  20.329  0.00  0.00    +0.000 S 
ATOM     10  H   UNL     1       1.754   9.416  19.453  0.00  0.00    +0.000 HD
ATOM     11  H   UNL     1      -0.576  10.832  21.539  0.00  0.00    +0.000 HD
ENDROOT
BRANCH   1  15
ATOM     12  C   UNL     1       3.083   4.916  19.527  0.00  0.00    +0.000 A 
ATOM     13  C   UNL     1       2.226   5.137  20.612  0.00  0.00    +0.000 A 
ATOM     14  C   UNL     1       1.628   6.384  20.806  0.00  0.00    +0.000 A 
ATOM     15  C   UNL     1       1.876   7.421  19.912  0.00  0.00    +0.000 A 
ATOM     16  C   UNL     1       2.729   7.202  18.821  0.00  0.00    +0.000 A 
ATOM     17  C   UNL     1       3.335   5.958  18.631  0.00  0.00    +0.000 A 
ATOM     18 BR   UNL     1       4.495   5.760  17.140  0.00  0.00    +0.000 Br
BRANCH  12  20
ATOM     19  N   UNL     1       4.151   2.574  19.225  0.00  0.00    +0.000 NA
ATOM     20  C   UNL     1       3.673   3.622  19.375  0.00  0.00    +0.000 C 
ENDBRANCH  12  20
ENDBRANCH   1  15
BRANCH   8  21
ATOM     21  C   UNL     1       2.043  14.648  18.647  0.00  0.00    +0.000 A 
ATOM     22  C   UNL     1       1.262  15.751  19.012  0.00  0.00    +0.000 A 
ATOM     23  C   UNL     1       1.686  17.015  18.646  0.00  0.00    +0.000 A 
ATOM     24  N   UNL     1       2.813  17.248  17.942  0.00  0.00    +0.000 NA
ATOM     25  C   UNL     1       3.539  16.172  17.577  0.00  0.00    +0.000 A 
ATOM     26  C   UNL     1       3.201  14.869  17.899  0.00  0.00    +0.000 A 
ENDBRANCH   8  21
TORSDOF 3
ENDMDL
