MODEL 1
REMARK VINA RESULT:      -7.9      0.000      0.000
REMARK  Name = 
REMARK  8 active torsions:
REMARK  status: ('A' for Active; 'I' for Inactive)
REMARK    1  A    between atoms: C_2  and  C_3
REMARK    2  A    between atoms: C_3  and  O_4
REMARK    3  A    between atoms: O_4  and  N_5
REMARK    4  A    between atoms: N_8  and  C_9
REMARK    5  A    between atoms: C_9  and  C_10
REMARK    6  A    between atoms: C_10  and  C_11
REMARK    7  A    between atoms: C_11  and  N_12
REMARK    8  A    between atoms: N_12  and  C_13
REMARK                            x       y       z     vdW  Elec       q    Type
REMARK                         _______ _______ _______ _____ _____    ______ ____
ROOT
ATOM      1  N   UNL     1       3.134   6.923  19.492  0.00  0.00    +0.000 N 
ATOM      2  H   UNL     1       3.269   6.723  20.484  0.00  0.00    +0.000 HD
ENDROOT
BRANCH   1   3
ATOM      3  C   UNL     1       3.312   5.720  18.752  0.00  0.00    +0.000 A 
ATOM      4  C   UNL     1       4.119   5.615  17.590  0.00  0.00    +0.000 A 
ATOM      5  C   UNL     1       4.246   4.352  17.002  0.00  0.00    +0.000 A 
ATOM      6  N   UNL     1       3.581   3.256  17.428  0.00  0.00    +0.000 NA
ATOM      7  C   UNL     1       2.741   3.367  18.459  0.00  0.00    +0.000 A 
ATOM      8  C   UNL     1       2.048   2.227  18.842  0.00  0.00    +0.000 A 
ATOM      9  C   UNL     1       1.148   2.220  19.896  0.00  0.00    +0.000 A 
ATOM     10  C   UNL     1       0.918   3.398  20.596  0.00  0.00    +0.000 A 
ATOM     11  C   UNL     1       1.610   4.560  20.235  0.00  0.00    +0.000 A 
ATOM     12  C   UNL     1       2.544   4.574  19.160  0.00  0.00    +0.000 A 
ATOM     13  C   UNL     1       5.092   4.108  15.775  0.00  0.00    +0.000 C 
ATOM     14  C   UNL     1       6.041   5.243  15.420  0.00  0.00    +0.000 C 
ATOM     15  C   UNL     1       5.322   6.571  15.541  0.00  0.00    +0.000 C 
ATOM     16  C   UNL     1       4.877   6.773  16.983  0.00  0.00    +0.000 C 
ENDBRANCH   1   3
BRANCH   1  17
ATOM     17  C   UNL     1       1.930   7.723  19.258  0.00  0.00    +0.000 C 
BRANCH  17  18
ATOM     18  C   UNL     1       2.081   8.681  18.089  0.00  0.00    +0.000 C 
BRANCH  18  19
ATOM     19  C   UNL     1       1.290   9.970  18.280  0.00  0.00    +0.000 C 
BRANCH  19  22
ATOM     20  O   UNL     1      -1.048  10.951  19.595  0.00  0.00    +0.000 OA
ATOM     21  C   UNL     1      -1.154  10.407  18.500  0.00  0.00    +0.000 C 
ATOM     22  N   UNL     1      -0.079   9.910  17.793  0.00  0.00    +0.000 N 
ATOM     23  H   UNL     1      -0.235   9.384  16.942  0.00  0.00    +0.000 HD
BRANCH  21  24
ATOM     24  C   UNL     1      -2.498  10.237  17.813  0.00  0.00    +0.000 C 
BRANCH  24  25
ATOM     25  O   UNL     1      -2.219   9.891  16.468  0.00  0.00    +0.000 OA
BRANCH  25  26
ATOM     26  N   UNL     1      -3.124  10.489  15.566  0.00  0.00    +0.000 N 
ATOM     27  O   UNL     1      -2.796  10.522  14.379  0.00  0.00    +0.000 OA
ATOM     28  O   UNL     1      -4.132  10.923  16.119  0.00  0.00    +0.000 OA
ENDBRANCH  25  26
ENDBRANCH  24  25
ENDBRANCH  21  24
ENDBRANCH  19  22
ENDBRANCH  18  19
ENDBRANCH  17  18
ENDBRANCH   1  17
TORSDOF 8
ENDMDL
MODEL 2
REMARK VINA RESULT:      -7.8      1.882      3.236
REMARK  Name = 
REMARK  8 active torsions:
REMARK  status: ('A' for Active; 'I' for Inactive)
REMARK    1  A    between atoms: C_2  and  C_3
REMARK    2  A    between atoms: C_3  and  O_4
REMARK    3  A    between atoms: O_4  and  N_5
REMARK    4  A    between atoms: N_8  and  C_9
REMARK    5  A    between atoms: C_9  and  C_10
REMARK    6  A    between atoms: C_10  and  C_11
REMARK    7  A    between atoms: C_11  and  N_12
REMARK    8  A    between atoms: N_12  and  C_13
REMARK                            x       y       z     vdW  Elec       q    Type
REMARK                         _______ _______ _______ _____ _____    ______ ____
ROOT
ATOM      1  N   UNL     1       3.360   6.507  19.709  0.00  0.00    +0.000 N 
ATOM      2  H   UNL     1       3.343   6.177  20.675  0.00  0.00    +0.000 HD
ENDROOT
BRANCH   1   3
ATOM      3  C   UNL     1       3.527   5.389  18.843  0.00  0.00    +0.000 A 
ATOM      4  C   UNL     1       4.489   5.329  17.803  0.00  0.00    +0.000 A 
ATOM      5  C   UNL     1       4.577   4.140  17.071  0.00  0.00    +0.000 A 
ATOM      6  N   UNL     1       3.747   3.088  17.246  0.00  0.00    +0.000 NA
ATOM      7  C   UNL     1       2.774   3.174  18.156  0.00  0.00    +0.000 A 
ATOM      8  C   UNL     1       1.919   2.087  18.279  0.00  0.00    +0.000 A 
ATOM      9  C   UNL     1       0.872   2.062  19.187  0.00  0.00    +0.000 A 
ATOM     10  C   UNL     1       0.657   3.166  20.002  0.00  0.00    +0.000 A 
ATOM     11  C   UNL     1       1.509   4.271  19.903  0.00  0.00    +0.000 A 
ATOM     12  C   UNL     1       2.594   4.303  18.981  0.00  0.00    +0.000 A 
ATOM     13  C   UNL     1       5.572   3.945  15.952  0.00  0.00    +0.000 C 
ATOM     14  C   UNL     1       6.674   4.993  15.891  0.00  0.00    +0.000 C 
ATOM     15  C   UNL     1       6.082   6.373  16.090  0.00  0.00    +0.000 C 
ATOM     16  C   UNL     1       5.444   6.452  17.470  0.00  0.00    +0.000 C 
ENDBRANCH   1   3
BRANCH   1  17
ATOM     17  C   UNL     1       2.274   7.452  19.438  0.00  0.00    +0.000 C 
BRANCH  17  18
ATOM     18  C   UNL     1       2.281   7.956  18.006  0.00  0.00    +0.000 C 
BRANCH  18  19
ATOM     19  C   UNL     1       1.857   9.417  17.895  0.00  0.00    +0.000 C 
BRANCH  19  22
ATOM     20  O   UNL     1      -0.875  10.197  18.190  0.00  0.00    +0.000 OA
ATOM     21  C   UNL     1      -0.109  10.305  19.143  0.00  0.00    +0.000 C 
ATOM     22  N   UNL     1       1.222   9.948  19.091  0.00  0.00    +0.000 N 
ATOM     23  H   UNL     1       1.830  10.151  19.876  0.00  0.00    +0.000 HD
BRANCH  21  24
ATOM     24  C   UNL     1      -0.568  10.845  20.487  0.00  0.00    +0.000 C 
BRANCH  24  25
ATOM     25  O   UNL     1      -0.581   9.743  21.377  0.00  0.00    +0.000 OA
BRANCH  25  26
ATOM     26  N   UNL     1       0.298   9.928  22.465  0.00  0.00    +0.000 N 
ATOM     27  O   UNL     1      -0.205  10.227  23.549  0.00  0.00    +0.000 OA
ATOM     28  O   UNL     1       1.478   9.781  22.156  0.00  0.00    +0.000 OA
ENDBRANCH  25  26
ENDBRANCH  24  25
ENDBRANCH  21  24
ENDBRANCH  19  22
ENDBRANCH  18  19
ENDBRANCH  17  18
ENDBRANCH   1  17
TORSDOF 8
ENDMDL
MODEL 3
REMARK VINA RESULT:      -7.8      1.271      1.335
REMARK  Name = 
REMARK  8 active torsions:
REMARK  status: ('A' for Active; 'I' for Inactive)
REMARK    1  A    between atoms: C_2  and  C_3
REMARK    2  A    between atoms: C_3  and  O_4
REMARK    3  A    between atoms: O_4  and  N_5
REMARK    4  A    between atoms: N_8  and  C_9
REMARK    5  A    between atoms: C_9  and  C_10
REMARK    6  A    between atoms: C_10  and  C_11
REMARK    7  A    between atoms: C_11  and  N_12
REMARK    8  A    between atoms: N_12  and  C_13
REMARK                            x       y       z     vdW  Elec       q    Type
REMARK                         _______ _______ _______ _____ _____    ______ ____
ROOT
ATOM      1  N   UNL     1       2.180   6.554  18.135  0.00  0.00    +0.000 N 
ATOM      2  H   UNL     1       2.155   6.653  17.119  0.00  0.00    +0.000 HD
ENDROOT
BRANCH   1   3
ATOM      3  C   UNL     1       3.176   5.597  18.480  0.00  0.00    +0.000 A 
ATOM      4  C   UNL     1       4.465   5.548  17.891  0.00  0.00    +0.000 A 
ATOM      5  C   UNL     1       5.361   4.588  18.373  0.00  0.00    +0.000 A 
ATOM      6  N   UNL     1       5.039   3.662  19.302  0.00  0.00    +0.000 NA
ATOM      7  C   UNL     1       3.797   3.637  19.791  0.00  0.00    +0.000 A 
ATOM      8  C   UNL     1       3.494   2.646  20.715  0.00  0.00    +0.000 A 
ATOM      9  C   UNL     1       2.239   2.519  21.288  0.00  0.00    +0.000 A 
ATOM     10  C   UNL     1       1.236   3.408  20.922  0.00  0.00    +0.000 A 
ATOM     11  C   UNL     1       1.517   4.421  19.999  0.00  0.00    +0.000 A 
ATOM     12  C   UNL     1       2.806   4.566  19.412  0.00  0.00    +0.000 A 
ATOM     13  C   UNL     1       6.768   4.448  17.842  0.00  0.00    +0.000 C 
ATOM     14  C   UNL     1       7.245   5.614  16.988  0.00  0.00    +0.000 C 
ATOM     15  C   UNL     1       6.152   6.025  16.023  0.00  0.00    +0.000 C 
ATOM     16  C   UNL     1       4.936   6.493  16.810  0.00  0.00    +0.000 C 
ENDBRANCH   1   3
BRANCH   1  17
ATOM     17  C   UNL     1       2.189   7.855  18.808  0.00  0.00    +0.000 C 
BRANCH  17  18
ATOM     18  C   UNL     1       2.252   9.018  17.833  0.00  0.00    +0.000 C 
BRANCH  18  19
ATOM     19  C   UNL     1       1.452  10.226  18.307  0.00  0.00    +0.000 C 
BRANCH  19  22
ATOM     20  O   UNL     1      -0.846  10.573  19.968  0.00  0.00    +0.000 OA
ATOM     21  C   UNL     1      -0.993  10.394  18.762  0.00  0.00    +0.000 C 
ATOM     22  N   UNL     1       0.059  10.223  17.887  0.00  0.00    +0.000 N 
ATOM     23  H   UNL     1      -0.123   9.980  16.921  0.00  0.00    +0.000 HD
BRANCH  21  24
ATOM     24  C   UNL     1      -2.367  10.351  18.118  0.00  0.00    +0.000 C 
BRANCH  24  25
ATOM     25  O   UNL     1      -2.292  11.164  16.960  0.00  0.00    +0.000 OA
BRANCH  25  26
ATOM     26  N   UNL     1      -2.823  10.521  15.823  0.00  0.00    +0.000 N 
ATOM     27  O   UNL     1      -2.805   9.289  15.814  0.00  0.00    +0.000 OA
ATOM     28  O   UNL     1      -3.220  11.310  14.969  0.00  0.00    +0.000 OA
ENDBRANCH  25  26
ENDBRANCH  24  25
ENDBRANCH  21  24
ENDBRANCH  19  22
ENDBRANCH  18  19
ENDBRANCH  17  18
ENDBRANCH   1  17
TORSDOF 8
ENDMDL
MODEL 4
REMARK VINA RESULT:      -7.8      2.376      3.406
REMARK  Name = 
REMARK  8 active torsions:
REMARK  status: ('A' for Active; 'I' for Inactive)
REMARK    1  A    between atoms: C_2  and  C_3
REMARK    2  A    between atoms: C_3  and  O_4
REMARK    3  A    between atoms: O_4  and  N_5
REMARK    4  A    between atoms: N_8  and  C_9
REMARK    5  A    between atoms: C_9  and  C_10
REMARK    6  A    between atoms: C_10  and  C_11
REMARK    7  A    between atoms: C_11  and  N_12
REMARK    8  A    between atoms: N_12  and  C_13
REMARK                            x       y       z     vdW  Elec       q    Type
REMARK                         _______ _______ _______ _____ _____    ______ ____
ROOT
ATOM      1  N   UNL     1       2.878   7.055  18.968  0.00  0.00    +0.000 N 
ATOM      2  H   UNL     1       2.647   6.998  19.961  0.00  0.00    +0.000 HD
ENDROOT
BRANCH   1   3
ATOM      3  C   UNL     1       3.259   5.762  18.509  0.00  0.00    +0.000 A 
ATOM      4  C   UNL     1       4.163   5.535  17.439  0.00  0.00    +0.000 A 
ATOM      5  C   UNL     1       4.489   4.208  17.138  0.00  0.00    +0.000 A 
ATOM      6  N   UNL     1       3.931   3.141  17.751  0.00  0.00    +0.000 NA
ATOM      7  C   UNL     1       3.005   3.343  18.691  0.00  0.00    +0.000 A 
ATOM      8  C   UNL     1       2.428   2.221  19.270  0.00  0.00    +0.000 A 
ATOM      9  C   UNL     1       1.456   2.306  20.253  0.00  0.00    +0.000 A 
ATOM     10  C   UNL     1       1.029   3.559  20.675  0.00  0.00    +0.000 A 
ATOM     11  C   UNL     1       1.599   4.706  20.113  0.00  0.00    +0.000 A 
ATOM     12  C   UNL     1       2.607   4.630  19.110  0.00  0.00    +0.000 A 
ATOM     13  C   UNL     1       5.454   3.837  16.037  0.00  0.00    +0.000 C 
ATOM     14  C   UNL     1       6.281   4.995  15.499  0.00  0.00    +0.000 C 
ATOM     15  C   UNL     1       5.398   6.210  15.299  0.00  0.00    +0.000 C 
ATOM     16  C   UNL     1       4.819   6.637  16.641  0.00  0.00    +0.000 C 
ENDBRANCH   1   3
BRANCH   1  17
ATOM     17  C   UNL     1       1.865   7.799  18.215  0.00  0.00    +0.000 C 
BRANCH  17  18
ATOM     18  C   UNL     1       2.274   9.237  17.948  0.00  0.00    +0.000 C 
BRANCH  18  19
ATOM     19  C   UNL     1       1.127  10.221  18.150  0.00  0.00    +0.000 C 
BRANCH  19  22
ATOM     20  O   UNL     1      -0.024  12.444  19.525  0.00  0.00    +0.000 OA
ATOM     21  C   UNL     1       0.041  11.354  20.086  0.00  0.00    +0.000 C 
ATOM     22  N   UNL     1       0.575  10.228  19.496  0.00  0.00    +0.000 N 
ATOM     23  H   UNL     1       0.694   9.381  20.040  0.00  0.00    +0.000 HD
BRANCH  21  24
ATOM     24  C   UNL     1      -0.475  11.145  21.499  0.00  0.00    +0.000 C 
BRANCH  24  25
ATOM     25  O   UNL     1      -0.455   9.747  21.730  0.00  0.00    +0.000 OA
BRANCH  25  26
ATOM     26  N   UNL     1       0.552   9.374  22.645  0.00  0.00    +0.000 N 
ATOM     27  O   UNL     1       0.382   9.683  23.825  0.00  0.00    +0.000 OA
ATOM     28  O   UNL     1       1.493   8.793  22.109  0.00  0.00    +0.000 OA
ENDBRANCH  25  26
ENDBRANCH  24  25
ENDBRANCH  21  24
ENDBRANCH  19  22
ENDBRANCH  18  19
ENDBRANCH  17  18
ENDBRANCH   1  17
TORSDOF 8
ENDMDL
MODEL 5
REMARK VINA RESULT:      -7.7      2.109      4.923
REMARK  Name = 
REMARK  8 active torsions:
REMARK  status: ('A' for Active; 'I' for Inactive)
REMARK    1  A    between atoms: C_2  and  C_3
REMARK    2  A    between atoms: C_3  and  O_4
REMARK    3  A    between atoms: O_4  and  N_5
REMARK    4  A    between atoms: N_8  and  C_9
REMARK    5  A    between atoms: C_9  and  C_10
REMARK    6  A    between atoms: C_10  and  C_11
REMARK    7  A    between atoms: C_11  and  N_12
REMARK    8  A    between atoms: N_12  and  C_13
REMARK                            x       y       z     vdW  Elec       q    Type
REMARK                         _______ _______ _______ _____ _____    ______ ____
ROOT
ATOM      1  N   UNL     1       3.108   7.229  19.195  0.00  0.00    +0.000 N 
ATOM      2  H   UNL     1       3.293   7.270  20.198  0.00  0.00    +0.000 HD
ENDROOT
BRANCH   1   3
ATOM      3  C   UNL     1       3.248   5.882  18.755  0.00  0.00    +0.000 A 
ATOM      4  C   UNL     1       2.737   4.762  19.458  0.00  0.00    +0.000 A 
ATOM      5  C   UNL     1       2.899   3.501  18.873  0.00  0.00    +0.000 A 
ATOM      6  N   UNL     1       3.583   3.289  17.727  0.00  0.00    +0.000 NA
ATOM      7  C   UNL     1       4.154   4.326  17.110  0.00  0.00    +0.000 A 
ATOM      8  C   UNL     1       4.879   4.062  15.956  0.00  0.00    +0.000 A 
ATOM      9  C   UNL     1       5.517   5.057  15.232  0.00  0.00    +0.000 A 
ATOM     10  C   UNL     1       5.440   6.371  15.676  0.00  0.00    +0.000 A 
ATOM     11  C   UNL     1       4.708   6.666  16.832  0.00  0.00    +0.000 A 
ATOM     12  C   UNL     1       4.041   5.652  17.577  0.00  0.00    +0.000 A 
ATOM     13  C   UNL     1       2.382   2.234  19.512  0.00  0.00    +0.000 C 
ATOM     14  C   UNL     1       1.404   2.453  20.657  0.00  0.00    +0.000 C 
ATOM     15  C   UNL     1       1.910   3.557  21.562  0.00  0.00    +0.000 C 
ATOM     16  C   UNL     1       1.996   4.856  20.772  0.00  0.00    +0.000 C 
ENDBRANCH   1   3
BRANCH   1  17
ATOM     17  C   UNL     1       1.893   7.965  18.837  0.00  0.00    +0.000 C 
BRANCH  17  18
ATOM     18  C   UNL     1       2.146   9.044  17.798  0.00  0.00    +0.000 C 
BRANCH  18  19
ATOM     19  C   UNL     1       1.357  10.319  18.071  0.00  0.00    +0.000 C 
BRANCH  19  22
ATOM     20  O   UNL     1      -0.972  11.573  19.148  0.00  0.00    +0.000 OA
ATOM     21  C   UNL     1      -0.098  11.168  19.908  0.00  0.00    +0.000 C 
ATOM     22  N   UNL     1       1.055  10.547  19.475  0.00  0.00    +0.000 N 
ATOM     23  H   UNL     1       1.787  10.323  20.140  0.00  0.00    +0.000 HD
BRANCH  21  24
ATOM     24  C   UNL     1      -0.213  11.312  21.416  0.00  0.00    +0.000 C 
BRANCH  24  25
ATOM     25  O   UNL     1       0.718  10.403  21.977  0.00  0.00    +0.000 OA
BRANCH  25  26
ATOM     26  N   UNL     1       0.112   9.522  22.897  0.00  0.00    +0.000 N 
ATOM     27  O   UNL     1       0.419   9.650  24.084  0.00  0.00    +0.000 OA
ATOM     28  O   UNL     1      -0.642   8.715  22.360  0.00  0.00    +0.000 OA
ENDBRANCH  25  26
ENDBRANCH  24  25
ENDBRANCH  21  24
ENDBRANCH  19  22
ENDBRANCH  18  19
ENDBRANCH  17  18
ENDBRANCH   1  17
TORSDOF 8
ENDMDL
MODEL 6
REMARK VINA RESULT:      -7.7      1.929      4.763
REMARK  Name = 
REMARK  8 active torsions:
REMARK  status: ('A' for Active; 'I' for Inactive)
REMARK    1  A    between atoms: C_2  and  C_3
REMARK    2  A    between atoms: C_3  and  O_4
REMARK    3  A    between atoms: O_4  and  N_5
REMARK    4  A    between atoms: N_8  and  C_9
REMARK    5  A    between atoms: C_9  and  C_10
REMARK    6  A    between atoms: C_10  and  C_11
REMARK    7  A    between atoms: C_11  and  N_12
REMARK    8  A    between atoms: N_12  and  C_13
REMARK                            x       y       z     vdW  Elec       q    Type
REMARK                         _______ _______ _______ _____ _____    ______ ____
ROOT
ATOM      1  N   UNL     1       3.356   6.777  19.653  0.00  0.00    +0.000 N 
ATOM      2  H   UNL     1       3.402   6.515  20.639  0.00  0.00    +0.000 HD
ENDROOT
BRANCH   1   3
ATOM      3  C   UNL     1       3.498   5.604  18.859  0.00  0.00    +0.000 A 
ATOM      4  C   UNL     1       2.635   4.482  18.942  0.00  0.00    +0.000 A 
ATOM      5  C   UNL     1       2.862   3.423  18.055  0.00  0.00    +0.000 A 
ATOM      6  N   UNL     1       3.899   3.379  17.191  0.00  0.00    +0.000 NA
ATOM      7  C   UNL     1       4.775   4.387  17.175  0.00  0.00    +0.000 A 
ATOM      8  C   UNL     1       5.847   4.286  16.299  0.00  0.00    +0.000 A 
ATOM      9  C   UNL     1       6.820   5.268  16.196  0.00  0.00    +0.000 A 
ATOM     10  C   UNL     1       6.731   6.395  17.004  0.00  0.00    +0.000 A 
ATOM     11  C   UNL     1       5.656   6.524  17.889  0.00  0.00    +0.000 A 
ATOM     12  C   UNL     1       4.645   5.526  17.995  0.00  0.00    +0.000 A 
ATOM     13  C   UNL     1       2.001   2.182  18.031  0.00  0.00    +0.000 C 
ATOM     14  C   UNL     1       0.694   2.300  18.802  0.00  0.00    +0.000 C 
ATOM     15  C   UNL     1       0.943   2.974  20.136  0.00  0.00    +0.000 C 
ATOM     16  C   UNL     1       1.469   4.383  19.898  0.00  0.00    +0.000 C 
ENDBRANCH   1   3
BRANCH   1  17
ATOM     17  C   UNL     1       2.237   7.682  19.382  0.00  0.00    +0.000 C 
BRANCH  17  18
ATOM     18  C   UNL     1       2.162   8.100  17.924  0.00  0.00    +0.000 C 
BRANCH  18  19
ATOM     19  C   UNL     1       1.613   9.511  17.745  0.00  0.00    +0.000 C 
BRANCH  19  22
ATOM     20  O   UNL     1      -1.036  10.332  18.427  0.00  0.00    +0.000 OA
ATOM     21  C   UNL     1      -0.121  10.517  19.225  0.00  0.00    +0.000 C 
ATOM     22  N   UNL     1       1.184  10.147  18.981  0.00  0.00    +0.000 N 
ATOM     23  H   UNL     1       1.914  10.414  19.631  0.00  0.00    +0.000 HD
BRANCH  21  24
ATOM     24  C   UNL     1      -0.353  11.173  20.576  0.00  0.00    +0.000 C 
BRANCH  24  25
ATOM     25  O   UNL     1      -0.684  10.130  21.476  0.00  0.00    +0.000 OA
BRANCH  25  26
ATOM     26  N   UNL     1       0.301   9.952  22.469  0.00  0.00    +0.000 N 
ATOM     27  O   UNL     1       1.473  10.140  22.140  0.00  0.00    +0.000 OA
ATOM     28  O   UNL     1      -0.168   9.604  23.550  0.00  0.00    +0.000 OA
ENDBRANCH  25  26
ENDBRANCH  24  25
ENDBRANCH  21  24
ENDBRANCH  19  22
ENDBRANCH  18  19
ENDBRANCH  17  18
ENDBRANCH   1  17
TORSDOF 8
ENDMDL
MODEL 7
REMARK VINA RESULT:      -7.7      2.274      5.086
REMARK  Name = 
REMARK  8 active torsions:
REMARK  status: ('A' for Active; 'I' for Inactive)
REMARK    1  A    between atoms: C_2  and  C_3
REMARK    2  A    between atoms: C_3  and  O_4
REMARK    3  A    between atoms: O_4  and  N_5
REMARK    4  A    between atoms: N_8  and  C_9
REMARK    5  A    between atoms: C_9  and  C_10
REMARK    6  A    between atoms: C_10  and  C_11
REMARK    7  A    between atoms: C_11  and  N_12
REMARK    8  A    between atoms: N_12  and  C_13
REMARK                            x       y       z     vdW  Elec       q    Type
REMARK                         _______ _______ _______ _____ _____    ______ ____
ROOT
ATOM      1  N   UNL     1       2.365   6.611  17.837  0.00  0.00    +0.000 N 
ATOM      2  H   UNL     1       2.699   6.860  16.905  0.00  0.00    +0.000 HD
ENDROOT
BRANCH   1   3
ATOM      3  C   UNL     1       3.243   5.639  18.396  0.00  0.00    +0.000 A 
ATOM      4  C   UNL     1       2.825   4.601  19.267  0.00  0.00    +0.000 A 
ATOM      5  C   UNL     1       3.792   3.682  19.690  0.00  0.00    +0.000 A 
ATOM      6  N   UNL     1       5.104   3.780  19.383  0.00  0.00    +0.000 NA
ATOM      7  C   UNL     1       5.523   4.811  18.646  0.00  0.00    +0.000 A 
ATOM      8  C   UNL     1       6.884   4.897  18.385  0.00  0.00    +0.000 A 
ATOM      9  C   UNL     1       7.436   5.922  17.634  0.00  0.00    +0.000 A 
ATOM     10  C   UNL     1       6.603   6.912  17.127  0.00  0.00    +0.000 A 
ATOM     11  C   UNL     1       5.227   6.845  17.369  0.00  0.00    +0.000 A 
ATOM     12  C   UNL     1       4.649   5.790  18.131  0.00  0.00    +0.000 A 
ATOM     13  C   UNL     1       3.468   2.522  20.601  0.00  0.00    +0.000 C 
ATOM     14  C   UNL     1       1.983   2.235  20.762  0.00  0.00    +0.000 C 
ATOM     15  C   UNL     1       1.227   3.533  20.960  0.00  0.00    +0.000 C 
ATOM     16  C   UNL     1       1.398   4.407  19.726  0.00  0.00    +0.000 C 
ENDBRANCH   1   3
BRANCH   1  17
ATOM     17  C   UNL     1       2.030   7.797  18.630  0.00  0.00    +0.000 C 
BRANCH  17  18
ATOM     18  C   UNL     1       2.349   9.093  17.906  0.00  0.00    +0.000 C 
BRANCH  18  19
ATOM     19  C   UNL     1       1.290  10.166  18.131  0.00  0.00    +0.000 C 
BRANCH  19  22
ATOM     20  O   UNL     1      -1.404  10.494  19.023  0.00  0.00    +0.000 OA
ATOM     21  C   UNL     1      -0.496  10.437  19.848  0.00  0.00    +0.000 C 
ATOM     22  N   UNL     1       0.830  10.275  19.507  0.00  0.00    +0.000 N 
ATOM     23  H   UNL     1       1.546  10.335  20.221  0.00  0.00    +0.000 HD
BRANCH  21  24
ATOM     24  C   UNL     1      -0.759  10.536  21.341  0.00  0.00    +0.000 C 
BRANCH  24  25
ATOM     25  O   UNL     1      -0.334   9.307  21.904  0.00  0.00    +0.000 OA
BRANCH  25  26
ATOM     26  N   UNL     1       0.660   9.488  22.888  0.00  0.00    +0.000 N 
ATOM     27  O   UNL     1       1.834   9.407  22.522  0.00  0.00    +0.000 OA
ATOM     28  O   UNL     1       0.194   9.686  24.007  0.00  0.00    +0.000 OA
ENDBRANCH  25  26
ENDBRANCH  24  25
ENDBRANCH  21  24
ENDBRANCH  19  22
ENDBRANCH  18  19
ENDBRANCH  17  18
ENDBRANCH   1  17
TORSDOF 8
ENDMDL
MODEL 8
REMARK VINA RESULT:      -7.6      2.237      4.893
REMARK  Name = 
REMARK  8 active torsions:
REMARK  status: ('A' for Active; 'I' for Inactive)
REMARK    1  A    between atoms: C_2  and  C_3
REMARK    2  A    between atoms: C_3  and  O_4
REMARK    3  A    between atoms: O_4  and  N_5
REMARK    4  A    between atoms: N_8  and  C_9
REMARK    5  A    between atoms: C_9  and  C_10
REMARK    6  A    between atoms: C_10  and  C_11
REMARK    7  A    between atoms: C_11  and  N_12
REMARK    8  A    between atoms: N_12  and  C_13
REMARK                            x       y       z     vdW  Elec       q    Type
REMARK                         _______ _______ _______ _____ _____    ______ ____
ROOT
ATOM      1  N   UNL     1       3.071   7.293  18.469  0.00  0.00    +0.000 N 
ATOM      2  H   UNL     1       2.772   7.449  19.433  0.00  0.00    +0.000 HD
ENDROOT
BRANCH   1   3
ATOM      3  C   UNL     1       3.292   5.899  18.276  0.00  0.00    +0.000 A 
ATOM      4  C   UNL     1       2.741   4.888  19.102  0.00  0.00    +0.000 A 
ATOM      5  C   UNL     1       2.998   3.557  18.755  0.00  0.00    +0.000 A 
ATOM      6  N   UNL     1       3.804   3.191  17.735  0.00  0.00    +0.000 NA
ATOM      7  C   UNL     1       4.408   4.137  17.013  0.00  0.00    +0.000 A 
ATOM      8  C   UNL     1       5.258   3.720  15.998  0.00  0.00    +0.000 A 
ATOM      9  C   UNL     1       5.942   4.610  15.185  0.00  0.00    +0.000 A 
ATOM     10  C   UNL     1       5.783   5.974  15.393  0.00  0.00    +0.000 A 
ATOM     11  C   UNL     1       4.926   6.421  16.405  0.00  0.00    +0.000 A 
ATOM     12  C   UNL     1       4.211   5.515  17.239  0.00  0.00    +0.000 A 
ATOM     13  C   UNL     1       2.451   2.390  19.543  0.00  0.00    +0.000 C 
ATOM     14  C   UNL     1       1.352   2.749  20.532  0.00  0.00    +0.000 C 
ATOM     15  C   UNL     1       1.729   4.008  21.286  0.00  0.00    +0.000 C 
ATOM     16  C   UNL     1       1.863   5.162  20.302  0.00  0.00    +0.000 C 
ENDBRANCH   1   3
BRANCH   1  17
ATOM     17  C   UNL     1       2.223   8.010  17.513  0.00  0.00    +0.000 C 
BRANCH  17  18
ATOM     18  C   UNL     1       1.594   9.257  18.110  0.00  0.00    +0.000 C 
BRANCH  18  19
ATOM     19  C   UNL     1       1.298   9.111  19.598  0.00  0.00    +0.000 C 
BRANCH  19  22
ATOM     20  O   UNL     1      -1.268  10.363  19.544  0.00  0.00    +0.000 OA
ATOM     21  C   UNL     1      -0.353  10.887  20.172  0.00  0.00    +0.000 C 
ATOM     22  N   UNL     1       0.914  10.349  20.257  0.00  0.00    +0.000 N 
ATOM     23  H   UNL     1       1.656  10.874  20.705  0.00  0.00    +0.000 HD
BRANCH  21  24
ATOM     24  C   UNL     1      -0.541  12.191  20.929  0.00  0.00    +0.000 C 
BRANCH  24  25
ATOM     25  O   UNL     1      -0.011  11.980  22.226  0.00  0.00    +0.000 OA
BRANCH  25  26
ATOM     26  N   UNL     1      -0.830  11.137  23.005  0.00  0.00    +0.000 N 
ATOM     27  O   UNL     1      -2.020  11.441  23.102  0.00  0.00    +0.000 OA
ATOM     28  O   UNL     1      -0.211  10.202  23.508  0.00  0.00    +0.000 OA
ENDBRANCH  25  26
ENDBRANCH  24  25
ENDBRANCH  21  24
ENDBRANCH  19  22
ENDBRANCH  18  19
ENDBRANCH  17  18
ENDBRANCH   1  17
TORSDOF 8
ENDMDL
MODEL 9
REMARK VINA RESULT:      -7.5      3.024      5.000
REMARK  Name = 
REMARK  8 active torsions:
REMARK  status: ('A' for Active; 'I' for Inactive)
REMARK    1  A    between atoms: C_2  and  C_3
REMARK    2  A    between atoms: C_3  and  O_4
REMARK    3  A    between atoms: O_4  and  N_5
REMARK    4  A    between atoms: N_8  and  C_9
REMARK    5  A    between atoms: C_9  and  C_10
REMARK    6  A    between atoms: C_10  and  C_11
REMARK    7  A    between atoms: C_11  and  N_12
REMARK    8  A    between atoms: N_12  and  C_13
REMARK                            x       y       z     vdW  Elec       q    Type
REMARK                         _______ _______ _______ _____ _____    ______ ____
ROOT
ATOM      1  N   UNL     1       3.232   7.035  18.785  0.00  0.00    +0.000 N 
ATOM      2  H   UNL     1       2.968   6.967  19.769  0.00  0.00    +0.000 HD
ENDROOT
BRANCH   1   3
ATOM      3  C   UNL     1       3.427   5.722  18.269  0.00  0.00    +0.000 A 
ATOM      4  C   UNL     1       2.604   4.613  18.591  0.00  0.00    +0.000 A 
ATOM      5  C   UNL     1       2.882   3.396  17.960  0.00  0.00    +0.000 A 
ATOM      6  N   UNL     1       3.933   3.203  17.134  0.00  0.00    +0.000 NA
ATOM      7  C   UNL     1       4.772   4.215  16.903  0.00  0.00    +0.000 A 
ATOM      8  C   UNL     1       5.861   3.966  16.079  0.00  0.00    +0.000 A 
ATOM      9  C   UNL     1       6.800   4.937  15.769  0.00  0.00    +0.000 A 
ATOM     10  C   UNL     1       6.658   6.209  16.309  0.00  0.00    +0.000 A 
ATOM     11  C   UNL     1       5.565   6.489  17.136  0.00  0.00    +0.000 A 
ATOM     12  C   UNL     1       4.590   5.501  17.452  0.00  0.00    +0.000 A 
ATOM     13  C   UNL     1       2.066   2.148  18.203  0.00  0.00    +0.000 C 
ATOM     14  C   UNL     1       0.745   2.382  18.920  0.00  0.00    +0.000 C 
ATOM     15  C   UNL     1       0.948   3.341  20.075  0.00  0.00    +0.000 C 
ATOM     16  C   UNL     1       1.427   4.682  19.536  0.00  0.00    +0.000 C 
ENDBRANCH   1   3
BRANCH   1  17
ATOM     17  C   UNL     1       2.362   7.958  18.052  0.00  0.00    +0.000 C 
BRANCH  17  18
ATOM     18  C   UNL     1       1.552   8.854  18.972  0.00  0.00    +0.000 C 
BRANCH  18  19
ATOM     19  C   UNL     1       1.459   8.308  20.393  0.00  0.00    +0.000 C 
BRANCH  19  22
ATOM     20  O   UNL     1       1.770   9.462  22.987  0.00  0.00    +0.000 OA
ATOM     21  C   UNL     1       0.663   9.456  22.456  0.00  0.00    +0.000 C 
ATOM     22  N   UNL     1       0.424   8.926  21.206  0.00  0.00    +0.000 N 
ATOM     23  H   UNL     1      -0.526   8.859  20.859  0.00  0.00    +0.000 HD
BRANCH  21  24
ATOM     24  C   UNL     1      -0.558  10.048  23.138  0.00  0.00    +0.000 C 
BRANCH  24  25
ATOM     25  O   UNL     1      -1.145  10.939  22.205  0.00  0.00    +0.000 OA
BRANCH  25  26
ATOM     26  N   UNL     1      -0.442  12.158  22.119  0.00  0.00    +0.000 N 
ATOM     27  O   UNL     1      -0.408  12.861  23.130  0.00  0.00    +0.000 OA
ATOM     28  O   UNL     1       0.033  12.357  21.004  0.00  0.00    +0.000 OA
ENDBRANCH  25  26
ENDBRANCH  24  25
ENDBRANCH  21  24
ENDBRANCH  19  22
ENDBRANCH  18  19
ENDBRANCH  17  18
ENDBRANCH   1  17
TORSDOF 8
ENDMDL
