MODEL 1
REMARK VINA RESULT:      -7.0      0.000      0.000
REMARK  Name = 
REMARK  8 active torsions:
REMARK  status: ('A' for Active; 'I' for Inactive)
REMARK    1  A    between atoms: C_1  and  C_2
REMARK    2  A    between atoms: C_2  and  C_3
REMARK    3  A    between atoms: C_2  and  C_5
REMARK    4  A    between atoms: C_3  and  S_4
REMARK    5  A    between atoms: C_11  and  C_12
REMARK    6  A    between atoms: C_12  and  O_14
REMARK    7  A    between atoms: C_17  and  C_18
REMARK    8  A    between atoms: C_17  and  C_19
REMARK                            x       y       z     vdW  Elec       q    Type
REMARK                         _______ _______ _______ _____ _____    ______ ____
ROOT
ATOM      1  C   UNL     1       1.927   5.550  20.386  0.00  0.00    +0.000 C 
ATOM      2  O   UNL     1       0.931   4.882  20.665  0.00  0.00    +0.000 OA
ATOM      3  N   UNL     1       3.051   4.894  19.952  0.00  0.00    +0.000 N 
ATOM      4  C   UNL     1       4.368   5.419  19.637  0.00  0.00    +0.000 C 
ATOM      5  C   UNL     1       4.837   4.630  18.391  0.00  0.00    +0.000 C 
ATOM      6  C   UNL     1       3.961   3.360  18.384  0.00  0.00    +0.000 C 
ATOM      7  C   UNL     1       3.035   3.470  19.598  0.00  0.00    +0.000 C 
ATOM      8  O   UNL     1       6.196   4.218  18.464  0.00  0.00    +0.000 OA
ATOM      9  C   UNL     1       7.110   5.302  18.358  0.00  0.00    +0.000 C 
ATOM     10  C   UNL     1       6.889   6.092  17.062  0.00  0.00    +0.000 C 
ATOM     11  C   UNL     1       7.752   7.359  17.073  0.00  0.00    +0.000 C 
ATOM     12  C   UNL     1       7.269   5.224  15.848  0.00  0.00    +0.000 C 
ATOM     13  C   UNL     1       5.405   6.467  16.973  0.00  0.00    +0.000 C 
ATOM     14  O   UNL     1       4.564   5.335  17.175  0.00  0.00    +0.000 OA
ENDROOT
BRANCH   1  16
ATOM     15  C   UNL     1       2.057   7.728  19.138  0.00  0.00    +0.000 C 
ATOM     16  C   UNL     1       1.924   7.080  20.526  0.00  0.00    +0.000 C 
BRANCH  16  17
ATOM     17  C   UNL     1       0.724   7.659  21.289  0.00  0.00    +0.000 C 
BRANCH  17  18
ATOM     18  S   UNL     1       1.015   9.256  22.106  0.00  0.00    +0.000 S 
ATOM     19  H   UNL     1       0.338   8.985  23.235  0.00  0.00    +0.000 HD
ENDBRANCH  17  18
ENDBRANCH  16  17
ENDBRANCH   1  16
BRANCH   7  20
ATOM     20  C   UNL     1       3.509   2.592  20.762  0.00  0.00    +0.000 C 
ATOM     21  O   UNL     1       2.914   2.450  21.821  0.00  0.00    +0.000 OA
BRANCH  20  22
ATOM     22  O   UNL     1       4.732   2.025  20.564  0.00  0.00    +0.000 OA
ATOM     23  H   UNL     1       4.660   1.053  20.469  0.00  0.00    +0.000 HD
ENDBRANCH  20  22
ENDBRANCH   7  20
TORSDOF 5
ENDMDL
MODEL 2
REMARK VINA RESULT:      -6.9      3.583      6.382
REMARK  Name = 
REMARK  8 active torsions:
REMARK  status: ('A' for Active; 'I' for Inactive)
REMARK    1  A    between atoms: C_1  and  C_2
REMARK    2  A    between atoms: C_2  and  C_3
REMARK    3  A    between atoms: C_2  and  C_5
REMARK    4  A    between atoms: C_3  and  S_4
REMARK    5  A    between atoms: C_11  and  C_12
REMARK    6  A    between atoms: C_12  and  O_14
REMARK    7  A    between atoms: C_17  and  C_18
REMARK    8  A    between atoms: C_17  and  C_19
REMARK                            x       y       z     vdW  Elec       q    Type
REMARK                         _______ _______ _______ _____ _____    ______ ____
ROOT
ATOM      1  C   UNL     1       6.710   4.960  15.869  0.00  0.00    +0.000 C 
ATOM      2  O   UNL     1       7.612   5.776  15.679  0.00  0.00    +0.000 OA
ATOM      3  N   UNL     1       6.219   4.814  17.142  0.00  0.00    +0.000 N 
ATOM      4  C   UNL     1       5.229   3.884  17.654  0.00  0.00    +0.000 C 
ATOM      5  C   UNL     1       4.390   4.695  18.669  0.00  0.00    +0.000 C 
ATOM      6  C   UNL     1       5.281   5.901  19.033  0.00  0.00    +0.000 C 
ATOM      7  C   UNL     1       6.570   5.743  18.224  0.00  0.00    +0.000 C 
ATOM      8  O   UNL     1       4.114   3.983  19.869  0.00  0.00    +0.000 OA
ATOM      9  C   UNL     1       3.198   2.912  19.678  0.00  0.00    +0.000 C 
ATOM     10  C   UNL     1       1.881   3.406  19.068  0.00  0.00    +0.000 C 
ATOM     11  C   UNL     1       0.999   2.208  18.696  0.00  0.00    +0.000 C 
ATOM     12  C   UNL     1       1.136   4.297  20.080  0.00  0.00    +0.000 C 
ATOM     13  C   UNL     1       2.208   4.226  17.815  0.00  0.00    +0.000 C 
ATOM     14  O   UNL     1       3.195   5.220  18.079  0.00  0.00    +0.000 OA
ENDROOT
BRANCH   1  16
ATOM     15  C   UNL     1       4.679   4.497  14.463  0.00  0.00    +0.000 C 
ATOM     16  C   UNL     1       6.146   4.115  14.717  0.00  0.00    +0.000 C 
BRANCH  16  17
ATOM     17  C   UNL     1       6.960   4.168  13.416  0.00  0.00    +0.000 C 
BRANCH  17  18
ATOM     18  S   UNL     1       6.257   3.245  12.017  0.00  0.00    +0.000 S 
ATOM     19  H   UNL     1       6.168   4.282  11.168  0.00  0.00    +0.000 HD
ENDBRANCH  17  18
ENDBRANCH  16  17
ENDBRANCH   1  16
BRANCH   7  20
ATOM     20  C   UNL     1       7.723   5.205  19.079  0.00  0.00    +0.000 C 
ATOM     21  O   UNL     1       8.572   4.414  18.695  0.00  0.00    +0.000 OA
BRANCH  20  22
ATOM     22  O   UNL     1       7.687   5.618  20.377  0.00  0.00    +0.000 OA
ATOM     23  H   UNL     1       6.863   6.112  20.569  0.00  0.00    +0.000 HD
ENDBRANCH  20  22
ENDBRANCH   7  20
TORSDOF 5
ENDMDL
MODEL 3
REMARK VINA RESULT:      -6.2      0.959      1.405
REMARK  Name = 
REMARK  8 active torsions:
REMARK  status: ('A' for Active; 'I' for Inactive)
REMARK    1  A    between atoms: C_1  and  C_2
REMARK    2  A    between atoms: C_2  and  C_3
REMARK    3  A    between atoms: C_2  and  C_5
REMARK    4  A    between atoms: C_3  and  S_4
REMARK    5  A    between atoms: C_11  and  C_12
REMARK    6  A    between atoms: C_12  and  O_14
REMARK    7  A    between atoms: C_17  and  C_18
REMARK    8  A    between atoms: C_17  and  C_19
REMARK                            x       y       z     vdW  Elec       q    Type
REMARK                         _______ _______ _______ _____ _____    ______ ____
ROOT
ATOM      1  C   UNL     1       1.721   5.195  20.060  0.00  0.00    +0.000 C 
ATOM      2  O   UNL     1       0.792   4.439  20.345  0.00  0.00    +0.000 OA
ATOM      3  N   UNL     1       2.956   4.647  19.818  0.00  0.00    +0.000 N 
ATOM      4  C   UNL     1       4.222   5.300  19.544  0.00  0.00    +0.000 C 
ATOM      5  C   UNL     1       4.909   4.429  18.465  0.00  0.00    +0.000 C 
ATOM      6  C   UNL     1       4.201   3.062  18.562  0.00  0.00    +0.000 C 
ATOM      7  C   UNL     1       3.150   3.200  19.667  0.00  0.00    +0.000 C 
ATOM      8  O   UNL     1       6.294   4.218  18.709  0.00  0.00    +0.000 OA
ATOM      9  C   UNL     1       7.074   5.393  18.529  0.00  0.00    +0.000 C 
ATOM     10  C   UNL     1       6.890   5.973  17.121  0.00  0.00    +0.000 C 
ATOM     11  C   UNL     1       7.585   7.337  17.027  0.00  0.00    +0.000 C 
ATOM     12  C   UNL     1       7.495   5.016  16.077  0.00  0.00    +0.000 C 
ATOM     13  C   UNL     1       5.388   6.129  16.856  0.00  0.00    +0.000 C 
ATOM     14  O   UNL     1       4.676   4.929  17.144  0.00  0.00    +0.000 OA
ENDROOT
BRANCH   1  16
ATOM     15  C   UNL     1       1.726   7.337  21.373  0.00  0.00    +0.000 C 
ATOM     16  C   UNL     1       1.516   6.715  19.983  0.00  0.00    +0.000 C 
BRANCH  16  17
ATOM     17  C   UNL     1       2.369   7.432  18.927  0.00  0.00    +0.000 C 
BRANCH  17  18
ATOM     18  S   UNL     1       1.667   8.974  18.270  0.00  0.00    +0.000 S 
ATOM     19  H   UNL     1       0.605   8.421  17.660  0.00  0.00    +0.000 HD
ENDBRANCH  17  18
ENDBRANCH  16  17
ENDBRANCH   1  16
BRANCH   7  20
ATOM     20  C   UNL     1       3.608   2.551  20.978  0.00  0.00    +0.000 C 
ATOM     21  O   UNL     1       4.675   1.977  21.142  0.00  0.00    +0.000 OA
BRANCH  20  22
ATOM     22  O   UNL     1       2.670   2.582  21.967  0.00  0.00    +0.000 OA
ATOM     23  H   UNL     1       3.083   2.481  22.849  0.00  0.00    +0.000 HD
ENDBRANCH  20  22
ENDBRANCH   7  20
TORSDOF 5
ENDMDL
MODEL 4
REMARK VINA RESULT:      -6.1      2.834      6.001
REMARK  Name = 
REMARK  8 active torsions:
REMARK  status: ('A' for Active; 'I' for Inactive)
REMARK    1  A    between atoms: C_1  and  C_2
REMARK    2  A    between atoms: C_2  and  C_3
REMARK    3  A    between atoms: C_2  and  C_5
REMARK    4  A    between atoms: C_3  and  S_4
REMARK    5  A    between atoms: C_11  and  C_12
REMARK    6  A    between atoms: C_12  and  O_14
REMARK    7  A    between atoms: C_17  and  C_18
REMARK    8  A    between atoms: C_17  and  C_19
REMARK                            x       y       z     vdW  Elec       q    Type
REMARK                         _______ _______ _______ _____ _____    ______ ____
ROOT
ATOM      1  C   UNL     1       7.267   5.119  17.613  0.00  0.00    +0.000 C 
ATOM      2  O   UNL     1       8.234   4.758  16.942  0.00  0.00    +0.000 OA
ATOM      3  N   UNL     1       6.011   4.758  17.192  0.00  0.00    +0.000 N 
ATOM      4  C   UNL     1       4.713   5.110  17.739  0.00  0.00    +0.000 C 
ATOM      5  C   UNL     1       3.858   3.826  17.623  0.00  0.00    +0.000 C 
ATOM      6  C   UNL     1       4.578   2.975  16.557  0.00  0.00    +0.000 C 
ATOM      7  C   UNL     1       5.800   3.783  16.115  0.00  0.00    +0.000 C 
ATOM      8  O   UNL     1       2.535   4.070  17.160  0.00  0.00    +0.000 OA
ATOM      9  C   UNL     1       1.731   4.749  18.117  0.00  0.00    +0.000 C 
ATOM     10  C   UNL     1       1.670   3.979  19.441  0.00  0.00    +0.000 C 
ATOM     11  C   UNL     1       0.963   4.828  20.504  0.00  0.00    +0.000 C 
ATOM     12  C   UNL     1       0.902   2.658  19.245  0.00  0.00    +0.000 C 
ATOM     13  C   UNL     1       3.105   3.669  19.885  0.00  0.00    +0.000 C 
ATOM     14  O   UNL     1       3.861   3.068  18.837  0.00  0.00    +0.000 OA
ENDROOT
BRANCH   1  16
ATOM     15  C   UNL     1       8.014   5.079  20.011  0.00  0.00    +0.000 C 
ATOM     16  C   UNL     1       7.449   5.959  18.885  0.00  0.00    +0.000 C 
BRANCH  16  17
ATOM     17  C   UNL     1       8.291   7.231  18.707  0.00  0.00    +0.000 C 
BRANCH  17  18
ATOM     18  S   UNL     1       7.612   8.463  17.557  0.00  0.00    +0.000 S 
ATOM     19  H   UNL     1       6.563   7.734  17.140  0.00  0.00    +0.000 HD
ENDBRANCH  17  18
ENDBRANCH  16  17
ENDBRANCH   1  16
BRANCH   7  20
ATOM     20  C   UNL     1       5.575   4.472  14.765  0.00  0.00    +0.000 C 
ATOM     21  O   UNL     1       5.017   3.965  13.802  0.00  0.00    +0.000 OA
BRANCH  20  22
ATOM     22  O   UNL     1       6.138   5.710  14.675  0.00  0.00    +0.000 OA
ATOM     23  H   UNL     1       5.641   6.280  14.053  0.00  0.00    +0.000 HD
ENDBRANCH  20  22
ENDBRANCH   7  20
TORSDOF 5
ENDMDL
MODEL 5
REMARK VINA RESULT:      -5.5      2.943      6.013
REMARK  Name = 
REMARK  8 active torsions:
REMARK  status: ('A' for Active; 'I' for Inactive)
REMARK    1  A    between atoms: C_1  and  C_2
REMARK    2  A    between atoms: C_2  and  C_3
REMARK    3  A    between atoms: C_2  and  C_5
REMARK    4  A    between atoms: C_3  and  S_4
REMARK    5  A    between atoms: C_11  and  C_12
REMARK    6  A    between atoms: C_12  and  O_14
REMARK    7  A    between atoms: C_17  and  C_18
REMARK    8  A    between atoms: C_17  and  C_19
REMARK                            x       y       z     vdW  Elec       q    Type
REMARK                         _______ _______ _______ _____ _____    ______ ____
ROOT
ATOM      1  C   UNL     1       7.114   5.641  16.919  0.00  0.00    +0.000 C 
ATOM      2  O   UNL     1       8.122   5.362  16.271  0.00  0.00    +0.000 OA
ATOM      3  N   UNL     1       5.963   4.935  16.671  0.00  0.00    +0.000 N 
ATOM      4  C   UNL     1       4.632   5.108  17.223  0.00  0.00    +0.000 C 
ATOM      5  C   UNL     1       4.086   3.676  17.434  0.00  0.00    +0.000 C 
ATOM      6  C   UNL     1       4.956   2.790  16.518  0.00  0.00    +0.000 C 
ATOM      7  C   UNL     1       5.954   3.729  15.834  0.00  0.00    +0.000 C 
ATOM      8  O   UNL     1       2.732   3.523  17.026  0.00  0.00    +0.000 OA
ATOM      9  C   UNL     1       1.817   4.202  17.877  0.00  0.00    +0.000 C 
ATOM     10  C   UNL     1       1.963   3.742  19.332  0.00  0.00    +0.000 C 
ATOM     11  C   UNL     1       1.106   4.627  20.244  0.00  0.00    +0.000 C 
ATOM     12  C   UNL     1       1.508   2.276  19.466  0.00  0.00    +0.000 C 
ATOM     13  C   UNL     1       3.439   3.852  19.728  0.00  0.00    +0.000 C 
ATOM     14  O   UNL     1       4.288   3.217  18.775  0.00  0.00    +0.000 OA
ENDROOT
BRANCH   1  16
ATOM     15  C   UNL     1       8.050   6.353  19.139  0.00  0.00    +0.000 C 
ATOM     16  C   UNL     1       7.130   6.755  17.976  0.00  0.00    +0.000 C 
BRANCH  16  17
ATOM     17  C   UNL     1       7.496   8.148  17.443  0.00  0.00    +0.000 C 
BRANCH  17  18
ATOM     18  S   UNL     1       8.598   9.127  18.507  0.00  0.00    +0.000 S 
ATOM     19  H   UNL     1       9.269   9.743  17.520  0.00  0.00    +0.000 HD
ENDBRANCH  17  18
ENDBRANCH  16  17
ENDBRANCH   1  16
BRANCH   7  20
ATOM     20  C   UNL     1       5.548   4.045  14.391  0.00  0.00    +0.000 C 
ATOM     21  O   UNL     1       4.728   4.891  14.061  0.00  0.00    +0.000 OA
BRANCH  20  22
ATOM     22  O   UNL     1       6.120   3.226  13.464  0.00  0.00    +0.000 OA
ATOM     23  H   UNL     1       5.516   2.495  13.217  0.00  0.00    +0.000 HD
ENDBRANCH  20  22
ENDBRANCH   7  20
TORSDOF 5
ENDMDL
MODEL 6
REMARK VINA RESULT:      -5.5      2.566      4.512
REMARK  Name = 
REMARK  8 active torsions:
REMARK  status: ('A' for Active; 'I' for Inactive)
REMARK    1  A    between atoms: C_1  and  C_2
REMARK    2  A    between atoms: C_2  and  C_3
REMARK    3  A    between atoms: C_2  and  C_5
REMARK    4  A    between atoms: C_3  and  S_4
REMARK    5  A    between atoms: C_11  and  C_12
REMARK    6  A    between atoms: C_12  and  O_14
REMARK    7  A    between atoms: C_17  and  C_18
REMARK    8  A    between atoms: C_17  and  C_19
REMARK                            x       y       z     vdW  Elec       q    Type
REMARK                         _______ _______ _______ _____ _____    ______ ____
ROOT
ATOM      1  C   UNL     1       3.692   4.028  19.323  0.00  0.00    +0.000 C 
ATOM      2  O   UNL     1       3.521   4.502  20.446  0.00  0.00    +0.000 OA
ATOM      3  N   UNL     1       4.011   4.881  18.297  0.00  0.00    +0.000 N 
ATOM      4  C   UNL     1       4.185   4.606  16.882  0.00  0.00    +0.000 C 
ATOM      5  C   UNL     1       5.380   5.483  16.437  0.00  0.00    +0.000 C 
ATOM      6  C   UNL     1       5.485   6.574  17.522  0.00  0.00    +0.000 C 
ATOM      7  C   UNL     1       4.373   6.284  18.533  0.00  0.00    +0.000 C 
ATOM      8  O   UNL     1       5.168   6.132  15.189  0.00  0.00    +0.000 OA
ATOM      9  C   UNL     1       5.174   5.231  14.089  0.00  0.00    +0.000 C 
ATOM     10  C   UNL     1       6.481   4.432  14.029  0.00  0.00    +0.000 C 
ATOM     11  C   UNL     1       6.373   3.340  12.957  0.00  0.00    +0.000 C 
ATOM     12  C   UNL     1       7.654   5.370  13.690  0.00  0.00    +0.000 C 
ATOM     13  C   UNL     1       6.721   3.797  15.404  0.00  0.00    +0.000 C 
ATOM     14  O   UNL     1       6.613   4.756  16.452  0.00  0.00    +0.000 OA
ENDROOT
BRANCH   1  16
ATOM     15  C   UNL     1       4.525   1.743  19.956  0.00  0.00    +0.000 C 
ATOM     16  C   UNL     1       3.544   2.521  19.064  0.00  0.00    +0.000 C 
BRANCH  16  17
ATOM     17  C   UNL     1       2.117   1.975  19.212  0.00  0.00    +0.000 C 
BRANCH  17  18
ATOM     18  S   UNL     1       0.789   3.121  18.736  0.00  0.00    +0.000 S 
ATOM     19  H   UNL     1       1.480   4.257  18.926  0.00  0.00    +0.000 HD
ENDBRANCH  17  18
ENDBRANCH  16  17
ENDBRANCH   1  16
BRANCH   7  20
ATOM     20  C   UNL     1       3.171   7.217  18.348  0.00  0.00    +0.000 C 
ATOM     21  O   UNL     1       3.021   7.991  17.413  0.00  0.00    +0.000 OA
BRANCH  20  22
ATOM     22  O   UNL     1       2.284   7.188  19.381  0.00  0.00    +0.000 OA
ATOM     23  H   UNL     1       2.417   6.395  19.940  0.00  0.00    +0.000 HD
ENDBRANCH  20  22
ENDBRANCH   7  20
TORSDOF 5
ENDMDL
MODEL 7
REMARK VINA RESULT:      -5.4      2.919      4.819
REMARK  Name = 
REMARK  8 active torsions:
REMARK  status: ('A' for Active; 'I' for Inactive)
REMARK    1  A    between atoms: C_1  and  C_2
REMARK    2  A    between atoms: C_2  and  C_3
REMARK    3  A    between atoms: C_2  and  C_5
REMARK    4  A    between atoms: C_3  and  S_4
REMARK    5  A    between atoms: C_11  and  C_12
REMARK    6  A    between atoms: C_12  and  O_14
REMARK    7  A    between atoms: C_17  and  C_18
REMARK    8  A    between atoms: C_17  and  C_19
REMARK                            x       y       z     vdW  Elec       q    Type
REMARK                         _______ _______ _______ _____ _____    ______ ____
ROOT
ATOM      1  C   UNL     1       4.659   5.465  18.576  0.00  0.00    +0.000 C 
ATOM      2  O   UNL     1       5.061   5.533  19.738  0.00  0.00    +0.000 OA
ATOM      3  N   UNL     1       5.582   5.528  17.563  0.00  0.00    +0.000 N 
ATOM      4  C   UNL     1       5.380   5.552  16.125  0.00  0.00    +0.000 C 
ATOM      5  C   UNL     1       6.513   4.678  15.537  0.00  0.00    +0.000 C 
ATOM      6  C   UNL     1       7.579   4.623  16.651  0.00  0.00    +0.000 C 
ATOM      7  C   UNL     1       7.026   5.447  17.816  0.00  0.00    +0.000 C 
ATOM      8  O   UNL     1       7.121   5.244  14.383  0.00  0.00    +0.000 OA
ATOM      9  C   UNL     1       6.266   5.237  13.247  0.00  0.00    +0.000 C 
ATOM     10  C   UNL     1       5.784   3.819  12.921  0.00  0.00    +0.000 C 
ATOM     11  C   UNL     1       4.717   3.873  11.821  0.00  0.00    +0.000 C 
ATOM     12  C   UNL     1       6.970   2.959  12.443  0.00  0.00    +0.000 C 
ATOM     13  C   UNL     1       5.194   3.205  14.196  0.00  0.00    +0.000 C 
ATOM     14  O   UNL     1       6.084   3.332  15.301  0.00  0.00    +0.000 OA
ENDROOT
BRANCH   1  16
ATOM     15  C   UNL     1       2.845   3.860  17.911  0.00  0.00    +0.000 C 
ATOM     16  C   UNL     1       3.163   5.323  18.259  0.00  0.00    +0.000 C 
BRANCH  16  17
ATOM     17  C   UNL     1       2.217   5.846  19.348  0.00  0.00    +0.000 C 
BRANCH  17  18
ATOM     18  S   UNL     1       1.578   4.592  20.498  0.00  0.00    +0.000 S 
ATOM     19  H   UNL     1       0.778   3.962  19.621  0.00  0.00    +0.000 HD
ENDBRANCH  17  18
ENDBRANCH  16  17
ENDBRANCH   1  16
BRANCH   7  20
ATOM     20  C   UNL     1       7.666   6.837  17.891  0.00  0.00    +0.000 C 
ATOM     21  O   UNL     1       7.611   7.684  17.010  0.00  0.00    +0.000 OA
BRANCH  20  22
ATOM     22  O   UNL     1       8.407   7.045  19.016  0.00  0.00    +0.000 OA
ATOM     23  H   UNL     1       9.084   6.347  19.127  0.00  0.00    +0.000 HD
ENDBRANCH  20  22
ENDBRANCH   7  20
TORSDOF 5
ENDMDL
MODEL 8
REMARK VINA RESULT:      -5.4      3.756      6.729
REMARK  Name = 
REMARK  8 active torsions:
REMARK  status: ('A' for Active; 'I' for Inactive)
REMARK    1  A    between atoms: C_1  and  C_2
REMARK    2  A    between atoms: C_2  and  C_3
REMARK    3  A    between atoms: C_2  and  C_5
REMARK    4  A    between atoms: C_3  and  S_4
REMARK    5  A    between atoms: C_11  and  C_12
REMARK    6  A    between atoms: C_12  and  O_14
REMARK    7  A    between atoms: C_17  and  C_18
REMARK    8  A    between atoms: C_17  and  C_19
REMARK                            x       y       z     vdW  Elec       q    Type
REMARK                         _______ _______ _______ _____ _____    ______ ____
ROOT
ATOM      1  C   UNL     1       6.405   5.158  14.914  0.00  0.00    +0.000 C 
ATOM      2  O   UNL     1       6.962   6.091  14.335  0.00  0.00    +0.000 OA
ATOM      3  N   UNL     1       6.005   5.344  16.214  0.00  0.00    +0.000 N 
ATOM      4  C   UNL     1       5.408   4.402  17.143  0.00  0.00    +0.000 C 
ATOM      5  C   UNL     1       4.343   5.212  17.920  0.00  0.00    +0.000 C 
ATOM      6  C   UNL     1       4.755   6.686  17.722  0.00  0.00    +0.000 C 
ATOM      7  C   UNL     1       6.013   6.666  16.850  0.00  0.00    +0.000 C 
ATOM      8  O   UNL     1       4.342   4.947  19.318  0.00  0.00    +0.000 OA
ATOM      9  C   UNL     1       3.860   3.647  19.634  0.00  0.00    +0.000 C 
ATOM     10  C   UNL     1       2.450   3.424  19.075  0.00  0.00    +0.000 C 
ATOM     11  C   UNL     1       2.043   1.957  19.262  0.00  0.00    +0.000 C 
ATOM     12  C   UNL     1       1.445   4.333  19.808  0.00  0.00    +0.000 C 
ATOM     13  C   UNL     1       2.460   3.780  17.583  0.00  0.00    +0.000 C 
ATOM     14  O   UNL     1       3.037   5.063  17.353  0.00  0.00    +0.000 OA
ENDROOT
BRANCH   1  16
ATOM     15  C   UNL     1       4.660   3.518  14.153  0.00  0.00    +0.000 C 
ATOM     16  C   UNL     1       6.168   3.813  14.212  0.00  0.00    +0.000 C 
BRANCH  16  17
ATOM     17  C   UNL     1       6.807   3.686  12.821  0.00  0.00    +0.000 C 
BRANCH  17  18
ATOM     18  S   UNL     1       5.942   2.585  11.662  0.00  0.00    +0.000 S 
ATOM     19  H   UNL     1       6.908   2.542  10.730  0.00  0.00    +0.000 HD
ENDBRANCH  17  18
ENDBRANCH  16  17
ENDBRANCH   1  16
BRANCH   7  20
ATOM     20  C   UNL     1       7.286   6.889  17.674  0.00  0.00    +0.000 C 
ATOM     21  O   UNL     1       7.610   6.235  18.656  0.00  0.00    +0.000 OA
BRANCH  20  22
ATOM     22  O   UNL     1       8.021   7.965  17.277  0.00  0.00    +0.000 OA
ATOM     23  H   UNL     1       7.701   8.314  16.419  0.00  0.00    +0.000 HD
ENDBRANCH  20  22
ENDBRANCH   7  20
TORSDOF 5
ENDMDL
MODEL 9
REMARK VINA RESULT:      -5.3      2.690      4.271
REMARK  Name = 
REMARK  8 active torsions:
REMARK  status: ('A' for Active; 'I' for Inactive)
REMARK    1  A    between atoms: C_1  and  C_2
REMARK    2  A    between atoms: C_2  and  C_3
REMARK    3  A    between atoms: C_2  and  C_5
REMARK    4  A    between atoms: C_3  and  S_4
REMARK    5  A    between atoms: C_11  and  C_12
REMARK    6  A    between atoms: C_12  and  O_14
REMARK    7  A    between atoms: C_17  and  C_18
REMARK    8  A    between atoms: C_17  and  C_19
REMARK                            x       y       z     vdW  Elec       q    Type
REMARK                         _______ _______ _______ _____ _____    ______ ____
ROOT
ATOM      1  C   UNL     1       2.264   3.705  19.858  0.00  0.00    +0.000 C 
ATOM      2  O   UNL     1       1.993   3.966  21.030  0.00  0.00    +0.000 OA
ATOM      3  N   UNL     1       2.923   4.652  19.115  0.00  0.00    +0.000 N 
ATOM      4  C   UNL     1       3.289   4.639  17.710  0.00  0.00    +0.000 C 
ATOM      5  C   UNL     1       4.693   5.287  17.646  0.00  0.00    +0.000 C 
ATOM      6  C   UNL     1       4.815   6.079  18.964  0.00  0.00    +0.000 C 
ATOM      7  C   UNL     1       3.505   5.854  19.724  0.00  0.00    +0.000 C 
ATOM      8  O   UNL     1       4.840   6.208  16.572  0.00  0.00    +0.000 OA
ATOM      9  C   UNL     1       4.864   5.575  15.299  0.00  0.00    +0.000 C 
ATOM     10  C   UNL     1       5.978   4.524  15.221  0.00  0.00    +0.000 C 
ATOM     11  C   UNL     1       5.851   3.730  13.915  0.00  0.00    +0.000 C 
ATOM     12  C   UNL     1       7.354   5.214  15.270  0.00  0.00    +0.000 C 
ATOM     13  C   UNL     1       5.839   3.584  16.424  0.00  0.00    +0.000 C 
ATOM     14  O   UNL     1       5.736   4.307  17.647  0.00  0.00    +0.000 OA
ENDROOT
BRANCH   1  16
ATOM     15  C   UNL     1       0.506   2.489  18.538  0.00  0.00    +0.000 C 
ATOM     16  C   UNL     1       1.872   2.359  19.230  0.00  0.00    +0.000 C 
BRANCH  16  17
ATOM     17  C   UNL     1       2.915   1.759  18.277  0.00  0.00    +0.000 C 
BRANCH  17  18
ATOM     18  S   UNL     1       4.453   1.191  19.061  0.00  0.00    +0.000 S 
ATOM     19  H   UNL     1       5.097   2.369  19.027  0.00  0.00    +0.000 HD
ENDBRANCH  17  18
ENDBRANCH  16  17
ENDBRANCH   1  16
BRANCH   7  20
ATOM     20  C   UNL     1       2.563   7.058  19.612  0.00  0.00    +0.000 C 
ATOM     21  O   UNL     1       2.545   7.851  18.681  0.00  0.00    +0.000 OA
BRANCH  20  22
ATOM     22  O   UNL     1       1.773   7.245  20.706  0.00  0.00    +0.000 OA
ATOM     23  H   UNL     1       1.977   6.591  21.406  0.00  0.00    +0.000 HD
ENDBRANCH  20  22
ENDBRANCH   7  20
TORSDOF 5
ENDMDL
