MODEL 1
REMARK VINA RESULT:      -9.1      0.000      0.000
REMARK  Name = 
REMARK  2 active torsions:
REMARK  status: ('A' for Active; 'I' for Inactive)
REMARK    1  A    between atoms: C_4  and  N_5
REMARK    2  A    between atoms: N_5  and  C_6
REMARK                            x       y       z     vdW  Elec       q    Type
REMARK                         _______ _______ _______ _____ _____    ______ ____
ROOT
ATOM      1  N   UNL     1       4.429   3.309  17.480  0.00  0.00    +0.000 N 
ATOM      2  H   UNL     1       3.593   2.843  17.151  0.00  0.00    +0.000 HD
ENDROOT
BRANCH   1   6
ATOM      3  O   UNL     1       5.131   1.433  21.419  0.00  0.00    +0.000 OA
ATOM      4  C   UNL     1       4.670   2.238  20.623  0.00  0.00    +0.000 C 
ATOM      5  O   UNL     1       5.340   2.866  19.621  0.00  0.00    +0.000 OA
ATOM      6  C   UNL     1       4.482   3.744  18.859  0.00  0.00    +0.000 C 
ATOM      7  C   UNL     1       3.171   3.601  19.533  0.00  0.00    +0.000 A 
ATOM      8  C   UNL     1       1.953   4.214  19.283  0.00  0.00    +0.000 A 
ATOM      9  C   UNL     1       0.871   3.907  20.116  0.00  0.00    +0.000 A 
ATOM     10  C   UNL     1       1.018   3.010  21.188  0.00  0.00    +0.000 A 
ATOM     11  C   UNL     1       2.251   2.405  21.435  0.00  0.00    +0.000 A 
ATOM     12  C   UNL     1       3.300   2.722  20.587  0.00  0.00    +0.000 A 
ENDBRANCH   1   6
BRANCH   1  13
ATOM     13  C   UNL     1       5.304   3.815  16.532  0.00  0.00    +0.000 A 
ATOM     14  C   UNL     1       6.215   4.814  16.888  0.00  0.00    +0.000 A 
ATOM     15  C   UNL     1       7.077   5.381  15.939  0.00  0.00    +0.000 A 
ATOM     16  C   UNL     1       7.062   4.982  14.615  0.00  0.00    +0.000 A 
ATOM     17  N   UNL     1       7.913   5.554  13.743  0.00  0.00    +0.000 NA
ATOM     18  C   UNL     1       7.873   5.149  12.457  0.00  0.00    +0.000 A 
ATOM     19  C   UNL     1       7.015   4.174  11.985  0.00  0.00    +0.000 A 
ATOM     20  C   UNL     1       6.141   3.580  12.889  0.00  0.00    +0.000 A 
ATOM     21  C   UNL     1       6.148   3.979  14.235  0.00  0.00    +0.000 A 
ATOM     22  C   UNL     1       5.275   3.418  15.191  0.00  0.00    +0.000 A 
ENDBRANCH   1  13
TORSDOF 2
ENDMDL
MODEL 2
REMARK VINA RESULT:      -8.8      1.557      2.253
REMARK  Name = 
REMARK  2 active torsions:
REMARK  status: ('A' for Active; 'I' for Inactive)
REMARK    1  A    between atoms: C_4  and  N_5
REMARK    2  A    between atoms: N_5  and  C_6
REMARK                            x       y       z     vdW  Elec       q    Type
REMARK                         _______ _______ _______ _____ _____    ______ ____
ROOT
ATOM      1  N   UNL     1       5.067   3.853  18.108  0.00  0.00    +0.000 N 
ATOM      2  H   UNL     1       5.516   3.974  19.007  0.00  0.00    +0.000 HD
ENDROOT
BRANCH   1   6
ATOM      3  O   UNL     1       0.775   4.294  17.154  0.00  0.00    +0.000 OA
ATOM      4  C   UNL     1       1.765   3.814  17.687  0.00  0.00    +0.000 C 
ATOM      5  O   UNL     1       2.952   3.531  17.090  0.00  0.00    +0.000 OA
ATOM      6  C   UNL     1       3.912   2.985  18.020  0.00  0.00    +0.000 C 
ATOM      7  C   UNL     1       3.159   2.941  19.295  0.00  0.00    +0.000 A 
ATOM      8  C   UNL     1       3.529   2.488  20.551  0.00  0.00    +0.000 A 
ATOM      9  C   UNL     1       2.584   2.539  21.582  0.00  0.00    +0.000 A 
ATOM     10  C   UNL     1       1.286   3.025  21.347  0.00  0.00    +0.000 A 
ATOM     11  C   UNL     1       0.922   3.471  20.076  0.00  0.00    +0.000 A 
ATOM     12  C   UNL     1       1.883   3.417  19.079  0.00  0.00    +0.000 A 
ENDBRANCH   1   6
BRANCH   1  13
ATOM     13  C   UNL     1       5.775   4.224  16.976  0.00  0.00    +0.000 A 
ATOM     14  C   UNL     1       6.718   5.253  17.051  0.00  0.00    +0.000 A 
ATOM     15  C   UNL     1       7.413   5.685  15.912  0.00  0.00    +0.000 A 
ATOM     16  C   UNL     1       7.193   5.118  14.670  0.00  0.00    +0.000 A 
ATOM     17  N   UNL     1       7.889   5.565  13.608  0.00  0.00    +0.000 NA
ATOM     18  C   UNL     1       7.652   4.997  12.407  0.00  0.00    +0.000 A 
ATOM     19  C   UNL     1       6.742   3.976  12.208  0.00  0.00    +0.000 A 
ATOM     20  C   UNL     1       6.030   3.512  13.308  0.00  0.00    +0.000 A 
ATOM     21  C   UNL     1       6.244   4.082  14.573  0.00  0.00    +0.000 A 
ATOM     22  C   UNL     1       5.540   3.657  15.720  0.00  0.00    +0.000 A 
ENDBRANCH   1  13
TORSDOF 2
ENDMDL
MODEL 3
REMARK VINA RESULT:      -8.6      1.311      1.633
REMARK  Name = 
REMARK  2 active torsions:
REMARK  status: ('A' for Active; 'I' for Inactive)
REMARK    1  A    between atoms: C_4  and  N_5
REMARK    2  A    between atoms: N_5  and  C_6
REMARK                            x       y       z     vdW  Elec       q    Type
REMARK                         _______ _______ _______ _____ _____    ______ ____
ROOT
ATOM      1  N   UNL     1       4.458   3.377  17.702  0.00  0.00    +0.000 N 
ATOM      2  H   UNL     1       3.595   2.950  17.390  0.00  0.00    +0.000 HD
ENDROOT
BRANCH   1   6
ATOM      3  O   UNL     1       2.561   2.286  21.542  0.00  0.00    +0.000 OA
ATOM      4  C   UNL     1       3.110   3.010  20.724  0.00  0.00    +0.000 C 
ATOM      5  O   UNL     1       4.187   2.700  19.956  0.00  0.00    +0.000 OA
ATOM      6  C   UNL     1       4.566   3.788  19.086  0.00  0.00    +0.000 C 
ATOM      7  C   UNL     1       3.586   4.847  19.423  0.00  0.00    +0.000 A 
ATOM      8  C   UNL     1       3.449   6.141  18.945  0.00  0.00    +0.000 A 
ATOM      9  C   UNL     1       2.434   6.942  19.478  0.00  0.00    +0.000 A 
ATOM     10  C   UNL     1       1.582   6.453  20.483  0.00  0.00    +0.000 A 
ATOM     11  C   UNL     1       1.734   5.152  20.963  0.00  0.00    +0.000 A 
ATOM     12  C   UNL     1       2.742   4.380  20.408  0.00  0.00    +0.000 A 
ENDBRANCH   1   6
BRANCH   1  13
ATOM     13  C   UNL     1       5.328   3.860  16.738  0.00  0.00    +0.000 A 
ATOM     14  C   UNL     1       6.276   4.829  17.079  0.00  0.00    +0.000 A 
ATOM     15  C   UNL     1       7.135   5.373  16.113  0.00  0.00    +0.000 A 
ATOM     16  C   UNL     1       7.080   4.980  14.788  0.00  0.00    +0.000 A 
ATOM     17  N   UNL     1       7.929   5.530  13.902  0.00  0.00    +0.000 NA
ATOM     18  C   UNL     1       7.851   5.132  12.615  0.00  0.00    +0.000 A 
ATOM     19  C   UNL     1       6.954   4.185  12.158  0.00  0.00    +0.000 A 
ATOM     20  C   UNL     1       6.082   3.614  13.078  0.00  0.00    +0.000 A 
ATOM     21  C   UNL     1       6.128   4.007  14.425  0.00  0.00    +0.000 A 
ATOM     22  C   UNL     1       5.259   3.469  15.397  0.00  0.00    +0.000 A 
ENDBRANCH   1  13
TORSDOF 2
ENDMDL
MODEL 4
REMARK VINA RESULT:      -8.5      1.783      2.242
REMARK  Name = 
REMARK  2 active torsions:
REMARK  status: ('A' for Active; 'I' for Inactive)
REMARK    1  A    between atoms: C_4  and  N_5
REMARK    2  A    between atoms: N_5  and  C_6
REMARK                            x       y       z     vdW  Elec       q    Type
REMARK                         _______ _______ _______ _____ _____    ______ ____
ROOT
ATOM      1  N   UNL     1       4.455   3.196  17.393  0.00  0.00    +0.000 N 
ATOM      2  H   UNL     1       4.670   2.291  17.790  0.00  0.00    +0.000 HD
ENDROOT
BRANCH   1   6
ATOM      3  O   UNL     1       2.492   6.918  18.744  0.00  0.00    +0.000 OA
ATOM      4  C   UNL     1       2.605   5.719  18.532  0.00  0.00    +0.000 C 
ATOM      5  O   UNL     1       3.095   5.136  17.406  0.00  0.00    +0.000 OA
ATOM      6  C   UNL     1       3.100   3.695  17.499  0.00  0.00    +0.000 C 
ATOM      7  C   UNL     1       2.523   3.441  18.840  0.00  0.00    +0.000 A 
ATOM      8  C   UNL     1       2.243   2.253  19.496  0.00  0.00    +0.000 A 
ATOM      9  C   UNL     1       1.659   2.316  20.766  0.00  0.00    +0.000 A 
ATOM     10  C   UNL     1       1.351   3.554  21.357  0.00  0.00    +0.000 A 
ATOM     11  C   UNL     1       1.630   4.743  20.683  0.00  0.00    +0.000 A 
ATOM     12  C   UNL     1       2.217   4.648  19.432  0.00  0.00    +0.000 A 
ENDBRANCH   1   6
BRANCH   1  13
ATOM     13  C   UNL     1       5.349   3.733  16.481  0.00  0.00    +0.000 A 
ATOM     14  C   UNL     1       6.284   4.685  16.900  0.00  0.00    +0.000 A 
ATOM     15  C   UNL     1       7.167   5.283  15.990  0.00  0.00    +0.000 A 
ATOM     16  C   UNL     1       7.151   4.962  14.645  0.00  0.00    +0.000 A 
ATOM     17  N   UNL     1       8.023   5.561  13.814  0.00  0.00    +0.000 NA
ATOM     18  C   UNL     1       7.983   5.232  12.505  0.00  0.00    +0.000 A 
ATOM     19  C   UNL     1       7.103   4.309  11.973  0.00  0.00    +0.000 A 
ATOM     20  C   UNL     1       6.207   3.687  12.836  0.00  0.00    +0.000 A 
ATOM     21  C   UNL     1       6.214   4.007  14.203  0.00  0.00    +0.000 A 
ATOM     22  C   UNL     1       5.320   3.415  15.120  0.00  0.00    +0.000 A 
ENDBRANCH   1  13
TORSDOF 2
ENDMDL
MODEL 5
REMARK VINA RESULT:      -8.4      4.661      7.208
REMARK  Name = 
REMARK  2 active torsions:
REMARK  status: ('A' for Active; 'I' for Inactive)
REMARK    1  A    between atoms: C_4  and  N_5
REMARK    2  A    between atoms: N_5  and  C_6
REMARK                            x       y       z     vdW  Elec       q    Type
REMARK                         _______ _______ _______ _____ _____    ______ ____
ROOT
ATOM      1  N   UNL     1       2.517   6.322  20.417  0.00  0.00    +0.000 N 
ATOM      2  H   UNL     1       3.525   6.245  20.454  0.00  0.00    +0.000 HD
ENDROOT
BRANCH   1   6
ATOM      3  O   UNL     1       2.916   2.237  22.055  0.00  0.00    +0.000 OA
ATOM      4  C   UNL     1       2.552   3.106  21.275  0.00  0.00    +0.000 C 
ATOM      5  O   UNL     1       2.041   4.323  21.596  0.00  0.00    +0.000 OA
ATOM      6  C   UNL     1       1.729   5.108  20.424  0.00  0.00    +0.000 C 
ATOM      7  C   UNL     1       2.096   4.207  19.307  0.00  0.00    +0.000 A 
ATOM      8  C   UNL     1       2.000   4.379  17.936  0.00  0.00    +0.000 A 
ATOM      9  C   UNL     1       2.399   3.326  17.104  0.00  0.00    +0.000 A 
ATOM     10  C   UNL     1       2.872   2.118  17.647  0.00  0.00    +0.000 A 
ATOM     11  C   UNL     1       2.956   1.954  19.029  0.00  0.00    +0.000 A 
ATOM     12  C   UNL     1       2.564   3.017  19.826  0.00  0.00    +0.000 A 
ENDBRANCH   1   6
BRANCH   1  13
ATOM     13  C   UNL     1       1.974   7.530  20.009  0.00  0.00    +0.000 A 
ATOM     14  C   UNL     1       2.198   7.990  18.708  0.00  0.00    +0.000 A 
ATOM     15  C   UNL     1       1.704   9.231  18.283  0.00  0.00    +0.000 A 
ATOM     16  C   UNL     1       0.981  10.053  19.128  0.00  0.00    +0.000 A 
ATOM     17  N   UNL     1       0.525  11.233  18.671  0.00  0.00    +0.000 NA
ATOM     18  C   UNL     1      -0.175  12.016  19.518  0.00  0.00    +0.000 A 
ATOM     19  C   UNL     1      -0.457  11.671  20.826  0.00  0.00    +0.000 A 
ATOM     20  C   UNL     1       0.010  10.448  21.294  0.00  0.00    +0.000 A 
ATOM     21  C   UNL     1       0.747   9.608  20.445  0.00  0.00    +0.000 A 
ATOM     22  C   UNL     1       1.254   8.363  20.871  0.00  0.00    +0.000 A 
ENDBRANCH   1  13
TORSDOF 2
ENDMDL
MODEL 6
REMARK VINA RESULT:      -8.4      3.047      6.364
REMARK  Name = 
REMARK  2 active torsions:
REMARK  status: ('A' for Active; 'I' for Inactive)
REMARK    1  A    between atoms: C_4  and  N_5
REMARK    2  A    between atoms: N_5  and  C_6
REMARK                            x       y       z     vdW  Elec       q    Type
REMARK                         _______ _______ _______ _____ _____    ______ ____
ROOT
ATOM      1  N   UNL     1       3.129   3.767  18.640  0.00  0.00    +0.000 N 
ATOM      2  H   UNL     1       2.456   3.015  18.716  0.00  0.00    +0.000 HD
ENDROOT
BRANCH   1   6
ATOM      3  O   UNL     1       6.983   5.523  19.902  0.00  0.00    +0.000 OA
ATOM      4  C   UNL     1       6.216   4.883  19.197  0.00  0.00    +0.000 C 
ATOM      5  O   UNL     1       5.275   3.996  19.616  0.00  0.00    +0.000 OA
ATOM      6  C   UNL     1       4.531   3.431  18.515  0.00  0.00    +0.000 C 
ATOM      7  C   UNL     1       5.147   4.070  17.329  0.00  0.00    +0.000 A 
ATOM      8  C   UNL     1       4.886   3.913  15.977  0.00  0.00    +0.000 A 
ATOM      9  C   UNL     1       5.660   4.635  15.062  0.00  0.00    +0.000 A 
ATOM     10  C   UNL     1       6.686   5.489  15.502  0.00  0.00    +0.000 A 
ATOM     11  C   UNL     1       6.945   5.633  16.865  0.00  0.00    +0.000 A 
ATOM     12  C   UNL     1       6.155   4.913  17.746  0.00  0.00    +0.000 A 
ENDBRANCH   1   6
BRANCH   1  13
ATOM     13  C   UNL     1       2.724   5.038  19.014  0.00  0.00    +0.000 A 
ATOM     14  C   UNL     1       2.228   5.261  20.302  0.00  0.00    +0.000 A 
ATOM     15  C   UNL     1       1.764   6.525  20.691  0.00  0.00    +0.000 A 
ATOM     16  C   UNL     1       1.773   7.601  19.822  0.00  0.00    +0.000 A 
ATOM     17  N   UNL     1       1.320   8.795  20.246  0.00  0.00    +0.000 NA
ATOM     18  C   UNL     1       1.337   9.827  19.377  0.00  0.00    +0.000 A 
ATOM     19  C   UNL     1       1.800   9.729  18.078  0.00  0.00    +0.000 A 
ATOM     20  C   UNL     1       2.273   8.495  17.645  0.00  0.00    +0.000 A 
ATOM     21  C   UNL     1       2.266   7.396  18.519  0.00  0.00    +0.000 A 
ATOM     22  C   UNL     1       2.723   6.120  18.128  0.00  0.00    +0.000 A 
ENDBRANCH   1  13
TORSDOF 2
ENDMDL
MODEL 7
REMARK VINA RESULT:      -8.4      2.636      3.830
REMARK  Name = 
REMARK  2 active torsions:
REMARK  status: ('A' for Active; 'I' for Inactive)
REMARK    1  A    between atoms: C_4  and  N_5
REMARK    2  A    between atoms: N_5  and  C_6
REMARK                            x       y       z     vdW  Elec       q    Type
REMARK                         _______ _______ _______ _____ _____    ______ ____
ROOT
ATOM      1  N   UNL     1       4.450   2.373  17.445  0.00  0.00    +0.000 N 
ATOM      2  H   UNL     1       4.945   1.584  17.050  0.00  0.00    +0.000 HD
ENDROOT
BRANCH   1   6
ATOM      3  O   UNL     1       0.786   4.829  17.166  0.00  0.00    +0.000 OA
ATOM      4  C   UNL     1       1.540   3.981  17.622  0.00  0.00    +0.000 C 
ATOM      5  O   UNL     1       2.243   3.056  16.918  0.00  0.00    +0.000 OA
ATOM      6  C   UNL     1       3.049   2.217  17.774  0.00  0.00    +0.000 C 
ATOM      7  C   UNL     1       2.743   2.728  19.131  0.00  0.00    +0.000 A 
ATOM      8  C   UNL     1       3.184   2.312  20.377  0.00  0.00    +0.000 A 
ATOM      9  C   UNL     1       2.694   2.971  21.510  0.00  0.00    +0.000 A 
ATOM     10  C   UNL     1       1.766   4.019  21.389  0.00  0.00    +0.000 A 
ATOM     11  C   UNL     1       1.322   4.424  20.130  0.00  0.00    +0.000 A 
ATOM     12  C   UNL     1       1.833   3.760  19.027  0.00  0.00    +0.000 A 
ENDBRANCH   1   6
BRANCH   1  13
ATOM     13  C   UNL     1       5.023   3.628  17.316  0.00  0.00    +0.000 A 
ATOM     14  C   UNL     1       4.699   4.432  16.219  0.00  0.00    +0.000 A 
ATOM     15  C   UNL     1       5.302   5.685  16.035  0.00  0.00    +0.000 A 
ATOM     16  C   UNL     1       6.241   6.176  16.924  0.00  0.00    +0.000 A 
ATOM     17  N   UNL     1       6.787   7.386  16.706  0.00  0.00    +0.000 NA
ATOM     18  C   UNL     1       7.704   7.839  17.587  0.00  0.00    +0.000 A 
ATOM     19  C   UNL     1       8.107   7.134  18.705  0.00  0.00    +0.000 A 
ATOM     20  C   UNL     1       7.536   5.887  18.931  0.00  0.00    +0.000 A 
ATOM     21  C   UNL     1       6.583   5.378  18.034  0.00  0.00    +0.000 A 
ATOM     22  C   UNL     1       5.982   4.115  18.210  0.00  0.00    +0.000 A 
ENDBRANCH   1  13
TORSDOF 2
ENDMDL
MODEL 8
REMARK VINA RESULT:      -8.4      4.824      7.911
REMARK  Name = 
REMARK  2 active torsions:
REMARK  status: ('A' for Active; 'I' for Inactive)
REMARK    1  A    between atoms: C_4  and  N_5
REMARK    2  A    between atoms: N_5  and  C_6
REMARK                            x       y       z     vdW  Elec       q    Type
REMARK                         _______ _______ _______ _____ _____    ______ ____
ROOT
ATOM      1  N   UNL     1       2.323   6.441  20.213  0.00  0.00    +0.000 N 
ATOM      2  H   UNL     1       3.268   6.450  19.853  0.00  0.00    +0.000 HD
ENDROOT
BRANCH   1   6
ATOM      3  O   UNL     1       2.818   2.455  22.055  0.00  0.00    +0.000 OA
ATOM      4  C   UNL     1       2.462   3.270  21.216  0.00  0.00    +0.000 C 
ATOM      5  O   UNL     1       1.872   4.471  21.449  0.00  0.00    +0.000 OA
ATOM      6  C   UNL     1       1.597   5.188  20.226  0.00  0.00    +0.000 C 
ATOM      7  C   UNL     1       2.080   4.262  19.176  0.00  0.00    +0.000 A 
ATOM      8  C   UNL     1       2.065   4.371  17.794  0.00  0.00    +0.000 A 
ATOM      9  C   UNL     1       2.569   3.307  17.038  0.00  0.00    +0.000 A 
ATOM     10  C   UNL     1       3.065   2.150  17.662  0.00  0.00    +0.000 A 
ATOM     11  C   UNL     1       3.068   2.048  19.054  0.00  0.00    +0.000 A 
ATOM     12  C   UNL     1       2.572   3.122  19.775  0.00  0.00    +0.000 A 
ENDBRANCH   1   6
BRANCH   1  13
ATOM     13  C   UNL     1       1.665   7.654  20.335  0.00  0.00    +0.000 A 
ATOM     14  C   UNL     1       1.677   8.562  19.272  0.00  0.00    +0.000 A 
ATOM     15  C   UNL     1       1.064   9.819  19.384  0.00  0.00    +0.000 A 
ATOM     16  C   UNL     1       0.426  10.213  20.546  0.00  0.00    +0.000 A 
ATOM     17  N   UNL     1      -0.151  11.427  20.602  0.00  0.00    +0.000 NA
ATOM     18  C   UNL     1      -0.763  11.789  21.749  0.00  0.00    +0.000 A 
ATOM     19  C   UNL     1      -0.838  10.979  22.867  0.00  0.00    +0.000 A 
ATOM     20  C   UNL     1      -0.246   9.723  22.804  0.00  0.00    +0.000 A 
ATOM     21  C   UNL     1       0.406   9.313  21.630  0.00  0.00    +0.000 A 
ATOM     22  C   UNL     1       1.032   8.054  21.516  0.00  0.00    +0.000 A 
ENDBRANCH   1  13
TORSDOF 2
ENDMDL
MODEL 9
REMARK VINA RESULT:      -8.3      4.566      7.638
REMARK  Name = 
REMARK  2 active torsions:
REMARK  status: ('A' for Active; 'I' for Inactive)
REMARK    1  A    between atoms: C_4  and  N_5
REMARK    2  A    between atoms: N_5  and  C_6
REMARK                            x       y       z     vdW  Elec       q    Type
REMARK                         _______ _______ _______ _____ _____    ______ ____
ROOT
ATOM      1  N   UNL     1       2.785   6.963  18.781  0.00  0.00    +0.000 N 
ATOM      2  H   UNL     1       2.845   6.875  17.775  0.00  0.00    +0.000 HD
ENDROOT
BRANCH   1   6
ATOM      3  O   UNL     1       6.165   4.117  18.823  0.00  0.00    +0.000 OA
ATOM      4  C   UNL     1       5.023   4.510  19.013  0.00  0.00    +0.000 C 
ATOM      5  O   UNL     1       4.652   5.711  19.528  0.00  0.00    +0.000 OA
ATOM      6  C   UNL     1       3.217   5.851  19.601  0.00  0.00    +0.000 C 
ATOM      7  C   UNL     1       2.724   4.557  19.077  0.00  0.00    +0.000 A 
ATOM      8  C   UNL     1       1.435   4.072  18.924  0.00  0.00    +0.000 A 
ATOM      9  C   UNL     1       1.266   2.776  18.424  0.00  0.00    +0.000 A 
ATOM     10  C   UNL     1       2.377   1.980  18.097  0.00  0.00    +0.000 A 
ATOM     11  C   UNL     1       3.671   2.475  18.263  0.00  0.00    +0.000 A 
ATOM     12  C   UNL     1       3.805   3.764  18.750  0.00  0.00    +0.000 A 
ENDBRANCH   1   6
BRANCH   1  13
ATOM     13  C   UNL     1       1.981   7.968  19.296  0.00  0.00    +0.000 A 
ATOM     14  C   UNL     1       1.634   9.060  18.496  0.00  0.00    +0.000 A 
ATOM     15  C   UNL     1       0.864  10.116  19.005  0.00  0.00    +0.000 A 
ATOM     16  C   UNL     1       0.421  10.125  20.315  0.00  0.00    +0.000 A 
ATOM     17  N   UNL     1      -0.318  11.160  20.754  0.00  0.00    +0.000 NA
ATOM     18  C   UNL     1      -0.734  11.145  22.038  0.00  0.00    +0.000 A 
ATOM     19  C   UNL     1      -0.451  10.124  22.925  0.00  0.00    +0.000 A 
ATOM     20  C   UNL     1       0.308   9.053  22.466  0.00  0.00    +0.000 A 
ATOM     21  C   UNL     1       0.765   9.035  21.138  0.00  0.00    +0.000 A 
ATOM     22  C   UNL     1       1.547   7.979  20.625  0.00  0.00    +0.000 A 
ENDBRANCH   1  13
TORSDOF 2
ENDMDL
