MODEL 1
REMARK VINA RESULT:      -7.3      0.000      0.000
REMARK  Name = 
REMARK  11 active torsions:
REMARK  status: ('A' for Active; 'I' for Inactive)
REMARK    1  A    between atoms: C_1  and  C_2
REMARK    2  A    between atoms: C_2  and  O_3
REMARK    3  A    between atoms: O_3  and  C_4
REMARK    4  A    between atoms: C_8  and  C_9
REMARK    5  A    between atoms: N_13  and  C_14
REMARK    6  A    between atoms: C_16  and  O_17
REMARK    7  A    between atoms: O_17  and  C_18
REMARK    8  A    between atoms: C_19  and  O_20
REMARK    9  A    between atoms: O_20  and  C_21
REMARK   10  A    between atoms: C_22  and  O_23
REMARK   11  A    between atoms: O_23  and  C_24
REMARK                            x       y       z     vdW  Elec       q    Type
REMARK                         _______ _______ _______ _____ _____    ______ ____
ROOT
ATOM      1  C   UNL     1       6.743   5.379  15.787  0.00  0.00    +0.000 A 
ATOM      2  N   UNL     1       7.271   5.333  14.575  0.00  0.00    +0.000 NA
ATOM      3  C   UNL     1       6.492   4.431  13.920  0.00  0.00    +0.000 A 
ATOM      4  N   UNL     1       5.502   3.904  14.634  0.00  0.00    +0.000 NA
ATOM      5  N   UNL     1       5.568   4.630  15.779  0.00  0.00    +0.000 N 
ENDROOT
BRANCH   1  10
ATOM      6  C   UNL     1       8.067   8.145  17.972  0.00  0.00    +0.000 A 
ATOM      7  C   UNL     1       8.361   7.451  19.148  0.00  0.00    +0.000 A 
ATOM      8  C   UNL     1       8.183   6.072  19.220  0.00  0.00    +0.000 A 
ATOM      9  C   UNL     1       7.697   5.381  18.111  0.00  0.00    +0.000 A 
ATOM     10  C   UNL     1       7.336   6.066  16.941  0.00  0.00    +0.000 A 
ATOM     11  C   UNL     1       7.553   7.450  16.874  0.00  0.00    +0.000 A 
BRANCH   6  12
ATOM     12  O   UNL     1       8.316   9.487  18.021  0.00  0.00    +0.000 OA
BRANCH  12  14
ATOM     13  C   UNL     1       9.913  11.162  18.591  0.00  0.00    +0.000 C 
ATOM     14  C   UNL     1       9.150   9.948  19.085  0.00  0.00    +0.000 C 
ENDBRANCH  12  14
ENDBRANCH   6  12
ENDBRANCH   1  10
BRANCH   5  15
ATOM     15  C   UNL     1       4.521   4.574  16.731  0.00  0.00    +0.000 A 
ATOM     16  C   UNL     1       4.002   5.761  17.245  0.00  0.00    +0.000 A 
ATOM     17  C   UNL     1       2.909   5.718  18.113  0.00  0.00    +0.000 A 
ATOM     18  C   UNL     1       2.379   4.474  18.539  0.00  0.00    +0.000 A 
ATOM     19  C   UNL     1       2.950   3.274  18.064  0.00  0.00    +0.000 A 
ATOM     20  C   UNL     1       4.011   3.342  17.155  0.00  0.00    +0.000 A 
BRANCH  17  21
ATOM     21  O   UNL     1       2.298   6.857  18.590  0.00  0.00    +0.000 OA
ATOM     22  C   UNL     1       2.597   8.061  17.889  0.00  0.00    +0.000 C 
ENDBRANCH  17  21
BRANCH  18  23
ATOM     23  O   UNL     1       1.362   4.561  19.464  0.00  0.00    +0.000 OA
ATOM     24  C   UNL     1       1.701   4.391  20.833  0.00  0.00    +0.000 C 
ENDBRANCH  18  23
BRANCH  19  25
ATOM     25  O   UNL     1       2.465   2.084  18.541  0.00  0.00    +0.000 OA
ATOM     26  C   UNL     1       3.399   1.076  18.922  0.00  0.00    +0.000 C 
ENDBRANCH  19  25
ENDBRANCH   5  15
TORSDOF 7
ENDMDL
MODEL 2
REMARK VINA RESULT:      -7.0      0.552      2.606
REMARK  Name = 
REMARK  11 active torsions:
REMARK  status: ('A' for Active; 'I' for Inactive)
REMARK    1  A    between atoms: C_1  and  C_2
REMARK    2  A    between atoms: C_2  and  O_3
REMARK    3  A    between atoms: O_3  and  C_4
REMARK    4  A    between atoms: C_8  and  C_9
REMARK    5  A    between atoms: N_13  and  C_14
REMARK    6  A    between atoms: C_16  and  O_17
REMARK    7  A    between atoms: O_17  and  C_18
REMARK    8  A    between atoms: C_19  and  O_20
REMARK    9  A    between atoms: O_20  and  C_21
REMARK   10  A    between atoms: C_22  and  O_23
REMARK   11  A    between atoms: O_23  and  C_24
REMARK                            x       y       z     vdW  Elec       q    Type
REMARK                         _______ _______ _______ _____ _____    ______ ____
ROOT
ATOM      1  C   UNL     1       6.777   5.365  15.855  0.00  0.00    +0.000 A 
ATOM      2  N   UNL     1       7.371   5.418  14.676  0.00  0.00    +0.000 NA
ATOM      3  C   UNL     1       6.534   4.720  13.863  0.00  0.00    +0.000 A 
ATOM      4  N   UNL     1       5.444   4.230  14.448  0.00  0.00    +0.000 NA
ATOM      5  N   UNL     1       5.523   4.780  15.687  0.00  0.00    +0.000 N 
ENDROOT
BRANCH   1  10
ATOM      6  C   UNL     1       8.244   7.624  18.486  0.00  0.00    +0.000 A 
ATOM      7  C   UNL     1       8.410   6.736  19.551  0.00  0.00    +0.000 A 
ATOM      8  C   UNL     1       8.098   5.387  19.404  0.00  0.00    +0.000 A 
ATOM      9  C   UNL     1       7.607   4.923  18.186  0.00  0.00    +0.000 A 
ATOM     10  C   UNL     1       7.372   5.808  17.123  0.00  0.00    +0.000 A 
ATOM     11  C   UNL     1       7.723   7.157  17.277  0.00  0.00    +0.000 A 
BRANCH   6  12
ATOM     12  O   UNL     1       8.617   8.912  18.750  0.00  0.00    +0.000 OA
BRANCH  12  14
ATOM     13  C   UNL     1       9.062  11.158  18.089  0.00  0.00    +0.000 C 
ATOM     14  C   UNL     1       8.298   9.889  17.760  0.00  0.00    +0.000 C 
ENDBRANCH  12  14
ENDBRANCH   6  12
ENDBRANCH   1  10
BRANCH   5  15
ATOM     15  C   UNL     1       4.418   4.729  16.571  0.00  0.00    +0.000 A 
ATOM     16  C   UNL     1       3.832   3.499  16.861  0.00  0.00    +0.000 A 
ATOM     17  C   UNL     1       2.803   3.428  17.802  0.00  0.00    +0.000 A 
ATOM     18  C   UNL     1       2.294   4.609  18.399  0.00  0.00    +0.000 A 
ATOM     19  C   UNL     1       2.849   5.859  18.053  0.00  0.00    +0.000 A 
ATOM     20  C   UNL     1       3.914   5.901  17.147  0.00  0.00    +0.000 A 
BRANCH  17  21
ATOM     21  O   UNL     1       2.238   2.234  18.193  0.00  0.00    +0.000 OA
ATOM     22  C   UNL     1       3.117   1.314  18.837  0.00  0.00    +0.000 C 
ENDBRANCH  17  21
BRANCH  18  23
ATOM     23  O   UNL     1       1.221   4.420  19.241  0.00  0.00    +0.000 OA
ATOM     24  C   UNL     1       1.467   4.463  20.639  0.00  0.00    +0.000 C 
ENDBRANCH  18  23
BRANCH  19  25
ATOM     25  O   UNL     1       2.299   6.993  18.592  0.00  0.00    +0.000 OA
ATOM     26  C   UNL     1       2.548   8.240  17.947  0.00  0.00    +0.000 C 
ENDBRANCH  19  25
ENDBRANCH   5  15
TORSDOF 7
ENDMDL
MODEL 3
REMARK VINA RESULT:      -6.6      3.254      5.279
REMARK  Name = 
REMARK  11 active torsions:
REMARK  status: ('A' for Active; 'I' for Inactive)
REMARK    1  A    between atoms: C_1  and  C_2
REMARK    2  A    between atoms: C_2  and  O_3
REMARK    3  A    between atoms: O_3  and  C_4
REMARK    4  A    between atoms: C_8  and  C_9
REMARK    5  A    between atoms: N_13  and  C_14
REMARK    6  A    between atoms: C_16  and  O_17
REMARK    7  A    between atoms: O_17  and  C_18
REMARK    8  A    between atoms: C_19  and  O_20
REMARK    9  A    between atoms: O_20  and  C_21
REMARK   10  A    between atoms: C_22  and  O_23
REMARK   11  A    between atoms: O_23  and  C_24
REMARK                            x       y       z     vdW  Elec       q    Type
REMARK                         _______ _______ _______ _____ _____    ______ ____
ROOT
ATOM      1  C   UNL     1       3.403   3.619  19.753  0.00  0.00    +0.000 A 
ATOM      2  N   UNL     1       3.223   2.443  20.328  0.00  0.00    +0.000 NA
ATOM      3  C   UNL     1       2.493   2.736  21.437  0.00  0.00    +0.000 A 
ATOM      4  N   UNL     1       2.195   4.022  21.603  0.00  0.00    +0.000 NA
ATOM      5  N   UNL     1       2.642   4.563  20.441  0.00  0.00    +0.000 N 
ENDROOT
BRANCH   1  10
ATOM      6  C   UNL     1       6.449   4.661  17.799  0.00  0.00    +0.000 A 
ATOM      7  C   UNL     1       6.084   4.293  16.502  0.00  0.00    +0.000 A 
ATOM      8  C   UNL     1       4.825   3.755  16.246  0.00  0.00    +0.000 A 
ATOM      9  C   UNL     1       3.927   3.574  17.295  0.00  0.00    +0.000 A 
ATOM     10  C   UNL     1       4.295   3.877  18.615  0.00  0.00    +0.000 A 
ATOM     11  C   UNL     1       5.554   4.449  18.851  0.00  0.00    +0.000 A 
BRANCH   6  12
ATOM     12  O   UNL     1       7.697   5.205  17.910  0.00  0.00    +0.000 OA
BRANCH  12  14
ATOM     13  C   UNL     1       7.675   7.575  17.656  0.00  0.00    +0.000 C 
ATOM     14  C   UNL     1       7.802   6.428  18.640  0.00  0.00    +0.000 C 
ENDBRANCH  12  14
ENDBRANCH   6  12
ENDBRANCH   1  10
BRANCH   5  15
ATOM     15  C   UNL     1       2.293   5.887  20.079  0.00  0.00    +0.000 A 
ATOM     16  C   UNL     1       1.448   6.621  20.910  0.00  0.00    +0.000 A 
ATOM     17  C   UNL     1       1.173   7.956  20.608  0.00  0.00    +0.000 A 
ATOM     18  C   UNL     1       1.677   8.542  19.420  0.00  0.00    +0.000 A 
ATOM     19  C   UNL     1       2.480   7.774  18.550  0.00  0.00    +0.000 A 
ATOM     20  C   UNL     1       2.785   6.454  18.898  0.00  0.00    +0.000 A 
BRANCH  17  21
ATOM     21  O   UNL     1       0.414   8.760  21.431  0.00  0.00    +0.000 OA
ATOM     22  C   UNL     1       1.089   9.294  22.568  0.00  0.00    +0.000 C 
ENDBRANCH  17  21
BRANCH  18  23
ATOM     23  O   UNL     1       1.263   9.836  19.188  0.00  0.00    +0.000 OA
ATOM     24  C   UNL     1       0.173  10.027  18.298  0.00  0.00    +0.000 C 
ENDBRANCH  18  23
BRANCH  19  25
ATOM     25  O   UNL     1       2.902   8.340  17.375  0.00  0.00    +0.000 OA
ATOM     26  C   UNL     1       3.978   7.722  16.674  0.00  0.00    +0.000 C 
ENDBRANCH  19  25
ENDBRANCH   5  15
TORSDOF 7
ENDMDL
MODEL 4
REMARK VINA RESULT:      -6.5      3.281      5.410
REMARK  Name = 
REMARK  11 active torsions:
REMARK  status: ('A' for Active; 'I' for Inactive)
REMARK    1  A    between atoms: C_1  and  C_2
REMARK    2  A    between atoms: C_2  and  O_3
REMARK    3  A    between atoms: O_3  and  C_4
REMARK    4  A    between atoms: C_8  and  C_9
REMARK    5  A    between atoms: N_13  and  C_14
REMARK    6  A    between atoms: C_16  and  O_17
REMARK    7  A    between atoms: O_17  and  C_18
REMARK    8  A    between atoms: C_19  and  O_20
REMARK    9  A    between atoms: O_20  and  C_21
REMARK   10  A    between atoms: C_22  and  O_23
REMARK   11  A    between atoms: O_23  and  C_24
REMARK                            x       y       z     vdW  Elec       q    Type
REMARK                         _______ _______ _______ _____ _____    ______ ____
ROOT
ATOM      1  C   UNL     1       3.227   3.647  19.693  0.00  0.00    +0.000 A 
ATOM      2  N   UNL     1       2.922   2.465  20.202  0.00  0.00    +0.000 NA
ATOM      3  C   UNL     1       2.146   2.770  21.277  0.00  0.00    +0.000 A 
ATOM      4  N   UNL     1       1.934   4.067  21.481  0.00  0.00    +0.000 NA
ATOM      5  N   UNL     1       2.496   4.618  20.375  0.00  0.00    +0.000 N 
ENDROOT
BRANCH   1  10
ATOM      6  C   UNL     1       6.469   4.507  17.983  0.00  0.00    +0.000 A 
ATOM      7  C   UNL     1       6.157   4.239  16.648  0.00  0.00    +0.000 A 
ATOM      8  C   UNL     1       4.876   3.829  16.289  0.00  0.00    +0.000 A 
ATOM      9  C   UNL     1       3.900   3.677  17.272  0.00  0.00    +0.000 A 
ATOM     10  C   UNL     1       4.208   3.880  18.626  0.00  0.00    +0.000 A 
ATOM     11  C   UNL     1       5.494   4.324  18.967  0.00  0.00    +0.000 A 
BRANCH   6  12
ATOM     12  O   UNL     1       7.750   4.932  18.197  0.00  0.00    +0.000 OA
BRANCH  12  14
ATOM     13  C   UNL     1       7.728   7.293  17.879  0.00  0.00    +0.000 C 
ATOM     14  C   UNL     1       7.909   6.173  18.885  0.00  0.00    +0.000 C 
ENDBRANCH  12  14
ENDBRANCH   6  12
ENDBRANCH   1  10
BRANCH   5  15
ATOM     15  C   UNL     1       2.270   5.978  20.052  0.00  0.00    +0.000 A 
ATOM     16  C   UNL     1       2.749   6.481  18.844  0.00  0.00    +0.000 A 
ATOM     17  C   UNL     1       2.452   7.795  18.477  0.00  0.00    +0.000 A 
ATOM     18  C   UNL     1       1.741   8.645  19.362  0.00  0.00    +0.000 A 
ATOM     19  C   UNL     1       1.313   8.148  20.611  0.00  0.00    +0.000 A 
ATOM     20  C   UNL     1       1.577   6.813  20.936  0.00  0.00    +0.000 A 
BRANCH  17  21
ATOM     21  O   UNL     1       2.824   8.326  17.261  0.00  0.00    +0.000 OA
ATOM     22  C   UNL     1       3.919   7.683  16.613  0.00  0.00    +0.000 C 
ENDBRANCH  17  21
BRANCH  18  23
ATOM     23  O   UNL     1       1.588   9.942  18.925  0.00  0.00    +0.000 OA
ATOM     24  C   UNL     1       0.288  10.352  18.524  0.00  0.00    +0.000 C 
ENDBRANCH  18  23
BRANCH  19  25
ATOM     25  O   UNL     1       0.686   9.004  21.478  0.00  0.00    +0.000 OA
ATOM     26  C   UNL     1      -0.571   8.613  22.027  0.00  0.00    +0.000 C 
ENDBRANCH  19  25
ENDBRANCH   5  15
TORSDOF 7
ENDMDL
MODEL 5
REMARK VINA RESULT:      -6.2      1.581      3.038
REMARK  Name = 
REMARK  11 active torsions:
REMARK  status: ('A' for Active; 'I' for Inactive)
REMARK    1  A    between atoms: C_1  and  C_2
REMARK    2  A    between atoms: C_2  and  O_3
REMARK    3  A    between atoms: O_3  and  C_4
REMARK    4  A    between atoms: C_8  and  C_9
REMARK    5  A    between atoms: N_13  and  C_14
REMARK    6  A    between atoms: C_16  and  O_17
REMARK    7  A    between atoms: O_17  and  C_18
REMARK    8  A    between atoms: C_19  and  O_20
REMARK    9  A    between atoms: O_20  and  C_21
REMARK   10  A    between atoms: C_22  and  O_23
REMARK   11  A    between atoms: O_23  and  C_24
REMARK                            x       y       z     vdW  Elec       q    Type
REMARK                         _______ _______ _______ _____ _____    ______ ____
ROOT
ATOM      1  C   UNL     1       6.190   5.511  16.545  0.00  0.00    +0.000 A 
ATOM      2  N   UNL     1       6.571   4.966  15.402  0.00  0.00    +0.000 NA
ATOM      3  C   UNL     1       5.530   4.154  15.072  0.00  0.00    +0.000 A 
ATOM      4  N   UNL     1       4.513   4.150  15.929  0.00  0.00    +0.000 NA
ATOM      5  N   UNL     1       4.869   5.139  16.788  0.00  0.00    +0.000 N 
ENDROOT
BRANCH   1  10
ATOM      6  C   UNL     1       8.021   8.492  17.938  0.00  0.00    +0.000 A 
ATOM      7  C   UNL     1       8.574   7.956  19.103  0.00  0.00    +0.000 A 
ATOM      8  C   UNL     1       8.402   6.611  19.416  0.00  0.00    +0.000 A 
ATOM      9  C   UNL     1       7.662   5.794  18.562  0.00  0.00    +0.000 A 
ATOM     10  C   UNL     1       7.045   6.325  17.420  0.00  0.00    +0.000 A 
ATOM     11  C   UNL     1       7.256   7.674  17.102  0.00  0.00    +0.000 A 
BRANCH   6  12
ATOM     12  O   UNL     1       8.291   9.815  17.732  0.00  0.00    +0.000 OA
BRANCH  12  14
ATOM     13  C   UNL     1      10.102  11.342  17.984  0.00  0.00    +0.000 C 
ATOM     14  C   UNL     1       9.100  10.467  18.711  0.00  0.00    +0.000 C 
ENDBRANCH  12  14
ENDBRANCH   6  12
ENDBRANCH   1  10
BRANCH   5  15
ATOM     15  C   UNL     1       3.938   5.653  17.723  0.00  0.00    +0.000 A 
ATOM     16  C   UNL     1       3.705   4.958  18.907  0.00  0.00    +0.000 A 
ATOM     17  C   UNL     1       2.859   5.504  19.875  0.00  0.00    +0.000 A 
ATOM     18  C   UNL     1       2.171   6.718  19.623  0.00  0.00    +0.000 A 
ATOM     19  C   UNL     1       2.362   7.385  18.395  0.00  0.00    +0.000 A 
ATOM     20  C   UNL     1       3.254   6.846  17.462  0.00  0.00    +0.000 A 
BRANCH  17  21
ATOM     21  O   UNL     1       2.652   4.908  21.099  0.00  0.00    +0.000 OA
ATOM     22  C   UNL     1       1.857   3.725  21.086  0.00  0.00    +0.000 C 
ENDBRANCH  17  21
BRANCH  18  23
ATOM     23  O   UNL     1       1.297   7.108  20.614  0.00  0.00    +0.000 OA
ATOM     24  C   UNL     1       1.625   8.273  21.357  0.00  0.00    +0.000 C 
ENDBRANCH  18  23
BRANCH  19  25
ATOM     25  O   UNL     1       1.636   8.521  18.146  0.00  0.00    +0.000 OA
ATOM     26  C   UNL     1       2.337   9.753  17.992  0.00  0.00    +0.000 C 
ENDBRANCH  19  25
ENDBRANCH   5  15
TORSDOF 7
ENDMDL
MODEL 6
REMARK VINA RESULT:      -6.2      3.582      5.752
REMARK  Name = 
REMARK  11 active torsions:
REMARK  status: ('A' for Active; 'I' for Inactive)
REMARK    1  A    between atoms: C_1  and  C_2
REMARK    2  A    between atoms: C_2  and  O_3
REMARK    3  A    between atoms: O_3  and  C_4
REMARK    4  A    between atoms: C_8  and  C_9
REMARK    5  A    between atoms: N_13  and  C_14
REMARK    6  A    between atoms: C_16  and  O_17
REMARK    7  A    between atoms: O_17  and  C_18
REMARK    8  A    between atoms: C_19  and  O_20
REMARK    9  A    between atoms: O_20  and  C_21
REMARK   10  A    between atoms: C_22  and  O_23
REMARK   11  A    between atoms: O_23  and  C_24
REMARK                            x       y       z     vdW  Elec       q    Type
REMARK                         _______ _______ _______ _____ _____    ______ ____
ROOT
ATOM      1  C   UNL     1       3.716   3.728  19.861  0.00  0.00    +0.000 A 
ATOM      2  N   UNL     1       3.492   2.515  20.337  0.00  0.00    +0.000 NA
ATOM      3  C   UNL     1       2.545   2.714  21.292  0.00  0.00    +0.000 A 
ATOM      4  N   UNL     1       2.149   3.974  21.452  0.00  0.00    +0.000 NA
ATOM      5  N   UNL     1       2.784   4.597  20.427  0.00  0.00    +0.000 N 
ENDROOT
BRANCH   1  10
ATOM      6  C   UNL     1       5.759   3.935  16.705  0.00  0.00    +0.000 A 
ATOM      7  C   UNL     1       6.769   4.820  17.088  0.00  0.00    +0.000 A 
ATOM      8  C   UNL     1       6.824   5.312  18.390  0.00  0.00    +0.000 A 
ATOM      9  C   UNL     1       5.857   4.925  19.314  0.00  0.00    +0.000 A 
ATOM     10  C   UNL     1       4.797   4.088  18.935  0.00  0.00    +0.000 A 
ATOM     11  C   UNL     1       4.775   3.575  17.630  0.00  0.00    +0.000 A 
BRANCH   6  12
ATOM     12  O   UNL     1       5.836   3.502  15.412  0.00  0.00    +0.000 OA
BRANCH  12  14
ATOM     13  C   UNL     1       6.238   3.782  13.080  0.00  0.00    +0.000 C 
ATOM     14  C   UNL     1       6.197   4.473  14.429  0.00  0.00    +0.000 C 
ENDBRANCH  12  14
ENDBRANCH   6  12
ENDBRANCH   1  10
BRANCH   5  15
ATOM     15  C   UNL     1       2.439   5.921  20.062  0.00  0.00    +0.000 A 
ATOM     16  C   UNL     1       2.956   6.463  18.888  0.00  0.00    +0.000 A 
ATOM     17  C   UNL     1       2.548   7.732  18.474  0.00  0.00    +0.000 A 
ATOM     18  C   UNL     1       1.680   8.507  19.284  0.00  0.00    +0.000 A 
ATOM     19  C   UNL     1       1.209   7.978  20.504  0.00  0.00    +0.000 A 
ATOM     20  C   UNL     1       1.590   6.683  20.874  0.00  0.00    +0.000 A 
BRANCH  17  21
ATOM     21  O   UNL     1       2.958   8.290  17.282  0.00  0.00    +0.000 OA
ATOM     22  C   UNL     1       4.082   7.669  16.662  0.00  0.00    +0.000 C 
ENDBRANCH  17  21
BRANCH  18  23
ATOM     23  O   UNL     1       1.422   9.776  18.813  0.00  0.00    +0.000 OA
ATOM     24  C   UNL     1       0.142  10.020  18.249  0.00  0.00    +0.000 C 
ENDBRANCH  18  23
BRANCH  19  25
ATOM     25  O   UNL     1       0.424   8.768  21.303  0.00  0.00    +0.000 OA
ATOM     26  C   UNL     1       1.009   9.350  22.465  0.00  0.00    +0.000 C 
ENDBRANCH  19  25
ENDBRANCH   5  15
TORSDOF 7
ENDMDL
MODEL 7
REMARK VINA RESULT:      -6.1      2.937      6.286
REMARK  Name = 
REMARK  11 active torsions:
REMARK  status: ('A' for Active; 'I' for Inactive)
REMARK    1  A    between atoms: C_1  and  C_2
REMARK    2  A    between atoms: C_2  and  O_3
REMARK    3  A    between atoms: O_3  and  C_4
REMARK    4  A    between atoms: C_8  and  C_9
REMARK    5  A    between atoms: N_13  and  C_14
REMARK    6  A    between atoms: C_16  and  O_17
REMARK    7  A    between atoms: O_17  and  C_18
REMARK    8  A    between atoms: C_19  and  O_20
REMARK    9  A    between atoms: O_20  and  C_21
REMARK   10  A    between atoms: C_22  and  O_23
REMARK   11  A    between atoms: O_23  and  C_24
REMARK                            x       y       z     vdW  Elec       q    Type
REMARK                         _______ _______ _______ _____ _____    ______ ____
ROOT
ATOM      1  C   UNL     1       2.776   4.108  18.927  0.00  0.00    +0.000 A 
ATOM      2  N   UNL     1       2.228   3.167  19.677  0.00  0.00    +0.000 NA
ATOM      3  C   UNL     1       2.662   2.010  19.107  0.00  0.00    +0.000 A 
ATOM      4  N   UNL     1       3.452   2.155  18.047  0.00  0.00    +0.000 NA
ATOM      5  N   UNL     1       3.652   3.498  18.030  0.00  0.00    +0.000 N 
ENDROOT
BRANCH   1  10
ATOM      6  C   UNL     1       1.791   7.448  20.360  0.00  0.00    +0.000 A 
ATOM      7  C   UNL     1       1.960   8.284  19.253  0.00  0.00    +0.000 A 
ATOM      8  C   UNL     1       2.342   7.759  18.021  0.00  0.00    +0.000 A 
ATOM      9  C   UNL     1       2.566   6.390  17.895  0.00  0.00    +0.000 A 
ATOM     10  C   UNL     1       2.465   5.541  19.007  0.00  0.00    +0.000 A 
ATOM     11  C   UNL     1       2.047   6.080  20.233  0.00  0.00    +0.000 A 
BRANCH   6  12
ATOM     12  O   UNL     1       1.384   8.082  21.499  0.00  0.00    +0.000 OA
BRANCH  12  14
ATOM     13  C   UNL     1       0.002   9.788  22.425  0.00  0.00    +0.000 C 
ATOM     14  C   UNL     1       0.044   8.574  21.517  0.00  0.00    +0.000 C 
ENDBRANCH  12  14
ENDBRANCH   6  12
ENDBRANCH   1  10
BRANCH   5  15
ATOM     15  C   UNL     1       4.652   4.069  17.207  0.00  0.00    +0.000 A 
ATOM     16  C   UNL     1       5.749   4.691  17.799  0.00  0.00    +0.000 A 
ATOM     17  C   UNL     1       6.785   5.175  16.996  0.00  0.00    +0.000 A 
ATOM     18  C   UNL     1       6.687   5.113  15.583  0.00  0.00    +0.000 A 
ATOM     19  C   UNL     1       5.544   4.538  14.989  0.00  0.00    +0.000 A 
ATOM     20  C   UNL     1       4.542   4.013  15.813  0.00  0.00    +0.000 A 
BRANCH  17  21
ATOM     21  O   UNL     1       7.933   5.726  17.522  0.00  0.00    +0.000 OA
ATOM     22  C   UNL     1       7.859   6.127  18.888  0.00  0.00    +0.000 C 
ENDBRANCH  17  21
BRANCH  18  23
ATOM     23  O   UNL     1       7.728   5.702  14.901  0.00  0.00    +0.000 OA
ATOM     24  C   UNL     1       7.986   5.252  13.579  0.00  0.00    +0.000 C 
ENDBRANCH  18  23
BRANCH  19  25
ATOM     25  O   UNL     1       5.440   4.548  13.622  0.00  0.00    +0.000 OA
ATOM     26  C   UNL     1       5.321   3.300  12.942  0.00  0.00    +0.000 C 
ENDBRANCH  19  25
ENDBRANCH   5  15
TORSDOF 7
ENDMDL
MODEL 8
REMARK VINA RESULT:      -6.1      3.209      6.424
REMARK  Name = 
REMARK  11 active torsions:
REMARK  status: ('A' for Active; 'I' for Inactive)
REMARK    1  A    between atoms: C_1  and  C_2
REMARK    2  A    between atoms: C_2  and  O_3
REMARK    3  A    between atoms: O_3  and  C_4
REMARK    4  A    between atoms: C_8  and  C_9
REMARK    5  A    between atoms: N_13  and  C_14
REMARK    6  A    between atoms: C_16  and  O_17
REMARK    7  A    between atoms: O_17  and  C_18
REMARK    8  A    between atoms: C_19  and  O_20
REMARK    9  A    between atoms: O_20  and  C_21
REMARK   10  A    between atoms: C_22  and  O_23
REMARK   11  A    between atoms: O_23  and  C_24
REMARK                            x       y       z     vdW  Elec       q    Type
REMARK                         _______ _______ _______ _____ _____    ______ ____
ROOT
ATOM      1  C   UNL     1       2.046   4.210  19.441  0.00  0.00    +0.000 A 
ATOM      2  N   UNL     1       1.256   3.391  20.115  0.00  0.00    +0.000 NA
ATOM      3  C   UNL     1       1.588   2.161  19.640  0.00  0.00    +0.000 A 
ATOM      4  N   UNL     1       2.540   2.144  18.710  0.00  0.00    +0.000 NA
ATOM      5  N   UNL     1       2.941   3.441  18.700  0.00  0.00    +0.000 N 
ENDROOT
BRANCH   1  10
ATOM      6  C   UNL     1       1.513   7.723  20.686  0.00  0.00    +0.000 A 
ATOM      7  C   UNL     1       1.846   8.471  19.554  0.00  0.00    +0.000 A 
ATOM      8  C   UNL     1       2.192   7.837  18.364  0.00  0.00    +0.000 A 
ATOM      9  C   UNL     1       2.216   6.445  18.305  0.00  0.00    +0.000 A 
ATOM     10  C   UNL     1       1.947   5.675  19.447  0.00  0.00    +0.000 A 
ATOM     11  C   UNL     1       1.568   6.328  20.629  0.00  0.00    +0.000 A 
BRANCH   6  12
ATOM     12  O   UNL     1       1.162   8.464  21.779  0.00  0.00    +0.000 OA
BRANCH  12  14
ATOM     13  C   UNL     1      -0.328  10.301  22.072  0.00  0.00    +0.000 C 
ATOM     14  C   UNL     1      -0.220   8.797  21.912  0.00  0.00    +0.000 C 
ENDBRANCH  12  14
ENDBRANCH   6  12
ENDBRANCH   1  10
BRANCH   5  15
ATOM     15  C   UNL     1       4.128   3.824  18.029  0.00  0.00    +0.000 A 
ATOM     16  C   UNL     1       4.109   3.982  16.645  0.00  0.00    +0.000 A 
ATOM     17  C   UNL     1       5.249   4.449  15.987  0.00  0.00    +0.000 A 
ATOM     18  C   UNL     1       6.449   4.679  16.706  0.00  0.00    +0.000 A 
ATOM     19  C   UNL     1       6.480   4.456  18.098  0.00  0.00    +0.000 A 
ATOM     20  C   UNL     1       5.312   4.038  18.745  0.00  0.00    +0.000 A 
BRANCH  17  21
ATOM     21  O   UNL     1       5.269   4.705  14.633  0.00  0.00    +0.000 OA
ATOM     22  C   UNL     1       5.889   3.708  13.823  0.00  0.00    +0.000 C 
ENDBRANCH  17  21
BRANCH  18  23
ATOM     23  O   UNL     1       7.527   5.050  15.934  0.00  0.00    +0.000 OA
ATOM     24  C   UNL     1       7.771   6.440  15.769  0.00  0.00    +0.000 C 
ENDBRANCH  18  23
BRANCH  19  25
ATOM     25  O   UNL     1       7.667   4.621  18.763  0.00  0.00    +0.000 OA
ATOM     26  C   UNL     1       7.880   5.836  19.478  0.00  0.00    +0.000 C 
ENDBRANCH  19  25
ENDBRANCH   5  15
TORSDOF 7
ENDMDL
MODEL 9
REMARK VINA RESULT:      -6.1      3.080      6.296
REMARK  Name = 
REMARK  11 active torsions:
REMARK  status: ('A' for Active; 'I' for Inactive)
REMARK    1  A    between atoms: C_1  and  C_2
REMARK    2  A    between atoms: C_2  and  O_3
REMARK    3  A    between atoms: O_3  and  C_4
REMARK    4  A    between atoms: C_8  and  C_9
REMARK    5  A    between atoms: N_13  and  C_14
REMARK    6  A    between atoms: C_16  and  O_17
REMARK    7  A    between atoms: O_17  and  C_18
REMARK    8  A    between atoms: C_19  and  O_20
REMARK    9  A    between atoms: O_20  and  C_21
REMARK   10  A    between atoms: C_22  and  O_23
REMARK   11  A    between atoms: O_23  and  C_24
REMARK                            x       y       z     vdW  Elec       q    Type
REMARK                         _______ _______ _______ _____ _____    ______ ____
ROOT
ATOM      1  C   UNL     1       2.545   5.282  20.108  0.00  0.00    +0.000 A 
ATOM      2  N   UNL     1       1.888   4.823  21.160  0.00  0.00    +0.000 NA
ATOM      3  C   UNL     1       2.290   3.527  21.249  0.00  0.00    +0.000 A 
ATOM      4  N   UNL     1       3.163   3.133  20.326  0.00  0.00    +0.000 NA
ATOM      5  N   UNL     1       3.445   4.301  19.694  0.00  0.00    +0.000 N 
ENDROOT
BRANCH   1  10
ATOM      6  C   UNL     1       1.552   8.886  19.664  0.00  0.00    +0.000 A 
ATOM      7  C   UNL     1       1.954   9.123  18.347  0.00  0.00    +0.000 A 
ATOM      8  C   UNL     1       2.500   8.099  17.579  0.00  0.00    +0.000 A 
ATOM      9  C   UNL     1       2.655   6.829  18.131  0.00  0.00    +0.000 A 
ATOM     10  C   UNL     1       2.317   6.585  19.471  0.00  0.00    +0.000 A 
ATOM     11  C   UNL     1       1.737   7.619  20.221  0.00  0.00    +0.000 A 
BRANCH   6  12
ATOM     12  O   UNL     1       1.003   9.965  20.298  0.00  0.00    +0.000 OA
BRANCH  12  14
ATOM     13  C   UNL     1      -1.086  10.771  19.480  0.00  0.00    +0.000 C 
ATOM     14  C   UNL     1       0.418  10.969  19.469  0.00  0.00    +0.000 C 
ENDBRANCH  12  14
ENDBRANCH   6  12
ENDBRANCH   1  10
BRANCH   5  15
ATOM     15  C   UNL     1       4.536   4.391  18.796  0.00  0.00    +0.000 A 
ATOM     16  C   UNL     1       5.679   5.091  19.178  0.00  0.00    +0.000 A 
ATOM     17  C   UNL     1       6.793   5.106  18.336  0.00  0.00    +0.000 A 
ATOM     18  C   UNL     1       6.738   4.488  17.061  0.00  0.00    +0.000 A 
ATOM     19  C   UNL     1       5.556   3.836  16.654  0.00  0.00    +0.000 A 
ATOM     20  C   UNL     1       4.470   3.788  17.534  0.00  0.00    +0.000 A 
BRANCH  17  21
ATOM     21  O   UNL     1       7.980   5.709  18.691  0.00  0.00    +0.000 OA
ATOM     22  C   UNL     1       8.040   7.120  18.499  0.00  0.00    +0.000 C 
ENDBRANCH  17  21
BRANCH  18  23
ATOM     23  O   UNL     1       7.867   4.648  16.288  0.00  0.00    +0.000 OA
ATOM     24  C   UNL     1       7.766   5.481  15.142  0.00  0.00    +0.000 C 
ENDBRANCH  18  23
BRANCH  19  25
ATOM     25  O   UNL     1       5.502   3.303  15.392  0.00  0.00    +0.000 OA
ATOM     26  C   UNL     1       5.078   4.141  14.320  0.00  0.00    +0.000 C 
ENDBRANCH  19  25
ENDBRANCH   5  15
TORSDOF 7
ENDMDL
