MODEL 1
REMARK VINA RESULT:      -5.9      0.000      0.000
REMARK  Name = 
REMARK  14 active torsions:
REMARK  status: ('A' for Active; 'I' for Inactive)
REMARK    1  A    between atoms: C_1  and  C_2
REMARK    2  A    between atoms: C_2  and  C_3
REMARK    3  A    between atoms: C_2  and  C_4
REMARK    4  A    between atoms: C_4  and  N_5
REMARK    5  A    between atoms: C_4  and  C_11
REMARK    6  A    between atoms: C_6  and  C_8
REMARK    7  A    between atoms: C_8  and  C_9
REMARK    8  A    between atoms: C_8  and  N_10
REMARK    9  A    between atoms: C_14  and  C_15
REMARK   10  A    between atoms: N_17  and  C_18
REMARK   11  A    between atoms: C_18  and  C_19
REMARK   12  A    between atoms: C_18  and  C_25
REMARK   13  A    between atoms: C_33  and  C_34
REMARK   14  A    between atoms: C_33  and  C_35
REMARK                            x       y       z     vdW  Elec       q    Type
REMARK                         _______ _______ _______ _____ _____    ______ ____
ROOT
ATOM      1  C   UNL     1      -1.887  12.269  22.128  0.00  0.00    +0.000 C 
ATOM      2  O   UNL     1      -1.528  11.778  23.190  0.00  0.00    +0.000 OA
ATOM      3  N   UNL     1      -1.302  11.889  20.915  0.00  0.00    +0.000 N 
ATOM      4  C   UNL     1      -1.560  12.542  19.614  0.00  0.00    +0.000 C 
ATOM      5  C   UNL     1      -1.809  11.421  18.618  0.00  0.00    +0.000 C 
ATOM      6  S   UNL     1      -0.553  10.184  19.018  0.00  0.00    +0.000 S 
ATOM      7  C   UNL     1      -0.344  10.752  20.780  0.00  0.00    +0.000 C 
ATOM      8  C   UNL     1       1.123  11.170  20.955  0.00  0.00    +0.000 C 
ATOM      9  C   UNL     1      -0.651   9.495  21.606  0.00  0.00    +0.000 C 
ENDROOT
BRANCH   4  10
ATOM     10  C   UNL     1      -0.402  13.471  19.147  0.00  0.00    +0.000 C 
ATOM     11  O   UNL     1       0.214  13.277  18.101  0.00  0.00    +0.000 OA
ATOM     12  N   UNL     1      -0.182  14.592  19.924  0.00  0.00    +0.000 N 
ATOM     13  H   UNL     1      -0.592  14.636  20.845  0.00  0.00    +0.000 HD
BRANCH  12  14
ATOM     14  C   UNL     1       0.956  15.470  19.653  0.00  0.00    +0.000 C 
BRANCH  14  15
ATOM     15  C   UNL     1       0.634  16.556  18.630  0.00  0.00    +0.000 A 
ATOM     16  C   UNL     1      -0.667  17.027  18.406  0.00  0.00    +0.000 A 
ATOM     17  C   UNL     1      -0.917  18.062  17.501  0.00  0.00    +0.000 A 
ATOM     18  C   UNL     1       0.132  18.626  16.774  0.00  0.00    +0.000 A 
ATOM     19  C   UNL     1       1.423  18.147  16.946  0.00  0.00    +0.000 A 
ATOM     20  C   UNL     1       1.678  17.122  17.868  0.00  0.00    +0.000 A 
ENDBRANCH  14  15
BRANCH  14  21
ATOM     21  C   UNL     1       1.549  15.981  20.967  0.00  0.00    +0.000 A 
ATOM     22  C   UNL     1       0.983  17.106  21.593  0.00  0.00    +0.000 A 
ATOM     23  C   UNL     1       1.580  17.674  22.721  0.00  0.00    +0.000 A 
ATOM     24  C   UNL     1       2.738  17.115  23.255  0.00  0.00    +0.000 A 
ATOM     25  C   UNL     1       3.286  15.974  22.679  0.00  0.00    +0.000 A 
ATOM     26  C   UNL     1       2.698  15.412  21.543  0.00  0.00    +0.000 A 
ENDBRANCH  14  21
ENDBRANCH  12  14
ENDBRANCH   4  10
BRANCH   1  27
ATOM     27  C   UNL     1      -3.143  13.235  22.069  0.00  0.00    +0.000 C 
BRANCH  27  28
ATOM     28  N   UNL     1      -4.207  12.629  22.885  0.00  0.00    +0.000 N 
ATOM     29  C   UNL     1      -5.550  12.880  22.672  0.00  0.00    +0.000 C 
ATOM     30  O   UNL     1      -5.965  13.441  21.658  0.00  0.00    +0.000 OA
ATOM     31  H   UNL     1      -3.934  12.384  23.834  0.00  0.00    +0.000 HD
BRANCH  29  32
ATOM     32  C   UNL     1      -6.466  12.421  23.832  0.00  0.00    +0.000 C 
ATOM     33  C   UNL     1      -7.423  13.531  24.241  0.00  0.00    +0.000 C 
BRANCH  32  34
ATOM     34  N   UNL     1      -5.670  12.012  25.011  0.00  0.00    +0.000 NA
ATOM     35  H   UNL     1      -4.690  11.939  24.727  0.00  0.00    +0.000 HD
ATOM     36  H   UNL     1      -5.927  11.055  25.261  0.00  0.00    +0.000 HD
ENDBRANCH  32  34
ENDBRANCH  29  32
ENDBRANCH  27  28
BRANCH  27  38
ATOM     37  C   UNL     1      -3.199  15.710  21.412  0.00  0.00    +0.000 C 
ATOM     38  C   UNL     1      -2.939  14.703  22.531  0.00  0.00    +0.000 C 
ATOM     39  C   UNL     1      -1.604  14.957  23.245  0.00  0.00    +0.000 C 
ENDBRANCH  27  38
ENDBRANCH   1  27
TORSDOF 9
ENDMDL
MODEL 2
REMARK VINA RESULT:      -5.9      3.903      8.544
REMARK  Name = 
REMARK  14 active torsions:
REMARK  status: ('A' for Active; 'I' for Inactive)
REMARK    1  A    between atoms: C_1  and  C_2
REMARK    2  A    between atoms: C_2  and  C_3
REMARK    3  A    between atoms: C_2  and  C_4
REMARK    4  A    between atoms: C_4  and  N_5
REMARK    5  A    between atoms: C_4  and  C_11
REMARK    6  A    between atoms: C_6  and  C_8
REMARK    7  A    between atoms: C_8  and  C_9
REMARK    8  A    between atoms: C_8  and  N_10
REMARK    9  A    between atoms: C_14  and  C_15
REMARK   10  A    between atoms: N_17  and  C_18
REMARK   11  A    between atoms: C_18  and  C_19
REMARK   12  A    between atoms: C_18  and  C_25
REMARK   13  A    between atoms: C_33  and  C_34
REMARK   14  A    between atoms: C_33  and  C_35
REMARK                            x       y       z     vdW  Elec       q    Type
REMARK                         _______ _______ _______ _____ _____    ______ ____
ROOT
ATOM      1  C   UNL     1       3.194  15.205  22.115  0.00  0.00    +0.000 C 
ATOM      2  O   UNL     1       2.929  16.020  22.988  0.00  0.00    +0.000 OA
ATOM      3  N   UNL     1       2.283  14.907  21.095  0.00  0.00    +0.000 N 
ATOM      4  C   UNL     1       2.454  13.826  20.101  0.00  0.00    +0.000 C 
ATOM      5  C   UNL     1       2.135  14.439  18.747  0.00  0.00    +0.000 C 
ATOM      6  S   UNL     1       0.671  15.454  19.054  0.00  0.00    +0.000 S 
ATOM      7  C   UNL     1       1.015  15.664  20.873  0.00  0.00    +0.000 C 
ATOM      8  C   UNL     1      -0.182  15.081  21.636  0.00  0.00    +0.000 C 
ATOM      9  C   UNL     1       1.085  17.186  21.057  0.00  0.00    +0.000 C 
ENDROOT
BRANCH   4  10
ATOM     10  C   UNL     1       1.568  12.578  20.384  0.00  0.00    +0.000 C 
ATOM     11  O   UNL     1       1.312  12.198  21.525  0.00  0.00    +0.000 OA
ATOM     12  N   UNL     1       0.994  11.988  19.274  0.00  0.00    +0.000 N 
ATOM     13  H   UNL     1       1.346  12.223  18.359  0.00  0.00    +0.000 HD
BRANCH  12  14
ATOM     14  C   UNL     1       0.244  10.739  19.404  0.00  0.00    +0.000 C 
BRANCH  14  15
ATOM     15  C   UNL     1      -1.045  10.736  18.588  0.00  0.00    +0.000 A 
ATOM     16  C   UNL     1      -2.108  11.612  18.844  0.00  0.00    +0.000 A 
ATOM     17  C   UNL     1      -3.252  11.619  18.040  0.00  0.00    +0.000 A 
ATOM     18  C   UNL     1      -3.366  10.722  16.978  0.00  0.00    +0.000 A 
ATOM     19  C   UNL     1      -2.346   9.816  16.730  0.00  0.00    +0.000 A 
ATOM     20  C   UNL     1      -1.190   9.821  17.524  0.00  0.00    +0.000 A 
ENDBRANCH  14  15
BRANCH  14  21
ATOM     21  C   UNL     1       1.166   9.545  19.154  0.00  0.00    +0.000 A 
ATOM     22  C   UNL     1       1.822   9.422  17.916  0.00  0.00    +0.000 A 
ATOM     23  C   UNL     1       2.566   8.279  17.610  0.00  0.00    +0.000 A 
ATOM     24  C   UNL     1       2.684   7.252  18.542  0.00  0.00    +0.000 A 
ATOM     25  C   UNL     1       2.083   7.376  19.790  0.00  0.00    +0.000 A 
ATOM     26  C   UNL     1       1.329   8.512  20.093  0.00  0.00    +0.000 A 
ENDBRANCH  14  21
ENDBRANCH  12  14
ENDBRANCH   4  10
BRANCH   1  27
ATOM     27  C   UNL     1       4.645  14.575  22.012  0.00  0.00    +0.000 C 
BRANCH  27  28
ATOM     28  N   UNL     1       5.551  15.625  21.517  0.00  0.00    +0.000 N 
ATOM     29  C   UNL     1       6.090  15.610  20.245  0.00  0.00    +0.000 C 
ATOM     30  O   UNL     1       5.686  14.853  19.363  0.00  0.00    +0.000 OA
ATOM     31  H   UNL     1       6.091  16.099  22.237  0.00  0.00    +0.000 HD
BRANCH  29  32
ATOM     32  C   UNL     1       7.261  16.604  20.049  0.00  0.00    +0.000 C 
ATOM     33  C   UNL     1       7.335  17.080  18.606  0.00  0.00    +0.000 C 
BRANCH  32  34
ATOM     34  N   UNL     1       8.554  15.987  20.419  0.00  0.00    +0.000 NA
ATOM     35  H   UNL     1       9.273  16.341  19.784  0.00  0.00    +0.000 HD
ATOM     36  H   UNL     1       8.509  14.987  20.210  0.00  0.00    +0.000 HD
ENDBRANCH  32  34
ENDBRANCH  29  32
ENDBRANCH  27  28
BRANCH  27  38
ATOM     37  C   UNL     1       5.990  15.000  24.151  0.00  0.00    +0.000 C 
ATOM     38  C   UNL     1       5.254  13.964  23.304  0.00  0.00    +0.000 C 
ATOM     39  C   UNL     1       6.095  12.702  23.064  0.00  0.00    +0.000 C 
ENDBRANCH  27  38
ENDBRANCH   1  27
TORSDOF 9
ENDMDL
MODEL 3
REMARK VINA RESULT:      -5.8      3.329      7.606
REMARK  Name = 
REMARK  14 active torsions:
REMARK  status: ('A' for Active; 'I' for Inactive)
REMARK    1  A    between atoms: C_1  and  C_2
REMARK    2  A    between atoms: C_2  and  C_3
REMARK    3  A    between atoms: C_2  and  C_4
REMARK    4  A    between atoms: C_4  and  N_5
REMARK    5  A    between atoms: C_4  and  C_11
REMARK    6  A    between atoms: C_6  and  C_8
REMARK    7  A    between atoms: C_8  and  C_9
REMARK    8  A    between atoms: C_8  and  N_10
REMARK    9  A    between atoms: C_14  and  C_15
REMARK   10  A    between atoms: N_17  and  C_18
REMARK   11  A    between atoms: C_18  and  C_19
REMARK   12  A    between atoms: C_18  and  C_25
REMARK   13  A    between atoms: C_33  and  C_34
REMARK   14  A    between atoms: C_33  and  C_35
REMARK                            x       y       z     vdW  Elec       q    Type
REMARK                         _______ _______ _______ _____ _____    ______ ____
ROOT
ATOM      1  C   UNL     1       1.614  15.368  21.556  0.00  0.00    +0.000 C 
ATOM      2  O   UNL     1       2.290  15.329  22.576  0.00  0.00    +0.000 OA
ATOM      3  N   UNL     1       0.247  15.666  21.599  0.00  0.00    +0.000 N 
ATOM      4  C   UNL     1      -0.671  15.576  20.444  0.00  0.00    +0.000 C 
ATOM      5  C   UNL     1      -1.481  16.863  20.444  0.00  0.00    +0.000 C 
ATOM      6  S   UNL     1      -1.895  17.126  22.184  0.00  0.00    +0.000 S 
ATOM      7  C   UNL     1      -0.459  16.130  22.829  0.00  0.00    +0.000 C 
ATOM      8  C   UNL     1      -1.039  14.981  23.667  0.00  0.00    +0.000 C 
ATOM      9  C   UNL     1       0.299  17.122  23.722  0.00  0.00    +0.000 C 
ENDROOT
BRANCH   4  10
ATOM     10  C   UNL     1      -1.594  14.323  20.481  0.00  0.00    +0.000 C 
ATOM     11  O   UNL     1      -2.794  14.399  20.735  0.00  0.00    +0.000 OA
ATOM     12  N   UNL     1      -1.004  13.133  20.101  0.00  0.00    +0.000 N 
ATOM     13  H   UNL     1       0.002  13.080  20.053  0.00  0.00    +0.000 HD
BRANCH  12  14
ATOM     14  C   UNL     1      -1.738  11.873  20.214  0.00  0.00    +0.000 C 
BRANCH  14  15
ATOM     15  C   UNL     1      -2.342  11.420  18.888  0.00  0.00    +0.000 A 
ATOM     16  C   UNL     1      -3.667  11.693  18.525  0.00  0.00    +0.000 A 
ATOM     17  C   UNL     1      -4.171  11.311  17.277  0.00  0.00    +0.000 A 
ATOM     18  C   UNL     1      -3.361  10.615  16.379  0.00  0.00    +0.000 A 
ATOM     19  C   UNL     1      -2.059  10.295  16.733  0.00  0.00    +0.000 A 
ATOM     20  C   UNL     1      -1.547  10.695  17.975  0.00  0.00    +0.000 A 
ENDBRANCH  14  15
BRANCH  14  21
ATOM     21  C   UNL     1      -0.876  10.825  20.919  0.00  0.00    +0.000 A 
ATOM     22  C   UNL     1      -0.885  10.750  22.323  0.00  0.00    +0.000 A 
ATOM     23  C   UNL     1      -0.012   9.893  23.000  0.00  0.00    +0.000 A 
ATOM     24  C   UNL     1       0.866   9.083  22.286  0.00  0.00    +0.000 A 
ATOM     25  C   UNL     1       0.856   9.108  20.895  0.00  0.00    +0.000 A 
ATOM     26  C   UNL     1      -0.006   9.973  20.217  0.00  0.00    +0.000 A 
ENDBRANCH  14  21
ENDBRANCH  12  14
ENDBRANCH   4  10
BRANCH   1  27
ATOM     27  C   UNL     1       2.297  15.246  20.131  0.00  0.00    +0.000 C 
BRANCH  27  28
ATOM     28  N   UNL     1       3.564  15.993  20.179  0.00  0.00    +0.000 N 
ATOM     29  C   UNL     1       4.041  16.729  19.111  0.00  0.00    +0.000 C 
ATOM     30  O   UNL     1       3.348  16.998  18.130  0.00  0.00    +0.000 OA
ATOM     31  H   UNL     1       4.258  15.620  20.823  0.00  0.00    +0.000 HD
BRANCH  29  32
ATOM     32  C   UNL     1       5.524  17.149  19.252  0.00  0.00    +0.000 C 
ATOM     33  C   UNL     1       6.354  16.023  19.851  0.00  0.00    +0.000 C 
BRANCH  32  34
ATOM     34  N   UNL     1       5.661  18.352  20.103  0.00  0.00    +0.000 NA
ATOM     35  H   UNL     1       4.801  18.461  20.645  0.00  0.00    +0.000 HD
ATOM     36  H   UNL     1       5.679  19.177  19.499  0.00  0.00    +0.000 HD
ENDBRANCH  32  34
ENDBRANCH  29  32
ENDBRANCH  27  28
BRANCH  27  38
ATOM     37  C   UNL     1       1.993  13.583  18.205  0.00  0.00    +0.000 C 
ATOM     38  C   UNL     1       2.584  13.817  19.595  0.00  0.00    +0.000 C 
ATOM     39  C   UNL     1       2.224  12.694  20.578  0.00  0.00    +0.000 C 
ENDBRANCH  27  38
ENDBRANCH   1  27
TORSDOF 9
ENDMDL
MODEL 4
REMARK VINA RESULT:      -5.7      3.100      7.774
REMARK  Name = 
REMARK  14 active torsions:
REMARK  status: ('A' for Active; 'I' for Inactive)
REMARK    1  A    between atoms: C_1  and  C_2
REMARK    2  A    between atoms: C_2  and  C_3
REMARK    3  A    between atoms: C_2  and  C_4
REMARK    4  A    between atoms: C_4  and  N_5
REMARK    5  A    between atoms: C_4  and  C_11
REMARK    6  A    between atoms: C_6  and  C_8
REMARK    7  A    between atoms: C_8  and  C_9
REMARK    8  A    between atoms: C_8  and  N_10
REMARK    9  A    between atoms: C_14  and  C_15
REMARK   10  A    between atoms: N_17  and  C_18
REMARK   11  A    between atoms: C_18  and  C_19
REMARK   12  A    between atoms: C_18  and  C_25
REMARK   13  A    between atoms: C_33  and  C_34
REMARK   14  A    between atoms: C_33  and  C_35
REMARK                            x       y       z     vdW  Elec       q    Type
REMARK                         _______ _______ _______ _____ _____    ______ ____
ROOT
ATOM      1  C   UNL     1       1.407  15.293  21.485  0.00  0.00    +0.000 C 
ATOM      2  O   UNL     1       2.023  14.863  22.451  0.00  0.00    +0.000 OA
ATOM      3  N   UNL     1       0.257  16.076  21.645  0.00  0.00    +0.000 N 
ATOM      4  C   UNL     1      -0.634  16.498  20.543  0.00  0.00    +0.000 C 
ATOM      5  C   UNL     1      -0.891  17.982  20.750  0.00  0.00    +0.000 C 
ATOM      6  S   UNL     1      -1.161  18.142  22.530  0.00  0.00    +0.000 S 
ATOM      7  C   UNL     1      -0.210  16.600  22.962  0.00  0.00    +0.000 C 
ATOM      8  C   UNL     1      -1.178  15.652  23.684  0.00  0.00    +0.000 C 
ATOM      9  C   UNL     1       0.876  17.100  23.925  0.00  0.00    +0.000 C 
ENDROOT
BRANCH   4  10
ATOM     10  C   UNL     1      -1.965  15.694  20.479  0.00  0.00    +0.000 C 
ATOM     11  O   UNL     1      -3.065  16.236  20.565  0.00  0.00    +0.000 OA
ATOM     12  N   UNL     1      -1.838  14.345  20.208  0.00  0.00    +0.000 N 
ATOM     13  H   UNL     1      -0.931  13.912  20.300  0.00  0.00    +0.000 HD
BRANCH  12  14
ATOM     14  C   UNL     1      -3.008  13.469  20.246  0.00  0.00    +0.000 C 
BRANCH  14  15
ATOM     15  C   UNL     1      -2.867  12.256  19.330  0.00  0.00    +0.000 A 
ATOM     16  C   UNL     1      -1.637  11.636  19.075  0.00  0.00    +0.000 A 
ATOM     17  C   UNL     1      -1.554  10.492  18.274  0.00  0.00    +0.000 A 
ATOM     18  C   UNL     1      -2.703   9.965  17.685  0.00  0.00    +0.000 A 
ATOM     19  C   UNL     1      -3.927  10.586  17.888  0.00  0.00    +0.000 A 
ATOM     20  C   UNL     1      -4.014  11.722  18.706  0.00  0.00    +0.000 A 
ENDBRANCH  14  15
BRANCH  14  21
ATOM     21  C   UNL     1      -3.371  13.141  21.695  0.00  0.00    +0.000 A 
ATOM     22  C   UNL     1      -2.487  12.375  22.475  0.00  0.00    +0.000 A 
ATOM     23  C   UNL     1      -2.848  11.949  23.757  0.00  0.00    +0.000 A 
ATOM     24  C   UNL     1      -4.086  12.300  24.287  0.00  0.00    +0.000 A 
ATOM     25  C   UNL     1      -4.955  13.098  23.549  0.00  0.00    +0.000 A 
ATOM     26  C   UNL     1      -4.601  13.514  22.263  0.00  0.00    +0.000 A 
ENDBRANCH  14  21
ENDBRANCH  12  14
ENDBRANCH   4  10
BRANCH   1  27
ATOM     27  C   UNL     1       1.980  15.119  20.018  0.00  0.00    +0.000 C 
BRANCH  27  28
ATOM     28  N   UNL     1       3.437  15.319  20.084  0.00  0.00    +0.000 N 
ATOM     29  C   UNL     1       4.044  16.517  19.757  0.00  0.00    +0.000 C 
ATOM     30  O   UNL     1       3.410  17.560  19.604  0.00  0.00    +0.000 OA
ATOM     31  H   UNL     1       3.992  14.476  19.956  0.00  0.00    +0.000 HD
BRANCH  29  32
ATOM     32  C   UNL     1       5.577  16.412  19.570  0.00  0.00    +0.000 C 
ATOM     33  C   UNL     1       6.269  16.135  20.897  0.00  0.00    +0.000 C 
BRANCH  32  34
ATOM     34  N   UNL     1       6.131  17.655  18.988  0.00  0.00    +0.000 NA
ATOM     35  H   UNL     1       5.518  18.432  19.248  0.00  0.00    +0.000 HD
ATOM     36  H   UNL     1       6.048  17.603  17.971  0.00  0.00    +0.000 HD
ENDBRANCH  32  34
ENDBRANCH  29  32
ENDBRANCH  27  28
BRANCH  27  38
ATOM     37  C   UNL     1       1.549  12.605  20.266  0.00  0.00    +0.000 C 
ATOM     38  C   UNL     1       1.697  13.774  19.294  0.00  0.00    +0.000 C 
ATOM     39  C   UNL     1       2.672  13.461  18.150  0.00  0.00    +0.000 C 
ENDBRANCH  27  38
ENDBRANCH   1  27
TORSDOF 9
ENDMDL
MODEL 5
REMARK VINA RESULT:      -5.7      0.821      1.319
REMARK  Name = 
REMARK  14 active torsions:
REMARK  status: ('A' for Active; 'I' for Inactive)
REMARK    1  A    between atoms: C_1  and  C_2
REMARK    2  A    between atoms: C_2  and  C_3
REMARK    3  A    between atoms: C_2  and  C_4
REMARK    4  A    between atoms: C_4  and  N_5
REMARK    5  A    between atoms: C_4  and  C_11
REMARK    6  A    between atoms: C_6  and  C_8
REMARK    7  A    between atoms: C_8  and  C_9
REMARK    8  A    between atoms: C_8  and  N_10
REMARK    9  A    between atoms: C_14  and  C_15
REMARK   10  A    between atoms: N_17  and  C_18
REMARK   11  A    between atoms: C_18  and  C_19
REMARK   12  A    between atoms: C_18  and  C_25
REMARK   13  A    between atoms: C_33  and  C_34
REMARK   14  A    between atoms: C_33  and  C_35
REMARK                            x       y       z     vdW  Elec       q    Type
REMARK                         _______ _______ _______ _____ _____    ______ ____
ROOT
ATOM      1  C   UNL     1      -1.708  12.764  22.294  0.00  0.00    +0.000 C 
ATOM      2  O   UNL     1      -1.298  12.436  23.399  0.00  0.00    +0.000 OA
ATOM      3  N   UNL     1      -1.223  12.161  21.128  0.00  0.00    +0.000 N 
ATOM      4  C   UNL     1      -1.542  12.604  19.754  0.00  0.00    +0.000 C 
ATOM      5  C   UNL     1      -1.904  11.350  18.976  0.00  0.00    +0.000 C 
ATOM      6  S   UNL     1      -0.674  10.133  19.500  0.00  0.00    +0.000 S 
ATOM      7  C   UNL     1      -0.322  10.970  21.127  0.00  0.00    +0.000 C 
ATOM      8  C   UNL     1       1.168  11.336  21.140  0.00  0.00    +0.000 C 
ATOM      9  C   UNL     1      -0.622   9.883  22.168  0.00  0.00    +0.000 C 
ENDROOT
BRANCH   4  10
ATOM     10  C   UNL     1      -0.383  13.385  19.069  0.00  0.00    +0.000 C 
ATOM     11  O   UNL     1       0.034  13.093  17.950  0.00  0.00    +0.000 OA
ATOM     12  N   UNL     1       0.075  14.497  19.749  0.00  0.00    +0.000 N 
ATOM     13  H   UNL     1      -0.175  14.613  20.720  0.00  0.00    +0.000 HD
BRANCH  12  14
ATOM     14  C   UNL     1       1.241  15.234  19.264  0.00  0.00    +0.000 C 
BRANCH  14  15
ATOM     15  C   UNL     1       0.862  16.445  18.415  0.00  0.00    +0.000 A 
ATOM     16  C   UNL     1       1.773  17.097  17.574  0.00  0.00    +0.000 A 
ATOM     17  C   UNL     1       1.377  18.169  16.768  0.00  0.00    +0.000 A 
ATOM     18  C   UNL     1       0.062  18.631  16.814  0.00  0.00    +0.000 A 
ATOM     19  C   UNL     1      -0.849  18.030  17.671  0.00  0.00    +0.000 A 
ATOM     20  C   UNL     1      -0.457  16.942  18.465  0.00  0.00    +0.000 A 
ENDBRANCH  14  15
BRANCH  14  21
ATOM     21  C   UNL     1       2.192  15.534  20.423  0.00  0.00    +0.000 A 
ATOM     22  C   UNL     1       1.749  16.326  21.497  0.00  0.00    +0.000 A 
ATOM     23  C   UNL     1       2.632  16.725  22.504  0.00  0.00    +0.000 A 
ATOM     24  C   UNL     1       3.964  16.322  22.467  0.00  0.00    +0.000 A 
ATOM     25  C   UNL     1       4.409  15.498  21.438  0.00  0.00    +0.000 A 
ATOM     26  C   UNL     1       3.532  15.109  20.424  0.00  0.00    +0.000 A 
ENDBRANCH  14  21
ENDBRANCH  12  14
ENDBRANCH   4  10
BRANCH   1  27
ATOM     27  C   UNL     1      -2.926  13.769  22.151  0.00  0.00    +0.000 C 
BRANCH  27  28
ATOM     28  N   UNL     1      -3.960  13.354  23.112  0.00  0.00    +0.000 N 
ATOM     29  C   UNL     1      -5.143  12.752  22.727  0.00  0.00    +0.000 C 
ATOM     30  O   UNL     1      -5.325  12.318  21.591  0.00  0.00    +0.000 OA
ATOM     31  H   UNL     1      -3.980  13.889  23.978  0.00  0.00    +0.000 HD
BRANCH  29  32
ATOM     32  C   UNL     1      -6.216  12.708  23.843  0.00  0.00    +0.000 C 
ATOM     33  C   UNL     1      -7.546  12.208  23.299  0.00  0.00    +0.000 C 
BRANCH  32  34
ATOM     34  N   UNL     1      -6.414  14.045  24.447  0.00  0.00    +0.000 NA
ATOM     35  H   UNL     1      -6.327  14.747  23.708  0.00  0.00    +0.000 HD
ATOM     36  H   UNL     1      -5.627  14.241  25.069  0.00  0.00    +0.000 HD
ENDBRANCH  32  34
ENDBRANCH  29  32
ENDBRANCH  27  28
BRANCH  27  38
ATOM     37  C   UNL     1      -3.410  15.871  23.534  0.00  0.00    +0.000 C 
ATOM     38  C   UNL     1      -2.635  15.280  22.357  0.00  0.00    +0.000 C 
ATOM     39  C   UNL     1      -2.775  16.126  21.084  0.00  0.00    +0.000 C 
ENDBRANCH  27  38
ENDBRANCH   1  27
TORSDOF 9
ENDMDL
MODEL 6
REMARK VINA RESULT:      -5.7      2.731      6.677
REMARK  Name = 
REMARK  14 active torsions:
REMARK  status: ('A' for Active; 'I' for Inactive)
REMARK    1  A    between atoms: C_1  and  C_2
REMARK    2  A    between atoms: C_2  and  C_3
REMARK    3  A    between atoms: C_2  and  C_4
REMARK    4  A    between atoms: C_4  and  N_5
REMARK    5  A    between atoms: C_4  and  C_11
REMARK    6  A    between atoms: C_6  and  C_8
REMARK    7  A    between atoms: C_8  and  C_9
REMARK    8  A    between atoms: C_8  and  N_10
REMARK    9  A    between atoms: C_14  and  C_15
REMARK   10  A    between atoms: N_17  and  C_18
REMARK   11  A    between atoms: C_18  and  C_19
REMARK   12  A    between atoms: C_18  and  C_25
REMARK   13  A    between atoms: C_33  and  C_34
REMARK   14  A    between atoms: C_33  and  C_35
REMARK                            x       y       z     vdW  Elec       q    Type
REMARK                         _______ _______ _______ _____ _____    ______ ____
ROOT
ATOM      1  C   UNL     1       0.134  13.808  20.992  0.00  0.00    +0.000 C 
ATOM      2  O   UNL     1       1.082  13.406  21.654  0.00  0.00    +0.000 OA
ATOM      3  N   UNL     1      -0.107  15.177  20.821  0.00  0.00    +0.000 N 
ATOM      4  C   UNL     1      -1.311  15.745  20.179  0.00  0.00    +0.000 C 
ATOM      5  C   UNL     1      -0.814  16.800  19.203  0.00  0.00    +0.000 C 
ATOM      6  S   UNL     1       0.485  17.669  20.113  0.00  0.00    +0.000 S 
ATOM      7  C   UNL     1       0.840  16.244  21.259  0.00  0.00    +0.000 C 
ATOM      8  C   UNL     1       0.584  16.733  22.691  0.00  0.00    +0.000 C 
ATOM      9  C   UNL     1       2.334  15.966  21.041  0.00  0.00    +0.000 C 
ENDROOT
BRANCH   4  10
ATOM     10  C   UNL     1      -2.330  16.344  21.192  0.00  0.00    +0.000 C 
ATOM     11  O   UNL     1      -2.834  17.454  21.038  0.00  0.00    +0.000 OA
ATOM     12  N   UNL     1      -2.719  15.503  22.218  0.00  0.00    +0.000 N 
ATOM     13  H   UNL     1      -2.177  14.673  22.401  0.00  0.00    +0.000 HD
BRANCH  12  14
ATOM     14  C   UNL     1      -3.575  15.997  23.295  0.00  0.00    +0.000 C 
BRANCH  14  15
ATOM     15  C   UNL     1      -4.781  15.097  23.551  0.00  0.00    +0.000 A 
ATOM     16  C   UNL     1      -4.678  13.706  23.676  0.00  0.00    +0.000 A 
ATOM     17  C   UNL     1      -5.796  12.919  23.966  0.00  0.00    +0.000 A 
ATOM     18  C   UNL     1      -7.052  13.510  24.104  0.00  0.00    +0.000 A 
ATOM     19  C   UNL     1      -7.188  14.881  23.942  0.00  0.00    +0.000 A 
ATOM     20  C   UNL     1      -6.064  15.674  23.671  0.00  0.00    +0.000 A 
ENDBRANCH  14  15
BRANCH  14  21
ATOM     21  C   UNL     1      -2.733  16.310  24.533  0.00  0.00    +0.000 A 
ATOM     22  C   UNL     1      -2.625  17.639  24.980  0.00  0.00    +0.000 A 
ATOM     23  C   UNL     1      -1.761  17.974  26.027  0.00  0.00    +0.000 A 
ATOM     24  C   UNL     1      -1.010  16.986  26.657  0.00  0.00    +0.000 A 
ATOM     25  C   UNL     1      -1.140  15.659  26.261  0.00  0.00    +0.000 A 
ATOM     26  C   UNL     1      -1.994  15.324  25.207  0.00  0.00    +0.000 A 
ENDBRANCH  14  21
ENDBRANCH  12  14
ENDBRANCH   4  10
BRANCH   1  27
ATOM     27  C   UNL     1      -0.762  12.794  20.167  0.00  0.00    +0.000 C 
BRANCH  27  28
ATOM     28  N   UNL     1       0.128  11.753  19.627  0.00  0.00    +0.000 N 
ATOM     29  C   UNL     1      -0.225  10.944  18.563  0.00  0.00    +0.000 C 
ATOM     30  O   UNL     1      -1.201  11.176  17.851  0.00  0.00    +0.000 OA
ATOM     31  H   UNL     1       0.790  11.366  20.296  0.00  0.00    +0.000 HD
BRANCH  29  32
ATOM     32  C   UNL     1       0.698   9.715  18.378  0.00  0.00    +0.000 C 
ATOM     33  C   UNL     1       1.175   9.186  19.722  0.00  0.00    +0.000 C 
BRANCH  32  34
ATOM     34  N   UNL     1       1.875  10.051  17.547  0.00  0.00    +0.000 NA
ATOM     35  H   UNL     1       2.257   9.182  17.165  0.00  0.00    +0.000 HD
ATOM     36  H   UNL     1       2.617  10.399  18.158  0.00  0.00    +0.000 HD
ENDBRANCH  32  34
ENDBRANCH  29  32
ENDBRANCH  27  28
BRANCH  27  38
ATOM     37  C   UNL     1      -3.301  12.614  20.457  0.00  0.00    +0.000 C 
ATOM     38  C   UNL     1      -1.936  12.104  20.914  0.00  0.00    +0.000 C 
ATOM     39  C   UNL     1      -1.795  12.107  22.443  0.00  0.00    +0.000 C 
ENDBRANCH  27  38
ENDBRANCH   1  27
TORSDOF 9
ENDMDL
MODEL 7
REMARK VINA RESULT:      -5.7      2.409      7.498
REMARK  Name = 
REMARK  14 active torsions:
REMARK  status: ('A' for Active; 'I' for Inactive)
REMARK    1  A    between atoms: C_1  and  C_2
REMARK    2  A    between atoms: C_2  and  C_3
REMARK    3  A    between atoms: C_2  and  C_4
REMARK    4  A    between atoms: C_4  and  N_5
REMARK    5  A    between atoms: C_4  and  C_11
REMARK    6  A    between atoms: C_6  and  C_8
REMARK    7  A    between atoms: C_8  and  C_9
REMARK    8  A    between atoms: C_8  and  N_10
REMARK    9  A    between atoms: C_14  and  C_15
REMARK   10  A    between atoms: N_17  and  C_18
REMARK   11  A    between atoms: C_18  and  C_19
REMARK   12  A    between atoms: C_18  and  C_25
REMARK   13  A    between atoms: C_33  and  C_34
REMARK   14  A    between atoms: C_33  and  C_35
REMARK                            x       y       z     vdW  Elec       q    Type
REMARK                         _______ _______ _______ _____ _____    ______ ____
ROOT
ATOM      1  C   UNL     1      -0.444  13.327  18.966  0.00  0.00    +0.000 C 
ATOM      2  O   UNL     1      -0.564  13.193  17.755  0.00  0.00    +0.000 OA
ATOM      3  N   UNL     1      -0.627  12.248  19.839  0.00  0.00    +0.000 N 
ATOM      4  C   UNL     1      -0.661  12.355  21.313  0.00  0.00    +0.000 C 
ATOM      5  C   UNL     1       0.238  11.247  21.840  0.00  0.00    +0.000 C 
ATOM      6  S   UNL     1      -0.172   9.817  20.812  0.00  0.00    +0.000 S 
ATOM      7  C   UNL     1      -0.799  10.837  19.385  0.00  0.00    +0.000 C 
ATOM      8  C   UNL     1      -2.266  10.448  19.154  0.00  0.00    +0.000 C 
ATOM      9  C   UNL     1       0.073  10.386  18.205  0.00  0.00    +0.000 C 
ENDROOT
BRANCH   4  10
ATOM     10  C   UNL     1      -2.095  12.255  21.910  0.00  0.00    +0.000 C 
ATOM     11  O   UNL     1      -2.340  11.611  22.928  0.00  0.00    +0.000 OA
ATOM     12  N   UNL     1      -3.058  13.026  21.287  0.00  0.00    +0.000 N 
ATOM     13  H   UNL     1      -2.861  13.411  20.375  0.00  0.00    +0.000 HD
BRANCH  12  14
ATOM     14  C   UNL     1      -4.462  12.919  21.681  0.00  0.00    +0.000 C 
BRANCH  14  15
ATOM     15  C   UNL     1      -4.990  14.191  22.339  0.00  0.00    +0.000 A 
ATOM     16  C   UNL     1      -6.081  14.910  21.835  0.00  0.00    +0.000 A 
ATOM     17  C   UNL     1      -6.572  16.041  22.496  0.00  0.00    +0.000 A 
ATOM     18  C   UNL     1      -5.955  16.493  23.662  0.00  0.00    +0.000 A 
ATOM     19  C   UNL     1      -4.846  15.823  24.158  0.00  0.00    +0.000 A 
ATOM     20  C   UNL     1      -4.365  14.678  23.507  0.00  0.00    +0.000 A 
ENDBRANCH  14  15
BRANCH  14  21
ATOM     21  C   UNL     1      -5.299  12.408  20.509  0.00  0.00    +0.000 A 
ATOM     22  C   UNL     1      -4.921  12.730  19.193  0.00  0.00    +0.000 A 
ATOM     23  C   UNL     1      -5.735  12.389  18.109  0.00  0.00    +0.000 A 
ATOM     24  C   UNL     1      -6.927  11.702  18.320  0.00  0.00    +0.000 A 
ATOM     25  C   UNL     1      -7.294  11.331  19.609  0.00  0.00    +0.000 A 
ATOM     26  C   UNL     1      -6.489  11.682  20.695  0.00  0.00    +0.000 A 
ENDBRANCH  14  21
ENDBRANCH  12  14
ENDBRANCH   4  10
BRANCH   1  27
ATOM     27  C   UNL     1       0.085  14.689  19.579  0.00  0.00    +0.000 C 
BRANCH  27  28
ATOM     28  N   UNL     1       1.254  15.108  18.789  0.00  0.00    +0.000 N 
ATOM     29  C   UNL     1       2.549  14.757  19.122  0.00  0.00    +0.000 C 
ATOM     30  O   UNL     1       2.806  13.895  19.962  0.00  0.00    +0.000 OA
ATOM     31  H   UNL     1       1.134  15.977  18.274  0.00  0.00    +0.000 HD
BRANCH  29  32
ATOM     32  C   UNL     1       3.631  15.568  18.368  0.00  0.00    +0.000 C 
ATOM     33  C   UNL     1       2.996  16.602  17.450  0.00  0.00    +0.000 C 
BRANCH  32  34
ATOM     34  N   UNL     1       4.502  14.681  17.565  0.00  0.00    +0.000 NA
ATOM     35  H   UNL     1       4.797  15.191  16.730  0.00  0.00    +0.000 HD
ATOM     36  H   UNL     1       3.935  13.913  17.199  0.00  0.00    +0.000 HD
ENDBRANCH  32  34
ENDBRANCH  29  32
ENDBRANCH  27  28
BRANCH  27  38
ATOM     37  C   UNL     1      -0.566  16.996  18.676  0.00  0.00    +0.000 C 
ATOM     38  C   UNL     1      -0.913  15.876  19.655  0.00  0.00    +0.000 C 
ATOM     39  C   UNL     1      -1.158  16.400  21.077  0.00  0.00    +0.000 C 
ENDBRANCH  27  38
ENDBRANCH   1  27
TORSDOF 9
ENDMDL
MODEL 8
REMARK VINA RESULT:      -5.7      8.188     11.089
REMARK  Name = 
REMARK  14 active torsions:
REMARK  status: ('A' for Active; 'I' for Inactive)
REMARK    1  A    between atoms: C_1  and  C_2
REMARK    2  A    between atoms: C_2  and  C_3
REMARK    3  A    between atoms: C_2  and  C_4
REMARK    4  A    between atoms: C_4  and  N_5
REMARK    5  A    between atoms: C_4  and  C_11
REMARK    6  A    between atoms: C_6  and  C_8
REMARK    7  A    between atoms: C_8  and  C_9
REMARK    8  A    between atoms: C_8  and  N_10
REMARK    9  A    between atoms: C_14  and  C_15
REMARK   10  A    between atoms: N_17  and  C_18
REMARK   11  A    between atoms: C_18  and  C_19
REMARK   12  A    between atoms: C_18  and  C_25
REMARK   13  A    between atoms: C_33  and  C_34
REMARK   14  A    between atoms: C_33  and  C_35
REMARK                            x       y       z     vdW  Elec       q    Type
REMARK                         _______ _______ _______ _____ _____    ______ ____
ROOT
ATOM      1  C   UNL     1       2.069   5.212  20.452  0.00  0.00    +0.000 C 
ATOM      2  O   UNL     1       1.903   5.077  21.657  0.00  0.00    +0.000 OA
ATOM      3  N   UNL     1       2.418   4.127  19.639  0.00  0.00    +0.000 N 
ATOM      4  C   UNL     1       2.792   4.230  18.212  0.00  0.00    +0.000 C 
ATOM      5  C   UNL     1       2.009   3.147  17.488  0.00  0.00    +0.000 C 
ATOM      6  S   UNL     1       2.133   1.708  18.575  0.00  0.00    +0.000 S 
ATOM      7  C   UNL     1       2.442   2.712  20.114  0.00  0.00    +0.000 C 
ATOM      8  C   UNL     1       3.806   2.283  20.673  0.00  0.00    +0.000 C 
ATOM      9  C   UNL     1       1.311   2.287  21.060  0.00  0.00    +0.000 C 
ENDROOT
BRANCH   4  10
ATOM     10  C   UNL     1       4.322   4.090  17.961  0.00  0.00    +0.000 C 
ATOM     11  O   UNL     1       5.079   3.577  18.782  0.00  0.00    +0.000 OA
ATOM     12  N   UNL     1       4.761   4.478  16.709  0.00  0.00    +0.000 N 
ATOM     13  H   UNL     1       4.151   5.033  16.128  0.00  0.00    +0.000 HD
BRANCH  12  14
ATOM     14  C   UNL     1       6.191   4.508  16.403  0.00  0.00    +0.000 C 
BRANCH  14  15
ATOM     15  C   UNL     1       6.474   4.471  14.903  0.00  0.00    +0.000 A 
ATOM     16  C   UNL     1       7.518   5.192  14.310  0.00  0.00    +0.000 A 
ATOM     17  C   UNL     1       7.783   5.091  12.941  0.00  0.00    +0.000 A 
ATOM     18  C   UNL     1       6.981   4.287  12.130  0.00  0.00    +0.000 A 
ATOM     19  C   UNL     1       5.914   3.596  12.687  0.00  0.00    +0.000 A 
ATOM     20  C   UNL     1       5.660   3.682  14.063  0.00  0.00    +0.000 A 
ENDBRANCH  14  15
BRANCH  14  21
ATOM     21  C   UNL     1       6.866   5.654  17.156  0.00  0.00    +0.000 A 
ATOM     22  C   UNL     1       6.774   6.964  16.653  0.00  0.00    +0.000 A 
ATOM     23  C   UNL     1       7.487   8.010  17.245  0.00  0.00    +0.000 A 
ATOM     24  C   UNL     1       8.284   7.770  18.361  0.00  0.00    +0.000 A 
ATOM     25  C   UNL     1       8.350   6.490  18.902  0.00  0.00    +0.000 A 
ATOM     26  C   UNL     1       7.648   5.441  18.304  0.00  0.00    +0.000 A 
ENDBRANCH  14  21
ENDBRANCH  12  14
ENDBRANCH   4  10
BRANCH   1  27
ATOM     27  C   UNL     1       1.731   6.587  19.740  0.00  0.00    +0.000 C 
BRANCH  27  28
ATOM     28  N   UNL     1       1.765   7.640  20.768  0.00  0.00    +0.000 N 
ATOM     29  C   UNL     1       0.621   8.209  21.294  0.00  0.00    +0.000 C 
ATOM     30  O   UNL     1      -0.499   7.733  21.114  0.00  0.00    +0.000 OA
ATOM     31  H   UNL     1       2.602   8.218  20.763  0.00  0.00    +0.000 HD
BRANCH  29  32
ATOM     32  C   UNL     1       0.879   9.508  22.096  0.00  0.00    +0.000 C 
ATOM     33  C   UNL     1       0.915  10.718  21.175  0.00  0.00    +0.000 C 
BRANCH  32  34
ATOM     34  N   UNL     1       2.156   9.431  22.841  0.00  0.00    +0.000 NA
ATOM     35  H   UNL     1       2.904   9.226  22.174  0.00  0.00    +0.000 HD
ATOM     36  H   UNL     1       2.131   8.608  23.446  0.00  0.00    +0.000 HD
ENDBRANCH  32  34
ENDBRANCH  29  32
ENDBRANCH  27  28
BRANCH  27  38
ATOM     37  C   UNL     1       4.100   7.183  18.967  0.00  0.00    +0.000 C 
ATOM     38  C   UNL     1       2.638   7.022  18.556  0.00  0.00    +0.000 C 
ATOM     39  C   UNL     1       2.113   8.237  17.778  0.00  0.00    +0.000 C 
ENDBRANCH  27  38
ENDBRANCH   1  27
TORSDOF 9
ENDMDL
MODEL 9
REMARK VINA RESULT:      -5.7      3.307      7.631
REMARK  Name = 
REMARK  14 active torsions:
REMARK  status: ('A' for Active; 'I' for Inactive)
REMARK    1  A    between atoms: C_1  and  C_2
REMARK    2  A    between atoms: C_2  and  C_3
REMARK    3  A    between atoms: C_2  and  C_4
REMARK    4  A    between atoms: C_4  and  N_5
REMARK    5  A    between atoms: C_4  and  C_11
REMARK    6  A    between atoms: C_6  and  C_8
REMARK    7  A    between atoms: C_8  and  C_9
REMARK    8  A    between atoms: C_8  and  N_10
REMARK    9  A    between atoms: C_14  and  C_15
REMARK   10  A    between atoms: N_17  and  C_18
REMARK   11  A    between atoms: C_18  and  C_19
REMARK   12  A    between atoms: C_18  and  C_25
REMARK   13  A    between atoms: C_33  and  C_34
REMARK   14  A    between atoms: C_33  and  C_35
REMARK                            x       y       z     vdW  Elec       q    Type
REMARK                         _______ _______ _______ _____ _____    ______ ____
ROOT
ATOM      1  C   UNL     1       1.319  15.008  21.557  0.00  0.00    +0.000 C 
ATOM      2  O   UNL     1       1.950  14.976  22.605  0.00  0.00    +0.000 OA
ATOM      3  N   UNL     1      -0.079  15.075  21.550  0.00  0.00    +0.000 N 
ATOM      4  C   UNL     1      -0.922  14.955  20.341  0.00  0.00    +0.000 C 
ATOM      5  C   UNL     1      -1.934  16.087  20.415  0.00  0.00    +0.000 C 
ATOM      6  S   UNL     1      -2.457  16.103  22.146  0.00  0.00    +0.000 S 
ATOM      7  C   UNL     1      -0.902  15.292  22.776  0.00  0.00    +0.000 C 
ATOM      8  C   UNL     1      -1.316  13.987  23.469  0.00  0.00    +0.000 C 
ATOM      9  C   UNL     1      -0.356  16.298  23.799  0.00  0.00    +0.000 C 
ENDROOT
BRANCH   4  10
ATOM     10  C   UNL     1      -1.625  13.572  20.210  0.00  0.00    +0.000 C 
ATOM     11  O   UNL     1      -2.808  13.407  20.498  0.00  0.00    +0.000 OA
ATOM     12  N   UNL     1      -0.866  12.566  19.644  0.00  0.00    +0.000 N 
ATOM     13  H   UNL     1       0.133  12.691  19.568  0.00  0.00    +0.000 HD
BRANCH  12  14
ATOM     14  C   UNL     1      -1.377  11.197  19.583  0.00  0.00    +0.000 C 
BRANCH  14  15
ATOM     15  C   UNL     1      -2.099  10.894  18.273  0.00  0.00    +0.000 A 
ATOM     16  C   UNL     1      -2.000  11.717  17.143  0.00  0.00    +0.000 A 
ATOM     17  C   UNL     1      -2.631  11.378  15.942  0.00  0.00    +0.000 A 
ATOM     18  C   UNL     1      -3.404  10.221  15.860  0.00  0.00    +0.000 A 
ATOM     19  C   UNL     1      -3.553   9.412  16.977  0.00  0.00    +0.000 A 
ATOM     20  C   UNL     1      -2.905   9.740  18.177  0.00  0.00    +0.000 A 
ENDBRANCH  14  15
BRANCH  14  21
ATOM     21  C   UNL     1      -0.271  10.207  19.951  0.00  0.00    +0.000 A 
ATOM     22  C   UNL     1       0.635   9.780  18.963  0.00  0.00    +0.000 A 
ATOM     23  C   UNL     1       1.572   8.780  19.236  0.00  0.00    +0.000 A 
ATOM     24  C   UNL     1       1.635   8.207  20.503  0.00  0.00    +0.000 A 
ATOM     25  C   UNL     1       0.780   8.650  21.506  0.00  0.00    +0.000 A 
ATOM     26  C   UNL     1      -0.166   9.641  21.233  0.00  0.00    +0.000 A 
ENDBRANCH  14  21
ENDBRANCH  12  14
ENDBRANCH   4  10
BRANCH   1  27
ATOM     27  C   UNL     1       2.069  15.143  20.167  0.00  0.00    +0.000 C 
BRANCH  27  28
ATOM     28  N   UNL     1       3.253  15.991  20.381  0.00  0.00    +0.000 N 
ATOM     29  C   UNL     1       3.806  16.771  19.383  0.00  0.00    +0.000 C 
ATOM     30  O   UNL     1       3.230  16.990  18.318  0.00  0.00    +0.000 OA
ATOM     31  H   UNL     1       3.883  15.670  21.112  0.00  0.00    +0.000 HD
BRANCH  29  32
ATOM     32  C   UNL     1       5.218  17.310  19.719  0.00  0.00    +0.000 C 
ATOM     33  C   UNL     1       5.970  16.340  20.618  0.00  0.00    +0.000 C 
BRANCH  32  34
ATOM     34  N   UNL     1       5.142  18.628  20.388  0.00  0.00    +0.000 NA
ATOM     35  H   UNL     1       4.194  18.748  20.754  0.00  0.00    +0.000 HD
ATOM     36  H   UNL     1       5.228  19.359  19.679  0.00  0.00    +0.000 HD
ENDBRANCH  32  34
ENDBRANCH  29  32
ENDBRANCH  27  28
BRANCH  27  38
ATOM     37  C   UNL     1       1.899  13.666  18.080  0.00  0.00    +0.000 C 
ATOM     38  C   UNL     1       2.519  13.831  19.466  0.00  0.00    +0.000 C 
ATOM     39  C   UNL     1       2.359  12.572  20.330  0.00  0.00    +0.000 C 
ENDBRANCH  27  38
ENDBRANCH   1  27
TORSDOF 9
ENDMDL
