MODEL 1
REMARK VINA RESULT:      -7.0      0.000      0.000
REMARK  Name = 
REMARK  3 active torsions:
REMARK  status: ('A' for Active; 'I' for Inactive)
REMARK    1  A    between atoms: C_2  and  C_3
REMARK    2  A    between atoms: C_7  and  C_9
REMARK    3  A    between atoms: C_17  and  C_18
REMARK                            x       y       z     vdW  Elec       q    Type
REMARK                         _______ _______ _______ _____ _____    ______ ____
ROOT
ATOM      1  C   UNL     1       6.693   5.519  18.253  0.00  0.00    +0.000 A 
ATOM      2  N   UNL     1       7.512   6.215  19.116  0.00  0.00    +0.000 NA
ATOM      3  C   UNL     1       7.961   7.230  18.416  0.00  0.00    +0.000 A 
ATOM      4  N   UNL     1       8.771   8.216  18.910  0.00  0.00    +0.000 N 
ATOM      5  C   UNL     1       8.642   9.523  18.488  0.00  0.00    +0.000 C 
ATOM      6  O   UNL     1       7.836   9.888  17.634  0.00  0.00    +0.000 OA
ATOM      7  N   UNL     1       7.545   7.158  17.108  0.00  0.00    +0.000 N 
ATOM      8  C   UNL     1       6.781   6.026  16.978  0.00  0.00    +0.000 A 
ATOM      9  H   UNL     1       9.232   8.013  19.790  0.00  0.00    +0.000 HD
ATOM     10  H   UNL     1       7.812   7.810  16.381  0.00  0.00    +0.000 HD
ENDROOT
BRANCH   5  11
ATOM     11  C   UNL     1       9.519  10.532  19.150  0.00  0.00    +0.000 A 
ATOM     12  C   UNL     1       9.327  10.810  20.512  0.00  0.00    +0.000 A 
ATOM     13  C   UNL     1      10.076  11.810  21.143  0.00  0.00    +0.000 A 
ATOM     14  C   UNL     1      11.023  12.536  20.423  0.00  0.00    +0.000 A 
ATOM     15  C   UNL     1      11.236  12.251  19.075  0.00  0.00    +0.000 A 
ATOM     16  C   UNL     1      10.492  11.252  18.451  0.00  0.00    +0.000 A 
ATOM     17  F   UNL     1      10.733  11.007  17.154  0.00  0.00    +0.000 F 
ENDBRANCH   5  11
BRANCH   1  19
ATOM     18  N   UNL     1       5.235   3.530  19.046  0.00  0.00    +0.000 NA
ATOM     19  C   UNL     1       5.891   4.426  18.713  0.00  0.00    +0.000 C 
ENDBRANCH   1  19
BRANCH   8  20
ATOM     20  C   UNL     1       6.235   5.536  15.767  0.00  0.00    +0.000 C 
ATOM     21  N   UNL     1       5.827   5.119  14.767  0.00  0.00    +0.000 NA
ENDBRANCH   8  20
TORSDOF 3
ENDMDL
MODEL 2
REMARK VINA RESULT:      -6.8      1.093      1.551
REMARK  Name = 
REMARK  3 active torsions:
REMARK  status: ('A' for Active; 'I' for Inactive)
REMARK    1  A    between atoms: C_2  and  C_3
REMARK    2  A    between atoms: C_7  and  C_9
REMARK    3  A    between atoms: C_17  and  C_18
REMARK                            x       y       z     vdW  Elec       q    Type
REMARK                         _______ _______ _______ _____ _____    ______ ____
ROOT
ATOM      1  C   UNL     1       6.716   5.707  18.333  0.00  0.00    +0.000 A 
ATOM      2  N   UNL     1       7.631   6.399  19.096  0.00  0.00    +0.000 NA
ATOM      3  C   UNL     1       7.998   7.415  18.352  0.00  0.00    +0.000 A 
ATOM      4  N   UNL     1       8.863   8.397  18.751  0.00  0.00    +0.000 N 
ATOM      5  C   UNL     1       8.689   9.707  18.352  0.00  0.00    +0.000 C 
ATOM      6  O   UNL     1       7.790  10.076  17.599  0.00  0.00    +0.000 OA
ATOM      7  N   UNL     1       7.432   7.348  17.101  0.00  0.00    +0.000 N 
ATOM      8  C   UNL     1       6.656   6.219  17.058  0.00  0.00    +0.000 A 
ATOM      9  H   UNL     1       9.423   8.191  19.571  0.00  0.00    +0.000 HD
ATOM     10  H   UNL     1       7.615   8.003  16.350  0.00  0.00    +0.000 HD
ENDROOT
BRANCH   5  11
ATOM     11  C   UNL     1       9.640  10.711  18.911  0.00  0.00    +0.000 A 
ATOM     12  C   UNL     1      10.604  11.279  18.065  0.00  0.00    +0.000 A 
ATOM     13  C   UNL     1      11.563  12.161  18.575  0.00  0.00    +0.000 A 
ATOM     14  C   UNL     1      11.566  12.484  19.932  0.00  0.00    +0.000 A 
ATOM     15  C   UNL     1      10.599  11.941  20.775  0.00  0.00    +0.000 A 
ATOM     16  C   UNL     1       9.642  11.068  20.262  0.00  0.00    +0.000 A 
ATOM     17  F   UNL     1       8.727  10.572  21.108  0.00  0.00    +0.000 F 
ENDBRANCH   5  11
BRANCH   1  19
ATOM     18  N   UNL     1       5.365   3.713  19.284  0.00  0.00    +0.000 NA
ATOM     19  C   UNL     1       5.970   4.615  18.879  0.00  0.00    +0.000 C 
ENDBRANCH   1  19
BRANCH   8  20
ATOM     20  C   UNL     1       5.971   5.734  15.917  0.00  0.00    +0.000 C 
ATOM     21  N   UNL     1       5.378   5.325  15.011  0.00  0.00    +0.000 NA
ENDBRANCH   8  20
TORSDOF 3
ENDMDL
MODEL 3
REMARK VINA RESULT:      -6.7      7.556      9.639
REMARK  Name = 
REMARK  3 active torsions:
REMARK  status: ('A' for Active; 'I' for Inactive)
REMARK    1  A    between atoms: C_2  and  C_3
REMARK    2  A    between atoms: C_7  and  C_9
REMARK    3  A    between atoms: C_17  and  C_18
REMARK                            x       y       z     vdW  Elec       q    Type
REMARK                         _______ _______ _______ _____ _____    ______ ____
ROOT
ATOM      1  C   UNL     1       1.132   9.351  20.051  0.00  0.00    +0.000 A 
ATOM      2  N   UNL     1       1.777   8.443  19.240  0.00  0.00    +0.000 NA
ATOM      3  C   UNL     1       1.887   7.355  19.965  0.00  0.00    +0.000 A 
ATOM      4  N   UNL     1       2.423   6.177  19.521  0.00  0.00    +0.000 N 
ATOM      5  C   UNL     1       1.915   4.962  19.933  0.00  0.00    +0.000 C 
ATOM      6  O   UNL     1       0.990   4.847  20.735  0.00  0.00    +0.000 OA
ATOM      7  N   UNL     1       1.430   7.560  21.245  0.00  0.00    +0.000 N 
ATOM      8  C   UNL     1       1.001   8.860  21.329  0.00  0.00    +0.000 A 
ATOM      9  H   UNL     1       2.974   6.231  18.672  0.00  0.00    +0.000 HD
ATOM     10  H   UNL     1       1.464   6.871  21.986  0.00  0.00    +0.000 HD
ENDROOT
BRANCH   5  11
ATOM     11  C   UNL     1       2.518   3.741  19.325  0.00  0.00    +0.000 A 
ATOM     12  C   UNL     1       3.458   3.007  20.065  0.00  0.00    +0.000 A 
ATOM     13  C   UNL     1       4.104   1.905  19.493  0.00  0.00    +0.000 A 
ATOM     14  C   UNL     1       3.817   1.526  18.182  0.00  0.00    +0.000 A 
ATOM     15  C   UNL     1       2.869   2.237  17.448  0.00  0.00    +0.000 A 
ATOM     16  C   UNL     1       2.224   3.330  18.022  0.00  0.00    +0.000 A 
ATOM     17  F   UNL     1       1.315   3.983  17.282  0.00  0.00    +0.000 F 
ENDBRANCH   5  11
BRANCH   1  19
ATOM     18  N   UNL     1       0.323  11.649  19.171  0.00  0.00    +0.000 NA
ATOM     19  C   UNL     1       0.690  10.614  19.543  0.00  0.00    +0.000 C 
ENDBRANCH   1  19
BRANCH   8  20
ATOM     20  C   UNL     1       0.539   9.501  22.503  0.00  0.00    +0.000 C 
ATOM     21  N   UNL     1       0.121  10.011  23.454  0.00  0.00    +0.000 NA
ENDBRANCH   8  20
TORSDOF 3
ENDMDL
MODEL 4
REMARK VINA RESULT:      -6.4      6.654      8.942
REMARK  Name = 
REMARK  3 active torsions:
REMARK  status: ('A' for Active; 'I' for Inactive)
REMARK    1  A    between atoms: C_2  and  C_3
REMARK    2  A    between atoms: C_7  and  C_9
REMARK    3  A    between atoms: C_17  and  C_18
REMARK                            x       y       z     vdW  Elec       q    Type
REMARK                         _______ _______ _______ _____ _____    ______ ____
ROOT
ATOM      1  C   UNL     1       0.371   9.732  20.251  0.00  0.00    +0.000 A 
ATOM      2  N   UNL     1       1.113   9.228  19.205  0.00  0.00    +0.000 NA
ATOM      3  C   UNL     1       1.810   8.245  19.723  0.00  0.00    +0.000 A 
ATOM      4  N   UNL     1       2.648   7.428  19.014  0.00  0.00    +0.000 N 
ATOM      5  C   UNL     1       2.772   6.090  19.325  0.00  0.00    +0.000 C 
ATOM      6  O   UNL     1       2.184   5.549  20.260  0.00  0.00    +0.000 OA
ATOM      7  N   UNL     1       1.623   8.162  21.082  0.00  0.00    +0.000 N 
ATOM      8  C   UNL     1       0.748   9.155  21.441  0.00  0.00    +0.000 A 
ATOM      9  H   UNL     1       2.918   7.759  18.094  0.00  0.00    +0.000 HD
ATOM     10  H   UNL     1       2.098   7.507  21.691  0.00  0.00    +0.000 HD
ENDROOT
BRANCH   5  11
ATOM     11  C   UNL     1       3.649   5.272  18.437  0.00  0.00    +0.000 A 
ATOM     12  C   UNL     1       5.035   5.486  18.467  0.00  0.00    +0.000 A 
ATOM     13  C   UNL     1       5.877   4.795  17.588  0.00  0.00    +0.000 A 
ATOM     14  C   UNL     1       5.343   3.887  16.674  0.00  0.00    +0.000 A 
ATOM     15  C   UNL     1       3.969   3.654  16.652  0.00  0.00    +0.000 A 
ATOM     16  C   UNL     1       3.135   4.339  17.533  0.00  0.00    +0.000 A 
ATOM     17  F   UNL     1       1.820   4.080  17.480  0.00  0.00    +0.000 F 
ENDBRANCH   5  11
BRANCH   1  19
ATOM     18  N   UNL     1      -1.481  11.495  19.839  0.00  0.00    +0.000 NA
ATOM     19  C   UNL     1      -0.639  10.722  20.033  0.00  0.00    +0.000 C 
ENDBRANCH   1  19
BRANCH   8  20
ATOM     20  C   UNL     1       0.359   9.472  22.765  0.00  0.00    +0.000 C 
ATOM     21  N   UNL     1       0.081   9.748  23.854  0.00  0.00    +0.000 NA
ENDBRANCH   8  20
TORSDOF 3
ENDMDL
MODEL 5
REMARK VINA RESULT:      -6.4      7.492      9.666
REMARK  Name = 
REMARK  3 active torsions:
REMARK  status: ('A' for Active; 'I' for Inactive)
REMARK    1  A    between atoms: C_2  and  C_3
REMARK    2  A    between atoms: C_7  and  C_9
REMARK    3  A    between atoms: C_17  and  C_18
REMARK                            x       y       z     vdW  Elec       q    Type
REMARK                         _______ _______ _______ _____ _____    ______ ____
ROOT
ATOM      1  C   UNL     1       1.015   9.522  20.133  0.00  0.00    +0.000 A 
ATOM      2  N   UNL     1       1.682   8.672  19.279  0.00  0.00    +0.000 NA
ATOM      3  C   UNL     1       1.851   7.565  19.962  0.00  0.00    +0.000 A 
ATOM      4  N   UNL     1       2.428   6.427  19.467  0.00  0.00    +0.000 N 
ATOM      5  C   UNL     1       1.978   5.178  19.843  0.00  0.00    +0.000 C 
ATOM      6  O   UNL     1       1.074   4.995  20.656  0.00  0.00    +0.000 OA
ATOM      7  N   UNL     1       1.410   7.705  21.256  0.00  0.00    +0.000 N 
ATOM      8  C   UNL     1       0.929   8.981  21.394  0.00  0.00    +0.000 A 
ATOM      9  H   UNL     1       2.960   6.534  18.610  0.00  0.00    +0.000 HD
ATOM     10  H   UNL     1       1.486   6.992  21.971  0.00  0.00    +0.000 HD
ENDROOT
BRANCH   5  11
ATOM     11  C   UNL     1       2.621   4.006  19.181  0.00  0.00    +0.000 A 
ATOM     12  C   UNL     1       2.653   3.950  17.779  0.00  0.00    +0.000 A 
ATOM     13  C   UNL     1       3.174   2.827  17.127  0.00  0.00    +0.000 A 
ATOM     14  C   UNL     1       3.667   1.753  17.867  0.00  0.00    +0.000 A 
ATOM     15  C   UNL     1       3.658   1.809  19.259  0.00  0.00    +0.000 A 
ATOM     16  C   UNL     1       3.144   2.931  19.905  0.00  0.00    +0.000 A 
ATOM     17  F   UNL     1       3.160   2.945  21.246  0.00  0.00    +0.000 F 
ENDBRANCH   5  11
BRANCH   1  19
ATOM     18  N   UNL     1       0.079  11.806  19.345  0.00  0.00    +0.000 NA
ATOM     19  C   UNL     1       0.511  10.783  19.679  0.00  0.00    +0.000 C 
ENDBRANCH   1  19
BRANCH   8  20
ATOM     20  C   UNL     1       0.462   9.559  22.599  0.00  0.00    +0.000 C 
ATOM     21  N   UNL     1       0.047  10.005  23.584  0.00  0.00    +0.000 NA
ENDBRANCH   8  20
TORSDOF 3
ENDMDL
MODEL 6
REMARK VINA RESULT:      -6.3      6.143      7.285
REMARK  Name = 
REMARK  3 active torsions:
REMARK  status: ('A' for Active; 'I' for Inactive)
REMARK    1  A    between atoms: C_2  and  C_3
REMARK    2  A    between atoms: C_7  and  C_9
REMARK    3  A    between atoms: C_17  and  C_18
REMARK                            x       y       z     vdW  Elec       q    Type
REMARK                         _______ _______ _______ _____ _____    ______ ____
ROOT
ATOM      1  C   UNL     1       3.700   3.829  18.861  0.00  0.00    +0.000 A 
ATOM      2  N   UNL     1       2.826   4.400  19.760  0.00  0.00    +0.000 NA
ATOM      3  C   UNL     1       3.015   5.693  19.645  0.00  0.00    +0.000 A 
ATOM      4  N   UNL     1       2.305   6.645  20.325  0.00  0.00    +0.000 N 
ATOM      5  C   UNL     1       1.982   7.850  19.735  0.00  0.00    +0.000 C 
ATOM      6  O   UNL     1       2.327   8.168  18.599  0.00  0.00    +0.000 OA
ATOM      7  N   UNL     1       4.049   5.972  18.784  0.00  0.00    +0.000 N 
ATOM      8  C   UNL     1       4.538   4.777  18.323  0.00  0.00    +0.000 A 
ATOM      9  H   UNL     1       1.776   6.318  21.126  0.00  0.00    +0.000 HD
ATOM     10  H   UNL     1       4.398   6.902  18.584  0.00  0.00    +0.000 HD
ENDROOT
BRANCH   5  11
ATOM     11  C   UNL     1       1.134   8.782  20.534  0.00  0.00    +0.000 A 
ATOM     12  C   UNL     1       1.177   8.709  21.934  0.00  0.00    +0.000 A 
ATOM     13  C   UNL     1       0.334   9.512  22.711  0.00  0.00    +0.000 A 
ATOM     14  C   UNL     1      -0.556  10.393  22.098  0.00  0.00    +0.000 A 
ATOM     15  C   UNL     1      -0.590  10.487  20.708  0.00  0.00    +0.000 A 
ATOM     16  C   UNL     1       0.255   9.690  19.938  0.00  0.00    +0.000 A 
ATOM     17  F   UNL     1       0.192   9.817  18.604  0.00  0.00    +0.000 F 
ENDBRANCH   5  11
BRANCH   1  19
ATOM     18  N   UNL     1       3.601   1.287  18.372  0.00  0.00    +0.000 NA
ATOM     19  C   UNL     1       3.667   2.424  18.586  0.00  0.00    +0.000 C 
ENDBRANCH   1  19
BRANCH   8  20
ATOM     20  C   UNL     1       5.666   4.618  17.482  0.00  0.00    +0.000 C 
ATOM     21  N   UNL     1       6.562   4.496  16.759  0.00  0.00    +0.000 NA
ENDBRANCH   8  20
TORSDOF 3
ENDMDL
MODEL 7
REMARK VINA RESULT:      -6.3      6.295      7.585
REMARK  Name = 
REMARK  3 active torsions:
REMARK  status: ('A' for Active; 'I' for Inactive)
REMARK    1  A    between atoms: C_2  and  C_3
REMARK    2  A    between atoms: C_7  and  C_9
REMARK    3  A    between atoms: C_17  and  C_18
REMARK                            x       y       z     vdW  Elec       q    Type
REMARK                         _______ _______ _______ _____ _____    ______ ____
ROOT
ATOM      1  C   UNL     1       3.066   3.754  19.616  0.00  0.00    +0.000 A 
ATOM      2  N   UNL     1       3.583   3.128  18.504  0.00  0.00    +0.000 NA
ATOM      3  C   UNL     1       3.757   4.085  17.623  0.00  0.00    +0.000 A 
ATOM      4  N   UNL     1       4.309   3.908  16.383  0.00  0.00    +0.000 N 
ATOM      5  C   UNL     1       5.114   4.876  15.817  0.00  0.00    +0.000 C 
ATOM      6  O   UNL     1       5.362   5.955  16.351  0.00  0.00    +0.000 OA
ATOM      7  N   UNL     1       3.276   5.285  18.088  0.00  0.00    +0.000 N 
ATOM      8  C   UNL     1       2.771   5.070  19.345  0.00  0.00    +0.000 A 
ATOM      9  H   UNL     1       4.362   2.951  16.052  0.00  0.00    +0.000 HD
ATOM     10  H   UNL     1       3.264   6.147  17.556  0.00  0.00    +0.000 HD
ENDROOT
BRANCH   5  11
ATOM     11  C   UNL     1       5.731   4.547  14.499  0.00  0.00    +0.000 A 
ATOM     12  C   UNL     1       5.001   3.783  13.577  0.00  0.00    +0.000 A 
ATOM     13  C   UNL     1       5.582   3.387  12.367  0.00  0.00    +0.000 A 
ATOM     14  C   UNL     1       6.893   3.753  12.067  0.00  0.00    +0.000 A 
ATOM     15  C   UNL     1       7.619   4.530  12.968  0.00  0.00    +0.000 A 
ATOM     16  C   UNL     1       7.035   4.927  14.169  0.00  0.00    +0.000 A 
ATOM     17  F   UNL     1       7.768   5.678  15.004  0.00  0.00    +0.000 F 
ENDBRANCH   5  11
BRANCH   1  19
ATOM     18  N   UNL     1       2.715   2.490  21.850  0.00  0.00    +0.000 NA
ATOM     19  C   UNL     1       2.894   3.050  20.850  0.00  0.00    +0.000 C 
ENDBRANCH   1  19
BRANCH   8  20
ATOM     20  C   UNL     1       2.100   6.031  20.138  0.00  0.00    +0.000 C 
ATOM     21  N   UNL     1       1.513   6.800  20.774  0.00  0.00    +0.000 NA
ENDBRANCH   8  20
TORSDOF 3
ENDMDL
MODEL 8
REMARK VINA RESULT:      -6.2      7.169      9.081
REMARK  Name = 
REMARK  3 active torsions:
REMARK  status: ('A' for Active; 'I' for Inactive)
REMARK    1  A    between atoms: C_2  and  C_3
REMARK    2  A    between atoms: C_7  and  C_9
REMARK    3  A    between atoms: C_17  and  C_18
REMARK                            x       y       z     vdW  Elec       q    Type
REMARK                         _______ _______ _______ _____ _____    ______ ____
ROOT
ATOM      1  C   UNL     1      -0.524  10.581  18.799  0.00  0.00    +0.000 A 
ATOM      2  N   UNL     1       0.106   9.809  17.848  0.00  0.00    +0.000 NA
ATOM      3  C   UNL     1       1.130   9.271  18.467  0.00  0.00    +0.000 A 
ATOM      4  N   UNL     1       2.000   8.381  17.900  0.00  0.00    +0.000 N 
ATOM      5  C   UNL     1       2.540   7.345  18.635  0.00  0.00    +0.000 C 
ATOM      6  O   UNL     1       2.315   7.167  19.830  0.00  0.00    +0.000 OA
ATOM      7  N   UNL     1       1.243   9.749  19.751  0.00  0.00    +0.000 N 
ATOM      8  C   UNL     1       0.222  10.640  19.953  0.00  0.00    +0.000 A 
ATOM      9  H   UNL     1       1.983   8.325  16.888  0.00  0.00    +0.000 HD
ATOM     10  H   UNL     1       1.989   9.505  20.392  0.00  0.00    +0.000 HD
ENDROOT
BRANCH   5  11
ATOM     11  C   UNL     1       3.411   6.383  17.899  0.00  0.00    +0.000 A 
ATOM     12  C   UNL     1       4.538   6.869  17.219  0.00  0.00    +0.000 A 
ATOM     13  C   UNL     1       5.329   6.007  16.451  0.00  0.00    +0.000 A 
ATOM     14  C   UNL     1       5.003   4.654  16.358  0.00  0.00    +0.000 A 
ATOM     15  C   UNL     1       3.898   4.159  17.048  0.00  0.00    +0.000 A 
ATOM     16  C   UNL     1       3.116   5.019  17.816  0.00  0.00    +0.000 A 
ATOM     17  F   UNL     1       2.065   4.499  18.466  0.00  0.00    +0.000 F 
ENDBRANCH   5  11
BRANCH   1  19
ATOM     18  N   UNL     1      -2.789  11.733  18.297  0.00  0.00    +0.000 NA
ATOM     19  C   UNL     1      -1.786  11.202  18.533  0.00  0.00    +0.000 C 
ENDBRANCH   1  19
BRANCH   8  20
ATOM     20  C   UNL     1       0.031  11.424  21.117  0.00  0.00    +0.000 C 
ATOM     21  N   UNL     1      -0.103  12.097  22.049  0.00  0.00    +0.000 NA
ENDBRANCH   8  20
TORSDOF 3
ENDMDL
MODEL 9
REMARK VINA RESULT:      -6.2      6.589      7.700
REMARK  Name = 
REMARK  3 active torsions:
REMARK  status: ('A' for Active; 'I' for Inactive)
REMARK    1  A    between atoms: C_2  and  C_3
REMARK    2  A    between atoms: C_7  and  C_9
REMARK    3  A    between atoms: C_17  and  C_18
REMARK                            x       y       z     vdW  Elec       q    Type
REMARK                         _______ _______ _______ _____ _____    ______ ____
ROOT
ATOM      1  C   UNL     1       2.323   5.135  20.606  0.00  0.00    +0.000 A 
ATOM      2  N   UNL     1       1.603   6.287  20.833  0.00  0.00    +0.000 NA
ATOM      3  C   UNL     1       2.083   7.163  19.982  0.00  0.00    +0.000 A 
ATOM      4  N   UNL     1       1.610   8.437  19.829  0.00  0.00    +0.000 N 
ATOM      5  C   UNL     1       1.570   9.040  18.588  0.00  0.00    +0.000 C 
ATOM      6  O   UNL     1       1.977   8.506  17.558  0.00  0.00    +0.000 OA
ATOM      7  N   UNL     1       3.152   6.649  19.287  0.00  0.00    +0.000 N 
ATOM      8  C   UNL     1       3.355   5.367  19.727  0.00  0.00    +0.000 A 
ATOM      9  H   UNL     1       1.021   8.786  20.578  0.00  0.00    +0.000 HD
ATOM     10  H   UNL     1       3.704   7.167  18.614  0.00  0.00    +0.000 HD
ENDROOT
BRANCH   5  11
ATOM     11  C   UNL     1       0.959  10.399  18.521  0.00  0.00    +0.000 A 
ATOM     12  C   UNL     1       1.796  11.524  18.564  0.00  0.00    +0.000 A 
ATOM     13  C   UNL     1       1.251  12.812  18.587  0.00  0.00    +0.000 A 
ATOM     14  C   UNL     1      -0.132  12.988  18.565  0.00  0.00    +0.000 A 
ATOM     15  C   UNL     1      -0.971  11.877  18.501  0.00  0.00    +0.000 A 
ATOM     16  C   UNL     1      -0.424  10.596  18.473  0.00  0.00    +0.000 A 
ATOM     17  F   UNL     1      -1.268   9.555  18.406  0.00  0.00    +0.000 F 
ENDBRANCH   5  11
BRANCH   1  19
ATOM     18  N   UNL     1       1.715   2.910  21.786  0.00  0.00    +0.000 NA
ATOM     19  C   UNL     1       1.969   3.903  21.244  0.00  0.00    +0.000 C 
ENDBRANCH   1  19
BRANCH   8  20
ATOM     20  C   UNL     1       4.415   4.517  19.329  0.00  0.00    +0.000 C 
ATOM     21  N   UNL     1       5.255   3.804  18.974  0.00  0.00    +0.000 NA
ENDBRANCH   8  20
TORSDOF 3
ENDMDL
