MODEL 1
REMARK VINA RESULT:      -8.0      0.000      0.000
REMARK  Name = 
REMARK  5 active torsions:
REMARK  status: ('A' for Active; 'I' for Inactive)
REMARK    1  A    between atoms: C_2  and  C_25
REMARK    2  A    between atoms: N_3  and  C_4
REMARK    3  A    between atoms: C_9  and  C_10
REMARK    4  A    between atoms: C_13  and  C_14
REMARK    5  A    between atoms: C_14  and  N_15
REMARK                            x       y       z     vdW  Elec       q    Type
REMARK                         _______ _______ _______ _____ _____    ______ ____
ROOT
ATOM      1  C   UNL     1       3.430   4.022  19.651  0.00  0.00    +0.000 A 
ATOM      2  C   UNL     1       3.642   2.769  20.258  0.00  0.00    +0.000 A 
ATOM      3  C   UNL     1       2.882   2.349  21.350  0.00  0.00    +0.000 A 
ATOM      4  C   UNL     1       1.857   3.154  21.822  0.00  0.00    +0.000 A 
ATOM      5  C   UNL     1       1.640   4.396  21.231  0.00  0.00    +0.000 A 
ATOM      6  C   UNL     1       2.456   4.886  20.185  0.00  0.00    +0.000 A 
ENDROOT
BRANCH   6   7
ATOM      7  C   UNL     1       2.243   6.265  19.747  0.00  0.00    +0.000 A 
ATOM      8  C   UNL     1       1.522   7.176  20.502  0.00  0.00    +0.000 A 
ATOM      9  N   UNL     1       1.477   8.308  19.758  0.00  0.00    +0.000 N 
ATOM     10  C   UNL     1       0.885   9.555  19.892  0.00  0.00    +0.000 A 
ATOM     11  C   UNL     1       1.243  10.342  18.856  0.00  0.00    +0.000 A 
ATOM     12  S   UNL     1       2.278   9.509  17.661  0.00  0.00    +0.000 S 
ATOM     13  C   UNL     1       2.232   8.080  18.648  0.00  0.00    +0.000 A 
ATOM     14  N   UNL     1       2.733   6.867  18.588  0.00  0.00    +0.000 NA
BRANCH  10  15
ATOM     15  C   UNL     1       0.019   9.807  21.100  0.00  0.00    +0.000 C 
BRANCH  15  16
ATOM     16  N   UNL     1       0.326  10.921  22.005  0.00  0.00    +0.000 NA
ATOM     17  C   UNL     1       0.496  12.228  21.332  0.00  0.00    +0.000 C 
ATOM     18  C   UNL     1      -0.791  12.880  20.771  0.00  0.00    +0.000 C 
ATOM     19  N   UNL     1      -1.897  12.950  21.732  0.00  0.00    +0.000 NA
ATOM     20  C   UNL     1      -2.092  11.669  22.419  0.00  0.00    +0.000 C 
ATOM     21  C   UNL     1      -0.776  11.090  22.996  0.00  0.00    +0.000 C 
ATOM     22  H   UNL     1      -2.755  13.229  21.257  0.00  0.00    +0.000 HD
ENDBRANCH  15  16
ENDBRANCH  10  15
ENDBRANCH   6   7
BRANCH   1  25
ATOM     23  O   UNL     1       3.069   3.406  16.814  0.00  0.00    +0.000 OA
ATOM     24  C   UNL     1       4.041   4.009  17.255  0.00  0.00    +0.000 C 
ATOM     25  N   UNL     1       4.237   4.420  18.562  0.00  0.00    +0.000 N 
ATOM     26  H   UNL     1       4.806   5.254  18.704  0.00  0.00    +0.000 HD
BRANCH  24  27
ATOM     27  C   UNL     1       5.123   4.383  16.318  0.00  0.00    +0.000 A 
ATOM     28  C   UNL     1       5.080   3.930  14.997  0.00  0.00    +0.000 A 
ATOM     29  C   UNL     1       6.128   4.238  14.128  0.00  0.00    +0.000 A 
ATOM     30  C   UNL     1       7.221   4.973  14.590  0.00  0.00    +0.000 A 
ATOM     31  C   UNL     1       7.272   5.403  15.918  0.00  0.00    +0.000 A 
ATOM     32  C   UNL     1       6.221   5.111  16.785  0.00  0.00    +0.000 A 
ENDBRANCH  24  27
ENDBRANCH   1  25
TORSDOF 5
ENDMDL
MODEL 2
REMARK VINA RESULT:      -7.7      6.157      8.792
REMARK  Name = 
REMARK  5 active torsions:
REMARK  status: ('A' for Active; 'I' for Inactive)
REMARK    1  A    between atoms: C_2  and  C_25
REMARK    2  A    between atoms: N_3  and  C_4
REMARK    3  A    between atoms: C_9  and  C_10
REMARK    4  A    between atoms: C_13  and  C_14
REMARK    5  A    between atoms: C_14  and  N_15
REMARK                            x       y       z     vdW  Elec       q    Type
REMARK                         _______ _______ _______ _____ _____    ______ ____
ROOT
ATOM      1  C   UNL     1      -2.707  10.309  17.537  0.00  0.00    +0.000 A 
ATOM      2  C   UNL     1      -2.033   9.845  16.391  0.00  0.00    +0.000 A 
ATOM      3  C   UNL     1      -2.583   9.979  15.116  0.00  0.00    +0.000 A 
ATOM      4  C   UNL     1      -3.797  10.628  14.959  0.00  0.00    +0.000 A 
ATOM      5  C   UNL     1      -4.475  11.088  16.085  0.00  0.00    +0.000 A 
ATOM      6  C   UNL     1      -3.984  10.882  17.395  0.00  0.00    +0.000 A 
ENDROOT
BRANCH   6   7
ATOM      7  C   UNL     1      -4.850  11.262  18.512  0.00  0.00    +0.000 A 
ATOM      8  C   UNL     1      -4.547  12.319  19.354  0.00  0.00    +0.000 A 
ATOM      9  N   UNL     1      -5.523  12.325  20.294  0.00  0.00    +0.000 N 
ATOM     10  C   UNL     1      -5.791  13.068  21.434  0.00  0.00    +0.000 A 
ATOM     11  C   UNL     1      -6.973  12.681  21.961  0.00  0.00    +0.000 A 
ATOM     12  S   UNL     1      -7.737  11.335  21.069  0.00  0.00    +0.000 S 
ATOM     13  C   UNL     1      -6.412  11.356  19.944  0.00  0.00    +0.000 A 
ATOM     14  N   UNL     1      -6.069  10.684  18.868  0.00  0.00    +0.000 NA
BRANCH  10  15
ATOM     15  C   UNL     1      -4.796  14.120  21.850  0.00  0.00    +0.000 C 
BRANCH  15  16
ATOM     16  N   UNL     1      -3.488  13.724  22.386  0.00  0.00    +0.000 NA
ATOM     17  C   UNL     1      -2.767  14.801  23.100  0.00  0.00    +0.000 C 
ATOM     18  C   UNL     1      -3.343  15.211  24.478  0.00  0.00    +0.000 C 
ATOM     19  N   UNL     1      -3.589  14.084  25.384  0.00  0.00    +0.000 NA
ATOM     20  C   UNL     1      -4.303  12.997  24.706  0.00  0.00    +0.000 C 
ATOM     21  C   UNL     1      -3.654  12.603  23.356  0.00  0.00    +0.000 C 
ATOM     22  H   UNL     1      -4.119  14.400  26.197  0.00  0.00    +0.000 HD
ENDBRANCH  15  16
ENDBRANCH  10  15
ENDBRANCH   6   7
BRANCH   1  25
ATOM     23  O   UNL     1      -0.558  11.861  18.773  0.00  0.00    +0.000 OA
ATOM     24  C   UNL     1      -1.049  10.862  19.286  0.00  0.00    +0.000 C 
ATOM     25  N   UNL     1      -2.126  10.134  18.813  0.00  0.00    +0.000 N 
ATOM     26  H   UNL     1      -2.697   9.649  19.505  0.00  0.00    +0.000 HD
BRANCH  24  27
ATOM     27  C   UNL     1      -0.480  10.372  20.560  0.00  0.00    +0.000 A 
ATOM     28  C   UNL     1       0.454   9.332  20.546  0.00  0.00    +0.000 A 
ATOM     29  C   UNL     1       0.950   8.834  21.751  0.00  0.00    +0.000 A 
ATOM     30  C   UNL     1       0.493   9.359  22.961  0.00  0.00    +0.000 A 
ATOM     31  C   UNL     1      -0.459  10.381  22.973  0.00  0.00    +0.000 A 
ATOM     32  C   UNL     1      -0.946  10.893  21.772  0.00  0.00    +0.000 A 
ENDBRANCH  24  27
ENDBRANCH   1  25
TORSDOF 5
ENDMDL
MODEL 3
REMARK VINA RESULT:      -7.7      1.196      1.560
REMARK  Name = 
REMARK  5 active torsions:
REMARK  status: ('A' for Active; 'I' for Inactive)
REMARK    1  A    between atoms: C_2  and  C_25
REMARK    2  A    between atoms: N_3  and  C_4
REMARK    3  A    between atoms: C_9  and  C_10
REMARK    4  A    between atoms: C_13  and  C_14
REMARK    5  A    between atoms: C_14  and  N_15
REMARK                            x       y       z     vdW  Elec       q    Type
REMARK                         _______ _______ _______ _____ _____    ______ ____
ROOT
ATOM      1  C   UNL     1       3.308   3.483  19.603  0.00  0.00    +0.000 A 
ATOM      2  C   UNL     1       3.402   2.289  20.344  0.00  0.00    +0.000 A 
ATOM      3  C   UNL     1       2.724   2.124  21.552  0.00  0.00    +0.000 A 
ATOM      4  C   UNL     1       1.895   3.134  22.015  0.00  0.00    +0.000 A 
ATOM      5  C   UNL     1       1.797   4.320  21.292  0.00  0.00    +0.000 A 
ATOM      6  C   UNL     1       2.546   4.549  20.114  0.00  0.00    +0.000 A 
ENDROOT
BRANCH   6   7
ATOM      7  C   UNL     1       2.491   5.886  19.523  0.00  0.00    +0.000 A 
ATOM      8  C   UNL     1       1.786   6.924  20.112  0.00  0.00    +0.000 A 
ATOM      9  N   UNL     1       1.904   7.970  19.259  0.00  0.00    +0.000 N 
ATOM     10  C   UNL     1       1.411   9.266  19.212  0.00  0.00    +0.000 A 
ATOM     11  C   UNL     1       1.924   9.909  18.141  0.00  0.00    +0.000 A 
ATOM     12  S   UNL     1       2.985   8.878  17.140  0.00  0.00    +0.000 S 
ATOM     13  C   UNL     1       2.731   7.569  18.255  0.00  0.00    +0.000 A 
ATOM     14  N   UNL     1       3.130   6.322  18.363  0.00  0.00    +0.000 NA
BRANCH  10  15
ATOM     15  C   UNL     1       0.467   9.709  20.299  0.00  0.00    +0.000 C 
BRANCH  15  16
ATOM     16  N   UNL     1       0.962  10.526  21.415  0.00  0.00    +0.000 NA
ATOM     17  C   UNL     1       0.250  11.810  21.597  0.00  0.00    +0.000 C 
ATOM     18  C   UNL     1      -1.195  11.718  22.148  0.00  0.00    +0.000 C 
ATOM     19  N   UNL     1      -1.325  10.894  23.354  0.00  0.00    +0.000 NA
ATOM     20  C   UNL     1      -0.629   9.613  23.207  0.00  0.00    +0.000 C 
ATOM     21  C   UNL     1       0.825   9.774  22.696  0.00  0.00    +0.000 C 
ATOM     22  H   UNL     1      -2.311  10.737  23.564  0.00  0.00    +0.000 HD
ENDBRANCH  15  16
ENDBRANCH  10  15
ENDBRANCH   6   7
BRANCH   1  25
ATOM     23  O   UNL     1       6.135   4.146  19.249  0.00  0.00    +0.000 OA
ATOM     24  C   UNL     1       5.350   4.022  18.316  0.00  0.00    +0.000 C 
ATOM     25  N   UNL     1       4.029   3.618  18.395  0.00  0.00    +0.000 N 
ATOM     26  H   UNL     1       3.643   3.135  17.584  0.00  0.00    +0.000 HD
BRANCH  24  27
ATOM     27  C   UNL     1       5.836   4.291  16.945  0.00  0.00    +0.000 A 
ATOM     28  C   UNL     1       7.149   4.728  16.751  0.00  0.00    +0.000 A 
ATOM     29  C   UNL     1       7.590   5.033  15.463  0.00  0.00    +0.000 A 
ATOM     30  C   UNL     1       6.712   4.924  14.383  0.00  0.00    +0.000 A 
ATOM     31  C   UNL     1       5.394   4.510  14.583  0.00  0.00    +0.000 A 
ATOM     32  C   UNL     1       4.952   4.189  15.866  0.00  0.00    +0.000 A 
ENDBRANCH  24  27
ENDBRANCH   1  25
TORSDOF 5
ENDMDL
MODEL 4
REMARK VINA RESULT:      -7.7      0.562      1.312
REMARK  Name = 
REMARK  5 active torsions:
REMARK  status: ('A' for Active; 'I' for Inactive)
REMARK    1  A    between atoms: C_2  and  C_25
REMARK    2  A    between atoms: N_3  and  C_4
REMARK    3  A    between atoms: C_9  and  C_10
REMARK    4  A    between atoms: C_13  and  C_14
REMARK    5  A    between atoms: C_14  and  N_15
REMARK                            x       y       z     vdW  Elec       q    Type
REMARK                         _______ _______ _______ _____ _____    ______ ____
ROOT
ATOM      1  C   UNL     1       3.440   3.914  19.707  0.00  0.00    +0.000 A 
ATOM      2  C   UNL     1       3.606   2.664  20.334  0.00  0.00    +0.000 A 
ATOM      3  C   UNL     1       2.807   2.273  21.408  0.00  0.00    +0.000 A 
ATOM      4  C   UNL     1       1.788   3.106  21.842  0.00  0.00    +0.000 A 
ATOM      5  C   UNL     1       1.614   4.346  21.232  0.00  0.00    +0.000 A 
ATOM      6  C   UNL     1       2.471   4.805  20.204  0.00  0.00    +0.000 A 
ENDROOT
BRANCH   6   7
ATOM      7  C   UNL     1       2.301   6.184  19.745  0.00  0.00    +0.000 A 
ATOM      8  C   UNL     1       1.834   7.187  20.578  0.00  0.00    +0.000 A 
ATOM      9  N   UNL     1       1.743   8.292  19.800  0.00  0.00    +0.000 N 
ATOM     10  C   UNL     1       1.307   9.596  19.984  0.00  0.00    +0.000 A 
ATOM     11  C   UNL     1       1.520  10.309  18.857  0.00  0.00    +0.000 A 
ATOM     12  S   UNL     1       2.212   9.338  17.527  0.00  0.00    +0.000 S 
ATOM     13  C   UNL     1       2.235   7.953  18.577  0.00  0.00    +0.000 A 
ATOM     14  N   UNL     1       2.600   6.695  18.482  0.00  0.00    +0.000 NA
BRANCH  10  15
ATOM     15  C   UNL     1       0.729   9.973  21.323  0.00  0.00    +0.000 C 
BRANCH  15  16
ATOM     16  N   UNL     1      -0.722  10.133  21.479  0.00  0.00    +0.000 NA
ATOM     17  C   UNL     1      -1.132  10.815  22.728  0.00  0.00    +0.000 C 
ATOM     18  C   UNL     1      -0.834  12.332  22.806  0.00  0.00    +0.000 C 
ATOM     19  N   UNL     1      -1.295  13.095  21.641  0.00  0.00    +0.000 NA
ATOM     20  C   UNL     1      -0.905  12.445  20.386  0.00  0.00    +0.000 C 
ATOM     21  C   UNL     1      -1.269  10.940  20.350  0.00  0.00    +0.000 C 
ATOM     22  H   UNL     1      -0.922  14.044  21.677  0.00  0.00    +0.000 HD
ENDBRANCH  15  16
ENDBRANCH  10  15
ENDBRANCH   6   7
BRANCH   1  25
ATOM     23  O   UNL     1       3.042   3.447  16.846  0.00  0.00    +0.000 OA
ATOM     24  C   UNL     1       4.061   3.942  17.314  0.00  0.00    +0.000 C 
ATOM     25  N   UNL     1       4.285   4.282  18.637  0.00  0.00    +0.000 N 
ATOM     26  H   UNL     1       4.926   5.054  18.814  0.00  0.00    +0.000 HD
BRANCH  24  27
ATOM     27  C   UNL     1       5.178   4.255  16.395  0.00  0.00    +0.000 A 
ATOM     28  C   UNL     1       6.290   4.954  16.872  0.00  0.00    +0.000 A 
ATOM     29  C   UNL     1       7.318   5.296  15.993  0.00  0.00    +0.000 A 
ATOM     30  C   UNL     1       7.218   4.961  14.642  0.00  0.00    +0.000 A 
ATOM     31  C   UNL     1       6.094   4.284  14.163  0.00  0.00    +0.000 A 
ATOM     32  C   UNL     1       5.071   3.927  15.040  0.00  0.00    +0.000 A 
ENDBRANCH  24  27
ENDBRANCH   1  25
TORSDOF 5
ENDMDL
MODEL 5
REMARK VINA RESULT:      -7.6      3.201      8.071
REMARK  Name = 
REMARK  5 active torsions:
REMARK  status: ('A' for Active; 'I' for Inactive)
REMARK    1  A    between atoms: C_2  and  C_25
REMARK    2  A    between atoms: N_3  and  C_4
REMARK    3  A    between atoms: C_9  and  C_10
REMARK    4  A    between atoms: C_13  and  C_14
REMARK    5  A    between atoms: C_14  and  N_15
REMARK                            x       y       z     vdW  Elec       q    Type
REMARK                         _______ _______ _______ _____ _____    ______ ____
ROOT
ATOM      1  C   UNL     1      -0.485   9.729  20.967  0.00  0.00    +0.000 A 
ATOM      2  C   UNL     1      -1.201  10.216  22.078  0.00  0.00    +0.000 A 
ATOM      3  C   UNL     1      -0.687  10.132  23.372  0.00  0.00    +0.000 A 
ATOM      4  C   UNL     1       0.579   9.606  23.572  0.00  0.00    +0.000 A 
ATOM      5  C   UNL     1       1.296   9.119  22.482  0.00  0.00    +0.000 A 
ATOM      6  C   UNL     1       0.759   9.106  21.174  0.00  0.00    +0.000 A 
ENDROOT
BRANCH   6   7
ATOM      7  C   UNL     1       1.529   8.427  20.131  0.00  0.00    +0.000 A 
ATOM      8  C   UNL     1       2.054   7.158  20.311  0.00  0.00    +0.000 A 
ATOM      9  N   UNL     1       2.750   6.890  19.179  0.00  0.00    +0.000 N 
ATOM     10  C   UNL     1       3.543   5.844  18.731  0.00  0.00    +0.000 A 
ATOM     11  C   UNL     1       3.933   6.081  17.461  0.00  0.00    +0.000 A 
ATOM     12  S   UNL     1       3.363   7.651  16.828  0.00  0.00    +0.000 S 
ATOM     13  C   UNL     1       2.550   7.940  18.336  0.00  0.00    +0.000 A 
ATOM     14  N   UNL     1       1.810   8.898  18.849  0.00  0.00    +0.000 NA
BRANCH  10  15
ATOM     15  C   UNL     1       3.799   4.692  19.669  0.00  0.00    +0.000 C 
BRANCH  15  16
ATOM     16  N   UNL     1       3.274   3.358  19.355  0.00  0.00    +0.000 NA
ATOM     17  C   UNL     1       3.352   2.391  20.473  0.00  0.00    +0.000 C 
ATOM     18  C   UNL     1       2.378   2.629  21.652  0.00  0.00    +0.000 C 
ATOM     19  N   UNL     1       0.981   2.818  21.247  0.00  0.00    +0.000 NA
ATOM     20  C   UNL     1       0.868   3.772  20.139  0.00  0.00    +0.000 C 
ATOM     21  C   UNL     1       1.836   3.454  18.972  0.00  0.00    +0.000 C 
ATOM     22  H   UNL     1       0.427   3.136  22.043  0.00  0.00    +0.000 HD
ENDBRANCH  15  16
ENDBRANCH  10  15
ENDBRANCH   6   7
BRANCH   1  25
ATOM     23  O   UNL     1      -0.951  12.121  19.348  0.00  0.00    +0.000 OA
ATOM     24  C   UNL     1      -1.316  10.999  19.015  0.00  0.00    +0.000 C 
ATOM     25  N   UNL     1      -1.051   9.812  19.675  0.00  0.00    +0.000 N 
ATOM     26  H   UNL     1      -1.002   8.967  19.107  0.00  0.00    +0.000 HD
BRANCH  24  27
ATOM     27  C   UNL     1      -2.095  10.854  17.766  0.00  0.00    +0.000 A 
ATOM     28  C   UNL     1      -3.269  11.592  17.594  0.00  0.00    +0.000 A 
ATOM     29  C   UNL     1      -4.032  11.415  16.439  0.00  0.00    +0.000 A 
ATOM     30  C   UNL     1      -3.633  10.485  15.477  0.00  0.00    +0.000 A 
ATOM     31  C   UNL     1      -2.472   9.731  15.664  0.00  0.00    +0.000 A 
ATOM     32  C   UNL     1      -1.698   9.915  16.808  0.00  0.00    +0.000 A 
ENDBRANCH  24  27
ENDBRANCH   1  25
TORSDOF 5
ENDMDL
MODEL 6
REMARK VINA RESULT:      -7.5      0.988      1.008
REMARK  Name = 
REMARK  5 active torsions:
REMARK  status: ('A' for Active; 'I' for Inactive)
REMARK    1  A    between atoms: C_2  and  C_25
REMARK    2  A    between atoms: N_3  and  C_4
REMARK    3  A    between atoms: C_9  and  C_10
REMARK    4  A    between atoms: C_13  and  C_14
REMARK    5  A    between atoms: C_14  and  N_15
REMARK                            x       y       z     vdW  Elec       q    Type
REMARK                         _______ _______ _______ _____ _____    ______ ____
ROOT
ATOM      1  C   UNL     1       3.270   3.541  19.637  0.00  0.00    +0.000 A 
ATOM      2  C   UNL     1       3.414   2.325  20.334  0.00  0.00    +0.000 A 
ATOM      3  C   UNL     1       2.758   2.094  21.543  0.00  0.00    +0.000 A 
ATOM      4  C   UNL     1       1.901   3.057  22.052  0.00  0.00    +0.000 A 
ATOM      5  C   UNL     1       1.752   4.264  21.373  0.00  0.00    +0.000 A 
ATOM      6  C   UNL     1       2.478   4.560  20.196  0.00  0.00    +0.000 A 
ENDROOT
BRANCH   6   7
ATOM      7  C   UNL     1       2.369   5.915  19.654  0.00  0.00    +0.000 A 
ATOM      8  C   UNL     1       1.678   6.919  20.312  0.00  0.00    +0.000 A 
ATOM      9  N   UNL     1       1.733   7.995  19.490  0.00  0.00    +0.000 N 
ATOM     10  C   UNL     1       1.215   9.282  19.512  0.00  0.00    +0.000 A 
ATOM     11  C   UNL     1       1.661   9.970  18.439  0.00  0.00    +0.000 A 
ATOM     12  S   UNL     1       2.687   8.992  17.351  0.00  0.00    +0.000 S 
ATOM     13  C   UNL     1       2.513   7.643  18.432  0.00  0.00    +0.000 A 
ATOM     14  N   UNL     1       2.939   6.401  18.478  0.00  0.00    +0.000 NA
BRANCH  10  15
ATOM     15  C   UNL     1       0.322   9.672  20.661  0.00  0.00    +0.000 C 
BRANCH  15  16
ATOM     16  N   UNL     1       0.708  10.773  21.553  0.00  0.00    +0.000 NA
ATOM     17  C   UNL     1       1.061  12.030  20.855  0.00  0.00    +0.000 C 
ATOM     18  C   UNL     1      -0.112  12.805  20.207  0.00  0.00    +0.000 C 
ATOM     19  N   UNL     1      -1.250  13.030  21.105  0.00  0.00    +0.000 NA
ATOM     20  C   UNL     1      -1.626  11.803  21.813  0.00  0.00    +0.000 C 
ATOM     21  C   UNL     1      -0.417  11.097  22.477  0.00  0.00    +0.000 C 
ATOM     22  H   UNL     1      -2.045  13.389  20.576  0.00  0.00    +0.000 HD
ENDBRANCH  15  16
ENDBRANCH  10  15
ENDBRANCH   6   7
BRANCH   1  25
ATOM     23  O   UNL     1       6.108   4.148  19.270  0.00  0.00    +0.000 OA
ATOM     24  C   UNL     1       5.300   4.115  18.348  0.00  0.00    +0.000 C 
ATOM     25  N   UNL     1       3.970   3.744  18.427  0.00  0.00    +0.000 N 
ATOM     26  H   UNL     1       3.554   3.333  17.592  0.00  0.00    +0.000 HD
BRANCH  24  27
ATOM     27  C   UNL     1       5.767   4.470  16.990  0.00  0.00    +0.000 A 
ATOM     28  C   UNL     1       4.916   4.285  15.897  0.00  0.00    +0.000 A 
ATOM     29  C   UNL     1       5.375   4.568  14.610  0.00  0.00    +0.000 A 
ATOM     30  C   UNL     1       6.686   5.010  14.421  0.00  0.00    +0.000 A 
ATOM     31  C   UNL     1       7.542   5.170  15.513  0.00  0.00    +0.000 A 
ATOM     32  C   UNL     1       7.083   4.903  16.802  0.00  0.00    +0.000 A 
ENDBRANCH  24  27
ENDBRANCH   1  25
TORSDOF 5
ENDMDL
MODEL 7
REMARK VINA RESULT:      -7.4      1.229      1.547
REMARK  Name = 
REMARK  5 active torsions:
REMARK  status: ('A' for Active; 'I' for Inactive)
REMARK    1  A    between atoms: C_2  and  C_25
REMARK    2  A    between atoms: N_3  and  C_4
REMARK    3  A    between atoms: C_9  and  C_10
REMARK    4  A    between atoms: C_13  and  C_14
REMARK    5  A    between atoms: C_14  and  N_15
REMARK                            x       y       z     vdW  Elec       q    Type
REMARK                         _______ _______ _______ _____ _____    ______ ____
ROOT
ATOM      1  C   UNL     1       3.219   3.541  19.527  0.00  0.00    +0.000 A 
ATOM      2  C   UNL     1       3.306   2.339  20.255  0.00  0.00    +0.000 A 
ATOM      3  C   UNL     1       2.606   2.155  21.447  0.00  0.00    +0.000 A 
ATOM      4  C   UNL     1       1.763   3.154  21.907  0.00  0.00    +0.000 A 
ATOM      5  C   UNL     1       1.670   4.348  21.197  0.00  0.00    +0.000 A 
ATOM      6  C   UNL     1       2.439   4.596  20.037  0.00  0.00    +0.000 A 
ENDROOT
BRANCH   6   7
ATOM      7  C   UNL     1       2.387   5.940  19.462  0.00  0.00    +0.000 A 
ATOM      8  C   UNL     1       1.953   7.037  20.188  0.00  0.00    +0.000 A 
ATOM      9  N   UNL     1       1.974   8.078  19.320  0.00  0.00    +0.000 N 
ATOM     10  C   UNL     1       1.622   9.418  19.377  0.00  0.00    +0.000 A 
ATOM     11  C   UNL     1       1.934  10.020  18.209  0.00  0.00    +0.000 A 
ATOM     12  S   UNL     1       2.616   8.898  16.998  0.00  0.00    +0.000 S 
ATOM     13  C   UNL     1       2.496   7.607  18.154  0.00  0.00    +0.000 A 
ATOM     14  N   UNL     1       2.777   6.324  18.179  0.00  0.00    +0.000 NA
BRANCH  10  15
ATOM     15  C   UNL     1       1.012   9.941  20.652  0.00  0.00    +0.000 C 
BRANCH  15  16
ATOM     16  N   UNL     1      -0.425   9.774  20.902  0.00  0.00    +0.000 NA
ATOM     17  C   UNL     1      -0.751   9.154  22.206  0.00  0.00    +0.000 C 
ATOM     18  C   UNL     1      -0.512  10.031  23.459  0.00  0.00    +0.000 C 
ATOM     19  N   UNL     1      -1.106  11.370  23.376  0.00  0.00    +0.000 NA
ATOM     20  C   UNL     1      -0.802  12.013  22.094  0.00  0.00    +0.000 C 
ATOM     21  C   UNL     1      -1.104  11.102  20.878  0.00  0.00    +0.000 C 
ATOM     22  H   UNL     1      -0.772  11.947  24.148  0.00  0.00    +0.000 HD
ENDBRANCH  15  16
ENDBRANCH  10  15
ENDBRANCH   6   7
BRANCH   1  25
ATOM     23  O   UNL     1       6.051   4.213  19.236  0.00  0.00    +0.000 OA
ATOM     24  C   UNL     1       5.283   4.103  18.287  0.00  0.00    +0.000 C 
ATOM     25  N   UNL     1       3.961   3.696  18.335  0.00  0.00    +0.000 N 
ATOM     26  H   UNL     1       3.591   3.226  17.510  0.00  0.00    +0.000 HD
BRANCH  24  27
ATOM     27  C   UNL     1       5.794   4.393  16.929  0.00  0.00    +0.000 A 
ATOM     28  C   UNL     1       4.980   4.154  15.819  0.00  0.00    +0.000 A 
ATOM     29  C   UNL     1       5.482   4.377  14.536  0.00  0.00    +0.000 A 
ATOM     30  C   UNL     1       6.798   4.812  14.369  0.00  0.00    +0.000 A 
ATOM     31  C   UNL     1       7.617   5.027  15.480  0.00  0.00    +0.000 A 
ATOM     32  C   UNL     1       7.116   4.820  16.764  0.00  0.00    +0.000 A 
ENDBRANCH  24  27
ENDBRANCH   1  25
TORSDOF 5
ENDMDL
MODEL 8
REMARK VINA RESULT:      -7.4      3.276      8.447
REMARK  Name = 
REMARK  5 active torsions:
REMARK  status: ('A' for Active; 'I' for Inactive)
REMARK    1  A    between atoms: C_2  and  C_25
REMARK    2  A    between atoms: N_3  and  C_4
REMARK    3  A    between atoms: C_9  and  C_10
REMARK    4  A    between atoms: C_13  and  C_14
REMARK    5  A    between atoms: C_14  and  N_15
REMARK                            x       y       z     vdW  Elec       q    Type
REMARK                         _______ _______ _______ _____ _____    ______ ____
ROOT
ATOM      1  C   UNL     1      -0.496   9.869  20.854  0.00  0.00    +0.000 A 
ATOM      2  C   UNL     1      -1.242  10.374  21.937  0.00  0.00    +0.000 A 
ATOM      3  C   UNL     1      -0.798  10.244  23.253  0.00  0.00    +0.000 A 
ATOM      4  C   UNL     1       0.428   9.650  23.507  0.00  0.00    +0.000 A 
ATOM      5  C   UNL     1       1.174   9.145  22.445  0.00  0.00    +0.000 A 
ATOM      6  C   UNL     1       0.704   9.181  21.111  0.00  0.00    +0.000 A 
ENDROOT
BRANCH   6   7
ATOM      7  C   UNL     1       1.490   8.480  20.096  0.00  0.00    +0.000 A 
ATOM      8  C   UNL     1       2.015   7.216  20.312  0.00  0.00    +0.000 A 
ATOM      9  N   UNL     1       2.728   6.924  19.197  0.00  0.00    +0.000 N 
ATOM     10  C   UNL     1       3.529   5.869  18.785  0.00  0.00    +0.000 A 
ATOM     11  C   UNL     1       3.937   6.079  17.515  0.00  0.00    +0.000 A 
ATOM     12  S   UNL     1       3.375   7.634  16.839  0.00  0.00    +0.000 S 
ATOM     13  C   UNL     1       2.539   7.955  18.328  0.00  0.00    +0.000 A 
ATOM     14  N   UNL     1       1.790   8.922  18.808  0.00  0.00    +0.000 NA
BRANCH  10  15
ATOM     15  C   UNL     1       3.772   4.739  19.751  0.00  0.00    +0.000 C 
BRANCH  15  16
ATOM     16  N   UNL     1       2.785   3.660  19.885  0.00  0.00    +0.000 NA
ATOM     17  C   UNL     1       2.300   3.113  18.598  0.00  0.00    +0.000 C 
ATOM     18  C   UNL     1       3.309   2.255  17.796  0.00  0.00    +0.000 C 
ATOM     19  N   UNL     1       3.954   1.197  18.582  0.00  0.00    +0.000 NA
ATOM     20  C   UNL     1       4.447   1.707  19.865  0.00  0.00    +0.000 C 
ATOM     21  C   UNL     1       3.379   2.519  20.640  0.00  0.00    +0.000 C 
ATOM     22  H   UNL     1       4.720   0.785  18.049  0.00  0.00    +0.000 HD
ENDBRANCH  15  16
ENDBRANCH  10  15
ENDBRANCH   6   7
BRANCH   1  25
ATOM     23  O   UNL     1      -2.168  12.005  19.759  0.00  0.00    +0.000 OA
ATOM     24  C   UNL     1      -1.852  11.004  19.126  0.00  0.00    +0.000 C 
ATOM     25  N   UNL     1      -0.991  10.002  19.538  0.00  0.00    +0.000 N 
ATOM     26  H   UNL     1      -0.475   9.507  18.811  0.00  0.00    +0.000 HD
BRANCH  24  27
ATOM     27  C   UNL     1      -2.400  10.829  17.763  0.00  0.00    +0.000 A 
ATOM     28  C   UNL     1      -3.531  11.553  17.375  0.00  0.00    +0.000 A 
ATOM     29  C   UNL     1      -4.080  11.348  16.109  0.00  0.00    +0.000 A 
ATOM     30  C   UNL     1      -3.512  10.405  15.249  0.00  0.00    +0.000 A 
ATOM     31  C   UNL     1      -2.397   9.665  15.649  0.00  0.00    +0.000 A 
ATOM     32  C   UNL     1      -1.836   9.878  16.907  0.00  0.00    +0.000 A 
ENDBRANCH  24  27
ENDBRANCH   1  25
TORSDOF 5
ENDMDL
MODEL 9
REMARK VINA RESULT:      -7.3      6.364      9.176
REMARK  Name = 
REMARK  5 active torsions:
REMARK  status: ('A' for Active; 'I' for Inactive)
REMARK    1  A    between atoms: C_2  and  C_25
REMARK    2  A    between atoms: N_3  and  C_4
REMARK    3  A    between atoms: C_9  and  C_10
REMARK    4  A    between atoms: C_13  and  C_14
REMARK    5  A    between atoms: C_14  and  N_15
REMARK                            x       y       z     vdW  Elec       q    Type
REMARK                         _______ _______ _______ _____ _____    ______ ____
ROOT
ATOM      1  C   UNL     1       0.138  11.339  21.256  0.00  0.00    +0.000 A 
ATOM      2  C   UNL     1       0.872  10.196  20.884  0.00  0.00    +0.000 A 
ATOM      3  C   UNL     1       0.809   9.015  21.623  0.00  0.00    +0.000 A 
ATOM      4  C   UNL     1      -0.034   8.938  22.721  0.00  0.00    +0.000 A 
ATOM      5  C   UNL     1      -0.763  10.062  23.100  0.00  0.00    +0.000 A 
ATOM      6  C   UNL     1      -0.646  11.299  22.424  0.00  0.00    +0.000 A 
ENDROOT
BRANCH   6   7
ATOM      7  C   UNL     1      -1.332  12.456  23.000  0.00  0.00    +0.000 A 
ATOM      8  C   UNL     1      -2.697  12.462  23.236  0.00  0.00    +0.000 A 
ATOM      9  N   UNL     1      -2.979  13.703  23.700  0.00  0.00    +0.000 N 
ATOM     10  C   UNL     1      -4.131  14.381  24.070  0.00  0.00    +0.000 A 
ATOM     11  C   UNL     1      -3.807  15.605  24.539  0.00  0.00    +0.000 A 
ATOM     12  S   UNL     1      -2.056  15.949  24.464  0.00  0.00    +0.000 S 
ATOM     13  C   UNL     1      -1.792  14.359  23.815  0.00  0.00    +0.000 A 
ATOM     14  N   UNL     1      -0.756  13.655  23.419  0.00  0.00    +0.000 NA
BRANCH  10  15
ATOM     15  C   UNL     1      -5.454  13.677  23.914  0.00  0.00    +0.000 C 
BRANCH  15  16
ATOM     16  N   UNL     1      -6.387  14.090  22.858  0.00  0.00    +0.000 NA
ATOM     17  C   UNL     1      -5.977  13.697  21.491  0.00  0.00    +0.000 C 
ATOM     18  C   UNL     1      -6.076  12.188  21.156  0.00  0.00    +0.000 C 
ATOM     19  N   UNL     1      -7.370  11.583  21.487  0.00  0.00    +0.000 NA
ATOM     20  C   UNL     1      -7.806  11.954  22.837  0.00  0.00    +0.000 C 
ATOM     21  C   UNL     1      -7.727  13.479  23.096  0.00  0.00    +0.000 C 
ATOM     22  H   UNL     1      -7.313  10.569  21.401  0.00  0.00    +0.000 HD
ENDBRANCH  15  16
ENDBRANCH  10  15
ENDBRANCH   6   7
BRANCH   1  25
ATOM     23  O   UNL     1       2.362  13.238  21.173  0.00  0.00    +0.000 OA
ATOM     24  C   UNL     1       1.303  13.413  20.581  0.00  0.00    +0.000 C 
ATOM     25  N   UNL     1       0.247  12.523  20.493  0.00  0.00    +0.000 N 
ATOM     26  H   UNL     1      -0.333  12.574  19.656  0.00  0.00    +0.000 HD
BRANCH  24  27
ATOM     27  C   UNL     1       1.109  14.680  19.844  0.00  0.00    +0.000 A 
ATOM     28  C   UNL     1      -0.157  15.007  19.351  0.00  0.00    +0.000 A 
ATOM     29  C   UNL     1      -0.327  16.176  18.609  0.00  0.00    +0.000 A 
ATOM     30  C   UNL     1       0.770  16.998  18.344  0.00  0.00    +0.000 A 
ATOM     31  C   UNL     1       2.039  16.656  18.817  0.00  0.00    +0.000 A 
ATOM     32  C   UNL     1       2.211  15.498  19.571  0.00  0.00    +0.000 A 
ENDBRANCH  24  27
ENDBRANCH   1  25
TORSDOF 5
ENDMDL
