MODEL 1
REMARK VINA RESULT:      -7.8      0.000      0.000
REMARK  Name = 
REMARK  8 active torsions:
REMARK  status: ('A' for Active; 'I' for Inactive)
REMARK    1  A    between atoms: C_1  and  C_2
REMARK    2  A    between atoms: C_2  and  O_3
REMARK    3  A    between atoms: O_3  and  C_4
REMARK    4  A    between atoms: C_4  and  C_6
REMARK    5  A    between atoms: C_14  and  N_15
REMARK    6  A    between atoms: N_15  and  C_16
REMARK    7  A    between atoms: C_19  and  O_20
REMARK    8  A    between atoms: C_22  and  O_23
REMARK                            x       y       z     vdW  Elec       q    Type
REMARK                         _______ _______ _______ _____ _____    ______ ____
ROOT
ATOM      1  C   UNL     1       4.234   5.512  17.304  0.00  0.00    +0.000 A 
ATOM      2  S   UNL     1       4.137   3.911  16.708  0.00  0.00    +0.000 S 
ATOM      3  C   UNL     1       2.909   3.471  17.819  0.00  0.00    +0.000 A 
ATOM      4  C   UNL     1       2.290   2.210  17.928  0.00  0.00    +0.000 A 
ATOM      5  C   UNL     1       1.297   2.020  18.890  0.00  0.00    +0.000 A 
ATOM      6  C   UNL     1       0.893   3.073  19.695  0.00  0.00    +0.000 A 
ATOM      7  C   UNL     1       1.490   4.328  19.555  0.00  0.00    +0.000 A 
ATOM      8  C   UNL     1       2.555   4.545  18.641  0.00  0.00    +0.000 A 
ATOM      9  C   UNL     1       3.368   5.710  18.362  0.00  0.00    +0.000 A 
ENDROOT
BRANCH   1  10
ATOM     10  C   UNL     1       5.119   6.479  16.686  0.00  0.00    +0.000 C 
ATOM     11  O   UNL     1       5.175   6.713  15.484  0.00  0.00    +0.000 OA
BRANCH  10  12
ATOM     12  O   UNL     1       5.918   7.071  17.623  0.00  0.00    +0.000 OA
BRANCH  12  14
ATOM     13  C   UNL     1       7.937   8.325  17.672  0.00  0.00    +0.000 C 
ATOM     14  C   UNL     1       7.327   6.961  17.404  0.00  0.00    +0.000 C 
ENDBRANCH  12  14
ENDBRANCH  10  12
ENDBRANCH   1  10
BRANCH   9  15
ATOM     15  N   UNL     1       3.279   6.903  19.016  0.00  0.00    +0.000 N 
ATOM     16  H   UNL     1       4.006   7.177  19.687  0.00  0.00    +0.000 HD
BRANCH  15  17
ATOM     17  C   UNL     1       2.245   7.866  19.000  0.00  0.00    +0.000 A 
ATOM     18  C   UNL     1       1.930   8.601  17.847  0.00  0.00    +0.000 A 
ATOM     19  C   UNL     1       1.050   9.682  17.902  0.00  0.00    +0.000 A 
ATOM     20  C   UNL     1       0.466  10.021  19.117  0.00  0.00    +0.000 A 
ATOM     21  C   UNL     1       0.712   9.276  20.266  0.00  0.00    +0.000 A 
ATOM     22  C   UNL     1       1.596   8.201  20.199  0.00  0.00    +0.000 A 
BRANCH  20  23
ATOM     23  O   UNL     1      -0.352  11.105  19.227  0.00  0.00    +0.000 OA
ATOM     24  H   UNL     1      -0.986  10.941  19.945  0.00  0.00    +0.000 HD
ENDBRANCH  20  23
BRANCH  22  25
ATOM     25  O   UNL     1       1.883   7.463  21.320  0.00  0.00    +0.000 OA
ATOM     26  H   UNL     1       1.060   7.322  21.815  0.00  0.00    +0.000 HD
ENDBRANCH  22  25
ENDBRANCH  15  17
ENDBRANCH   9  15
TORSDOF 7
ENDMDL
MODEL 2
REMARK VINA RESULT:      -7.3      2.061      4.255
REMARK  Name = 
REMARK  8 active torsions:
REMARK  status: ('A' for Active; 'I' for Inactive)
REMARK    1  A    between atoms: C_1  and  C_2
REMARK    2  A    between atoms: C_2  and  O_3
REMARK    3  A    between atoms: O_3  and  C_4
REMARK    4  A    between atoms: C_4  and  C_6
REMARK    5  A    between atoms: C_14  and  N_15
REMARK    6  A    between atoms: N_15  and  C_16
REMARK    7  A    between atoms: C_19  and  O_20
REMARK    8  A    between atoms: C_22  and  O_23
REMARK                            x       y       z     vdW  Elec       q    Type
REMARK                         _______ _______ _______ _____ _____    ______ ____
ROOT
ATOM      1  C   UNL     1       2.893   4.211  18.136  0.00  0.00    +0.000 A 
ATOM      2  S   UNL     1       3.565   3.184  16.944  0.00  0.00    +0.000 S 
ATOM      3  C   UNL     1       4.922   4.199  16.698  0.00  0.00    +0.000 A 
ATOM      4  C   UNL     1       5.982   3.979  15.796  0.00  0.00    +0.000 A 
ATOM      5  C   UNL     1       7.020   4.908  15.724  0.00  0.00    +0.000 A 
ATOM      6  C   UNL     1       7.031   6.010  16.564  0.00  0.00    +0.000 A 
ATOM      7  C   UNL     1       5.993   6.201  17.479  0.00  0.00    +0.000 A 
ATOM      8  C   UNL     1       4.880   5.320  17.533  0.00  0.00    +0.000 A 
ATOM      9  C   UNL     1       3.670   5.337  18.328  0.00  0.00    +0.000 A 
ENDROOT
BRANCH   1  10
ATOM     10  C   UNL     1       1.674   3.843  18.829  0.00  0.00    +0.000 C 
ATOM     11  O   UNL     1       0.702   3.309  18.306  0.00  0.00    +0.000 OA
BRANCH  10  12
ATOM     12  O   UNL     1       1.736   4.210  20.143  0.00  0.00    +0.000 OA
BRANCH  12  14
ATOM     13  C   UNL     1       1.435   2.520  21.786  0.00  0.00    +0.000 C 
ATOM     14  C   UNL     1       2.457   3.326  21.006  0.00  0.00    +0.000 C 
ENDBRANCH  12  14
ENDBRANCH  10  12
ENDBRANCH   1  10
BRANCH   9  15
ATOM     15  N   UNL     1       3.329   6.314  19.215  0.00  0.00    +0.000 N 
ATOM     16  H   UNL     1       3.639   6.253  20.191  0.00  0.00    +0.000 HD
BRANCH  15  17
ATOM     17  C   UNL     1       2.491   7.439  19.041  0.00  0.00    +0.000 A 
ATOM     18  C   UNL     1       2.504   8.202  17.864  0.00  0.00    +0.000 A 
ATOM     19  C   UNL     1       1.823   9.418  17.788  0.00  0.00    +0.000 A 
ATOM     20  C   UNL     1       1.109   9.866  18.892  0.00  0.00    +0.000 A 
ATOM     21  C   UNL     1       1.028   9.104  20.054  0.00  0.00    +0.000 A 
ATOM     22  C   UNL     1       1.715   7.894  20.119  0.00  0.00    +0.000 A 
BRANCH  20  23
ATOM     23  O   UNL     1       0.479  11.075  18.880  0.00  0.00    +0.000 OA
ATOM     24  H   UNL     1      -0.307  11.007  18.313  0.00  0.00    +0.000 HD
ENDBRANCH  20  23
BRANCH  22  25
ATOM     25  O   UNL     1       1.679   7.133  21.260  0.00  0.00    +0.000 OA
ATOM     26  H   UNL     1       0.998   7.492  21.850  0.00  0.00    +0.000 HD
ENDBRANCH  22  25
ENDBRANCH  15  17
ENDBRANCH   9  15
TORSDOF 7
ENDMDL
MODEL 3
REMARK VINA RESULT:      -7.3      1.307      1.761
REMARK  Name = 
REMARK  8 active torsions:
REMARK  status: ('A' for Active; 'I' for Inactive)
REMARK    1  A    between atoms: C_1  and  C_2
REMARK    2  A    between atoms: C_2  and  O_3
REMARK    3  A    between atoms: O_3  and  C_4
REMARK    4  A    between atoms: C_4  and  C_6
REMARK    5  A    between atoms: C_14  and  N_15
REMARK    6  A    between atoms: N_15  and  C_16
REMARK    7  A    between atoms: C_19  and  O_20
REMARK    8  A    between atoms: C_22  and  O_23
REMARK                            x       y       z     vdW  Elec       q    Type
REMARK                         _______ _______ _______ _____ _____    ______ ____
ROOT
ATOM      1  C   UNL     1       4.830   4.759  19.165  0.00  0.00    +0.000 A 
ATOM      2  S   UNL     1       4.831   3.118  18.683  0.00  0.00    +0.000 S 
ATOM      3  C   UNL     1       3.145   2.946  18.931  0.00  0.00    +0.000 A 
ATOM      4  C   UNL     1       2.381   1.779  18.724  0.00  0.00    +0.000 A 
ATOM      5  C   UNL     1       1.008   1.811  18.970  0.00  0.00    +0.000 A 
ATOM      6  C   UNL     1       0.396   2.989  19.365  0.00  0.00    +0.000 A 
ATOM      7  C   UNL     1       1.157   4.148  19.534  0.00  0.00    +0.000 A 
ATOM      8  C   UNL     1       2.567   4.142  19.368  0.00  0.00    +0.000 A 
ATOM      9  C   UNL     1       3.568   5.173  19.546  0.00  0.00    +0.000 A 
ENDROOT
BRANCH   1  10
ATOM     10  C   UNL     1       6.046   5.547  19.113  0.00  0.00    +0.000 C 
ATOM     11  O   UNL     1       6.998   5.420  19.874  0.00  0.00    +0.000 OA
BRANCH  10  12
ATOM     12  O   UNL     1       5.971   6.485  18.122  0.00  0.00    +0.000 OA
BRANCH  12  14
ATOM     13  C   UNL     1       5.168   6.398  15.887  0.00  0.00    +0.000 C 
ATOM     14  C   UNL     1       6.318   6.036  16.809  0.00  0.00    +0.000 C 
ENDBRANCH  12  14
ENDBRANCH  10  12
ENDBRANCH   1  10
BRANCH   9  15
ATOM     15  N   UNL     1       3.319   6.438  19.989  0.00  0.00    +0.000 N 
ATOM     16  H   UNL     1       3.731   6.764  20.870  0.00  0.00    +0.000 HD
BRANCH  15  17
ATOM     17  C   UNL     1       2.464   7.429  19.455  0.00  0.00    +0.000 A 
ATOM     18  C   UNL     1       2.469   7.762  18.093  0.00  0.00    +0.000 A 
ATOM     19  C   UNL     1       1.769   8.874  17.622  0.00  0.00    +0.000 A 
ATOM     20  C   UNL     1       1.043   9.648  18.518  0.00  0.00    +0.000 A 
ATOM     21  C   UNL     1       0.970   9.310  19.866  0.00  0.00    +0.000 A 
ATOM     22  C   UNL     1       1.676   8.200  20.325  0.00  0.00    +0.000 A 
BRANCH  20  23
ATOM     23  O   UNL     1       0.395  10.775  18.111  0.00  0.00    +0.000 OA
ATOM     24  H   UNL     1       0.654  11.508  18.695  0.00  0.00    +0.000 HD
ENDBRANCH  20  23
BRANCH  22  25
ATOM     25  O   UNL     1       1.649   7.856  21.653  0.00  0.00    +0.000 OA
ATOM     26  H   UNL     1       1.017   7.129  21.771  0.00  0.00    +0.000 HD
ENDBRANCH  22  25
ENDBRANCH  15  17
ENDBRANCH   9  15
TORSDOF 7
ENDMDL
MODEL 4
REMARK VINA RESULT:      -7.3      1.014      1.526
REMARK  Name = 
REMARK  8 active torsions:
REMARK  status: ('A' for Active; 'I' for Inactive)
REMARK    1  A    between atoms: C_1  and  C_2
REMARK    2  A    between atoms: C_2  and  O_3
REMARK    3  A    between atoms: O_3  and  C_4
REMARK    4  A    between atoms: C_4  and  C_6
REMARK    5  A    between atoms: C_14  and  N_15
REMARK    6  A    between atoms: N_15  and  C_16
REMARK    7  A    between atoms: C_19  and  O_20
REMARK    8  A    between atoms: C_22  and  O_23
REMARK                            x       y       z     vdW  Elec       q    Type
REMARK                         _______ _______ _______ _____ _____    ______ ____
ROOT
ATOM      1  C   UNL     1       4.128   5.246  17.488  0.00  0.00    +0.000 A 
ATOM      2  S   UNL     1       3.939   3.611  17.023  0.00  0.00    +0.000 S 
ATOM      3  C   UNL     1       2.718   3.322  18.189  0.00  0.00    +0.000 A 
ATOM      4  C   UNL     1       2.040   2.106  18.410  0.00  0.00    +0.000 A 
ATOM      5  C   UNL     1       1.061   2.042  19.403  0.00  0.00    +0.000 A 
ATOM      6  C   UNL     1       0.728   3.174  20.129  0.00  0.00    +0.000 A 
ATOM      7  C   UNL     1       1.383   4.382  19.879  0.00  0.00    +0.000 A 
ATOM      8  C   UNL     1       2.436   4.473  18.930  0.00  0.00    +0.000 A 
ATOM      9  C   UNL     1       3.299   5.570  18.544  0.00  0.00    +0.000 A 
ENDROOT
BRANCH   1  10
ATOM     10  C   UNL     1       5.046   6.116  16.779  0.00  0.00    +0.000 C 
ATOM     11  O   UNL     1       5.558   7.127  17.247  0.00  0.00    +0.000 OA
BRANCH  10  12
ATOM     12  O   UNL     1       5.232   5.681  15.498  0.00  0.00    +0.000 OA
BRANCH  12  14
ATOM     13  C   UNL     1       6.390   4.189  14.054  0.00  0.00    +0.000 C 
ATOM     14  C   UNL     1       6.538   5.185  15.190  0.00  0.00    +0.000 C 
ENDBRANCH  12  14
ENDBRANCH  10  12
ENDBRANCH   1  10
BRANCH   9  15
ATOM     15  N   UNL     1       3.284   6.813  19.103  0.00  0.00    +0.000 N 
ATOM     16  H   UNL     1       4.045   7.106  19.726  0.00  0.00    +0.000 HD
BRANCH  15  17
ATOM     17  C   UNL     1       2.291   7.818  19.044  0.00  0.00    +0.000 A 
ATOM     18  C   UNL     1       2.034   8.542  17.870  0.00  0.00    +0.000 A 
ATOM     19  C   UNL     1       1.199   9.659  17.884  0.00  0.00    +0.000 A 
ATOM     20  C   UNL     1       0.601  10.046  19.077  0.00  0.00    +0.000 A 
ATOM     21  C   UNL     1       0.789   9.314  20.245  0.00  0.00    +0.000 A 
ATOM     22  C   UNL     1       1.629   8.203  20.220  0.00  0.00    +0.000 A 
BRANCH  20  23
ATOM     23  O   UNL     1      -0.174  11.165  19.146  0.00  0.00    +0.000 OA
ATOM     24  H   UNL     1      -1.107  10.895  19.117  0.00  0.00    +0.000 HD
ENDBRANCH  20  23
BRANCH  22  25
ATOM     25  O   UNL     1       1.858   7.477  21.362  0.00  0.00    +0.000 OA
ATOM     26  H   UNL     1       2.109   6.574  21.108  0.00  0.00    +0.000 HD
ENDBRANCH  22  25
ENDBRANCH  15  17
ENDBRANCH   9  15
TORSDOF 7
ENDMDL
MODEL 5
REMARK VINA RESULT:      -7.2      1.193      1.746
REMARK  Name = 
REMARK  8 active torsions:
REMARK  status: ('A' for Active; 'I' for Inactive)
REMARK    1  A    between atoms: C_1  and  C_2
REMARK    2  A    between atoms: C_2  and  O_3
REMARK    3  A    between atoms: O_3  and  C_4
REMARK    4  A    between atoms: C_4  and  C_6
REMARK    5  A    between atoms: C_14  and  N_15
REMARK    6  A    between atoms: N_15  and  C_16
REMARK    7  A    between atoms: C_19  and  O_20
REMARK    8  A    between atoms: C_22  and  O_23
REMARK                            x       y       z     vdW  Elec       q    Type
REMARK                         _______ _______ _______ _____ _____    ______ ____
ROOT
ATOM      1  C   UNL     1       4.445   5.602  17.222  0.00  0.00    +0.000 A 
ATOM      2  S   UNL     1       4.990   3.990  17.390  0.00  0.00    +0.000 S 
ATOM      3  C   UNL     1       3.526   3.469  18.109  0.00  0.00    +0.000 A 
ATOM      4  C   UNL     1       3.225   2.164  18.548  0.00  0.00    +0.000 A 
ATOM      5  C   UNL     1       1.974   1.906  19.110  0.00  0.00    +0.000 A 
ATOM      6  C   UNL     1       1.024   2.910  19.192  0.00  0.00    +0.000 A 
ATOM      7  C   UNL     1       1.321   4.192  18.724  0.00  0.00    +0.000 A 
ATOM      8  C   UNL     1       2.606   4.516  18.213  0.00  0.00    +0.000 A 
ATOM      9  C   UNL     1       3.173   5.761  17.737  0.00  0.00    +0.000 A 
ENDROOT
BRANCH   1  10
ATOM     10  C   UNL     1       5.272   6.601  16.574  0.00  0.00    +0.000 C 
ATOM     11  O   UNL     1       5.303   6.810  15.366  0.00  0.00    +0.000 OA
BRANCH  10  12
ATOM     12  O   UNL     1       6.049   7.253  17.488  0.00  0.00    +0.000 OA
BRANCH  12  14
ATOM     13  C   UNL     1       7.839   6.307  18.732  0.00  0.00    +0.000 C 
ATOM     14  C   UNL     1       7.451   6.979  17.428  0.00  0.00    +0.000 C 
ENDBRANCH  12  14
ENDBRANCH  10  12
ENDBRANCH   1  10
BRANCH   9  15
ATOM     15  N   UNL     1       2.532   6.964  17.736  0.00  0.00    +0.000 N 
ATOM     16  H   UNL     1       2.348   7.447  16.849  0.00  0.00    +0.000 HD
BRANCH  15  17
ATOM     17  C   UNL     1       2.118   7.768  18.822  0.00  0.00    +0.000 A 
ATOM     18  C   UNL     1       2.014   7.261  20.126  0.00  0.00    +0.000 A 
ATOM     19  C   UNL     1       1.414   8.006  21.142  0.00  0.00    +0.000 A 
ATOM     20  C   UNL     1       0.930   9.277  20.856  0.00  0.00    +0.000 A 
ATOM     21  C   UNL     1       1.071   9.831  19.587  0.00  0.00    +0.000 A 
ATOM     22  C   UNL     1       1.667   9.075  18.580  0.00  0.00    +0.000 A 
BRANCH  20  23
ATOM     23  O   UNL     1       0.285  10.015  21.803  0.00  0.00    +0.000 OA
ATOM     24  H   UNL     1      -0.377  10.572  21.360  0.00  0.00    +0.000 HD
ENDBRANCH  20  23
BRANCH  22  25
ATOM     25  O   UNL     1       1.795   9.581  17.312  0.00  0.00    +0.000 OA
ATOM     26  H   UNL     1       2.284   8.940  16.771  0.00  0.00    +0.000 HD
ENDBRANCH  22  25
ENDBRANCH  15  17
ENDBRANCH   9  15
TORSDOF 7
ENDMDL
MODEL 6
REMARK VINA RESULT:      -7.0      3.102      5.704
REMARK  Name = 
REMARK  8 active torsions:
REMARK  status: ('A' for Active; 'I' for Inactive)
REMARK    1  A    between atoms: C_1  and  C_2
REMARK    2  A    between atoms: C_2  and  O_3
REMARK    3  A    between atoms: O_3  and  C_4
REMARK    4  A    between atoms: C_4  and  C_6
REMARK    5  A    between atoms: C_14  and  N_15
REMARK    6  A    between atoms: N_15  and  C_16
REMARK    7  A    between atoms: C_19  and  O_20
REMARK    8  A    between atoms: C_22  and  O_23
REMARK                            x       y       z     vdW  Elec       q    Type
REMARK                         _______ _______ _______ _____ _____    ______ ____
ROOT
ATOM      1  C   UNL     1       6.076   4.913  17.446  0.00  0.00    +0.000 A 
ATOM      2  S   UNL     1       7.070   6.006  16.584  0.00  0.00    +0.000 S 
ATOM      3  C   UNL     1       6.878   5.164  15.105  0.00  0.00    +0.000 A 
ATOM      4  C   UNL     1       7.452   5.507  13.865  0.00  0.00    +0.000 A 
ATOM      5  C   UNL     1       7.187   4.711  12.749  0.00  0.00    +0.000 A 
ATOM      6  C   UNL     1       6.333   3.625  12.852  0.00  0.00    +0.000 A 
ATOM      7  C   UNL     1       5.744   3.314  14.079  0.00  0.00    +0.000 A 
ATOM      8  C   UNL     1       6.043   4.052  15.254  0.00  0.00    +0.000 A 
ATOM      9  C   UNL     1       5.625   3.892  16.632  0.00  0.00    +0.000 A 
ENDROOT
BRANCH   1  10
ATOM     10  C   UNL     1       5.773   5.133  18.846  0.00  0.00    +0.000 C 
ATOM     11  O   UNL     1       6.432   4.698  19.784  0.00  0.00    +0.000 OA
BRANCH  10  12
ATOM     12  O   UNL     1       4.624   5.858  18.984  0.00  0.00    +0.000 OA
BRANCH  12  14
ATOM     13  C   UNL     1       2.874   7.236  18.153  0.00  0.00    +0.000 C 
ATOM     14  C   UNL     1       4.229   6.627  17.844  0.00  0.00    +0.000 C 
ENDBRANCH  12  14
ENDBRANCH  10  12
ENDBRANCH   1  10
BRANCH   9  15
ATOM     15  N   UNL     1       4.830   2.887  17.097  0.00  0.00    +0.000 N 
ATOM     16  H   UNL     1       5.020   1.915  16.827  0.00  0.00    +0.000 HD
BRANCH  15  17
ATOM     17  C   UNL     1       3.652   2.954  17.875  0.00  0.00    +0.000 A 
ATOM     18  C   UNL     1       2.470   3.530  17.388  0.00  0.00    +0.000 A 
ATOM     19  C   UNL     1       1.386   3.769  18.233  0.00  0.00    +0.000 A 
ATOM     20  C   UNL     1       1.478   3.412  19.573  0.00  0.00    +0.000 A 
ATOM     21  C   UNL     1       2.615   2.785  20.073  0.00  0.00    +0.000 A 
ATOM     22  C   UNL     1       3.692   2.556  19.221  0.00  0.00    +0.000 A 
BRANCH  20  23
ATOM     23  O   UNL     1       0.465   3.682  20.445  0.00  0.00    +0.000 OA
ATOM     24  H   UNL     1      -0.374   3.669  19.955  0.00  0.00    +0.000 HD
ENDBRANCH  20  23
BRANCH  22  25
ATOM     25  O   UNL     1       4.838   1.965  19.690  0.00  0.00    +0.000 OA
ATOM     26  H   UNL     1       4.731   1.002  19.645  0.00  0.00    +0.000 HD
ENDBRANCH  22  25
ENDBRANCH  15  17
ENDBRANCH   9  15
TORSDOF 7
ENDMDL
MODEL 7
REMARK VINA RESULT:      -7.0      2.282      4.254
REMARK  Name = 
REMARK  8 active torsions:
REMARK  status: ('A' for Active; 'I' for Inactive)
REMARK    1  A    between atoms: C_1  and  C_2
REMARK    2  A    between atoms: C_2  and  O_3
REMARK    3  A    between atoms: O_3  and  C_4
REMARK    4  A    between atoms: C_4  and  C_6
REMARK    5  A    between atoms: C_14  and  N_15
REMARK    6  A    between atoms: N_15  and  C_16
REMARK    7  A    between atoms: C_19  and  O_20
REMARK    8  A    between atoms: C_22  and  O_23
REMARK                            x       y       z     vdW  Elec       q    Type
REMARK                         _______ _______ _______ _____ _____    ______ ____
ROOT
ATOM      1  C   UNL     1       2.385   4.513  18.852  0.00  0.00    +0.000 A 
ATOM      2  S   UNL     1       2.835   3.324  17.707  0.00  0.00    +0.000 S 
ATOM      3  C   UNL     1       4.055   4.311  17.020  0.00  0.00    +0.000 A 
ATOM      4  C   UNL     1       4.905   3.971  15.949  0.00  0.00    +0.000 A 
ATOM      5  C   UNL     1       5.855   4.895  15.513  0.00  0.00    +0.000 A 
ATOM      6  C   UNL     1       5.991   6.114  16.156  0.00  0.00    +0.000 A 
ATOM      7  C   UNL     1       5.165   6.428  17.239  0.00  0.00    +0.000 A 
ATOM      8  C   UNL     1       4.137   5.548  17.668  0.00  0.00    +0.000 A 
ATOM      9  C   UNL     1       3.127   5.668  18.698  0.00  0.00    +0.000 A 
ENDROOT
BRANCH   1  10
ATOM     10  C   UNL     1       1.364   4.238  19.843  0.00  0.00    +0.000 C 
ATOM     11  O   UNL     1       0.758   5.090  20.483  0.00  0.00    +0.000 OA
BRANCH  10  12
ATOM     12  O   UNL     1       1.195   2.892  20.002  0.00  0.00    +0.000 OA
BRANCH  12  14
ATOM     13  C   UNL     1       2.796   2.419  21.694  0.00  0.00    +0.000 C 
ATOM     14  C   UNL     1       1.320   2.399  21.339  0.00  0.00    +0.000 C 
ENDBRANCH  12  14
ENDBRANCH  10  12
ENDBRANCH   1  10
BRANCH   9  15
ATOM     15  N   UNL     1       2.936   6.766  19.483  0.00  0.00    +0.000 N 
ATOM     16  H   UNL     1       3.370   6.816  20.412  0.00  0.00    +0.000 HD
BRANCH  15  17
ATOM     17  C   UNL     1       2.117   7.898  19.268  0.00  0.00    +0.000 A 
ATOM     18  C   UNL     1       2.033   8.529  18.019  0.00  0.00    +0.000 A 
ATOM     19  C   UNL     1       1.383   9.756  17.875  0.00  0.00    +0.000 A 
ATOM     20  C   UNL     1       0.798  10.348  18.987  0.00  0.00    +0.000 A 
ATOM     21  C   UNL     1       0.814   9.720  20.229  0.00  0.00    +0.000 A 
ATOM     22  C   UNL     1       1.468   8.497  20.360  0.00  0.00    +0.000 A 
BRANCH  20  23
ATOM     23  O   UNL     1       0.206  11.573  18.904  0.00  0.00    +0.000 OA
ATOM     24  H   UNL     1       0.703  12.112  18.266  0.00  0.00    +0.000 HD
ENDBRANCH  20  23
BRANCH  22  25
ATOM     25  O   UNL     1       1.527   7.865  21.576  0.00  0.00    +0.000 OA
ATOM     26  H   UNL     1       0.672   7.974  22.023  0.00  0.00    +0.000 HD
ENDBRANCH  22  25
ENDBRANCH  15  17
ENDBRANCH   9  15
TORSDOF 7
ENDMDL
MODEL 8
REMARK VINA RESULT:      -6.9      1.946      4.557
REMARK  Name = 
REMARK  8 active torsions:
REMARK  status: ('A' for Active; 'I' for Inactive)
REMARK    1  A    between atoms: C_1  and  C_2
REMARK    2  A    between atoms: C_2  and  O_3
REMARK    3  A    between atoms: O_3  and  C_4
REMARK    4  A    between atoms: C_4  and  C_6
REMARK    5  A    between atoms: C_14  and  N_15
REMARK    6  A    between atoms: N_15  and  C_16
REMARK    7  A    between atoms: C_19  and  O_20
REMARK    8  A    between atoms: C_22  and  O_23
REMARK                            x       y       z     vdW  Elec       q    Type
REMARK                         _______ _______ _______ _____ _____    ______ ____
ROOT
ATOM      1  C   UNL     1       2.922   4.504  18.439  0.00  0.00    +0.000 A 
ATOM      2  S   UNL     1       4.304   3.497  18.414  0.00  0.00    +0.000 S 
ATOM      3  C   UNL     1       5.353   4.786  18.001  0.00  0.00    +0.000 A 
ATOM      4  C   UNL     1       6.745   4.702  17.795  0.00  0.00    +0.000 A 
ATOM      5  C   UNL     1       7.456   5.857  17.467  0.00  0.00    +0.000 A 
ATOM      6  C   UNL     1       6.808   7.078  17.391  0.00  0.00    +0.000 A 
ATOM      7  C   UNL     1       5.434   7.156  17.629  0.00  0.00    +0.000 A 
ATOM      8  C   UNL     1       4.660   5.995  17.893  0.00  0.00    +0.000 A 
ATOM      9  C   UNL     1       3.239   5.805  18.103  0.00  0.00    +0.000 A 
ENDROOT
BRANCH   1  10
ATOM     10  C   UNL     1       1.625   3.974  18.813  0.00  0.00    +0.000 C 
ATOM     11  O   UNL     1       0.944   3.230  18.118  0.00  0.00    +0.000 OA
BRANCH  10  12
ATOM     12  O   UNL     1       1.243   4.451  20.035  0.00  0.00    +0.000 OA
BRANCH  12  14
ATOM     13  C   UNL     1       1.488   2.636  21.549  0.00  0.00    +0.000 C 
ATOM     14  C   UNL     1       2.016   4.002  21.151  0.00  0.00    +0.000 C 
ENDBRANCH  12  14
ENDBRANCH  10  12
ENDBRANCH   1  10
BRANCH   9  15
ATOM     15  N   UNL     1       2.299   6.791  18.035  0.00  0.00    +0.000 N 
ATOM     16  H   UNL     1       1.751   6.920  17.177  0.00  0.00    +0.000 HD
BRANCH  15  17
ATOM     17  C   UNL     1       1.977   7.797  18.974  0.00  0.00    +0.000 A 
ATOM     18  C   UNL     1       1.823   7.518  20.340  0.00  0.00    +0.000 A 
ATOM     19  C   UNL     1       1.310   8.476  21.215  0.00  0.00    +0.000 A 
ATOM     20  C   UNL     1       0.964   9.728  20.724  0.00  0.00    +0.000 A 
ATOM     21  C   UNL     1       1.159  10.055  19.385  0.00  0.00    +0.000 A 
ATOM     22  C   UNL     1       1.668   9.089  18.520  0.00  0.00    +0.000 A 
BRANCH  20  23
ATOM     23  O   UNL     1       0.404  10.672  21.533  0.00  0.00    +0.000 OA
ATOM     24  H   UNL     1       0.456  11.532  21.082  0.00  0.00    +0.000 HD
ENDBRANCH  20  23
BRANCH  22  25
ATOM     25  O   UNL     1       1.846   9.370  17.189  0.00  0.00    +0.000 OA
ATOM     26  H   UNL     1       2.524   8.772  16.835  0.00  0.00    +0.000 HD
ENDBRANCH  22  25
ENDBRANCH  15  17
ENDBRANCH   9  15
TORSDOF 7
ENDMDL
MODEL 9
REMARK VINA RESULT:      -6.9      1.170      1.558
REMARK  Name = 
REMARK  8 active torsions:
REMARK  status: ('A' for Active; 'I' for Inactive)
REMARK    1  A    between atoms: C_1  and  C_2
REMARK    2  A    between atoms: C_2  and  O_3
REMARK    3  A    between atoms: O_3  and  C_4
REMARK    4  A    between atoms: C_4  and  C_6
REMARK    5  A    between atoms: C_14  and  N_15
REMARK    6  A    between atoms: N_15  and  C_16
REMARK    7  A    between atoms: C_19  and  O_20
REMARK    8  A    between atoms: C_22  and  O_23
REMARK                            x       y       z     vdW  Elec       q    Type
REMARK                         _______ _______ _______ _____ _____    ______ ____
ROOT
ATOM      1  C   UNL     1       4.170   5.520  17.445  0.00  0.00    +0.000 A 
ATOM      2  S   UNL     1       3.937   3.941  16.828  0.00  0.00    +0.000 S 
ATOM      3  C   UNL     1       2.723   3.569  17.978  0.00  0.00    +0.000 A 
ATOM      4  C   UNL     1       2.020   2.353  18.090  0.00  0.00    +0.000 A 
ATOM      5  C   UNL     1       1.051   2.215  19.086  0.00  0.00    +0.000 A 
ATOM      6  C   UNL     1       0.753   3.279  19.922  0.00  0.00    +0.000 A 
ATOM      7  C   UNL     1       1.433   4.491  19.780  0.00  0.00    +0.000 A 
ATOM      8  C   UNL     1       2.476   4.649  18.830  0.00  0.00    +0.000 A 
ATOM      9  C   UNL     1       3.360   5.759  18.538  0.00  0.00    +0.000 A 
ENDROOT
BRANCH   1  10
ATOM     10  C   UNL     1       5.099   6.434  16.811  0.00  0.00    +0.000 C 
ATOM     11  O   UNL     1       5.003   6.845  15.660  0.00  0.00    +0.000 OA
BRANCH  10  12
ATOM     12  O   UNL     1       6.124   6.746  17.657  0.00  0.00    +0.000 OA
BRANCH  12  14
ATOM     13  C   UNL     1       7.807   5.877  19.093  0.00  0.00    +0.000 C 
ATOM     14  C   UNL     1       7.206   5.812  17.700  0.00  0.00    +0.000 C 
ENDBRANCH  12  14
ENDBRANCH  10  12
ENDBRANCH   1  10
BRANCH   9  15
ATOM     15  N   UNL     1       3.380   6.943  19.215  0.00  0.00    +0.000 N 
ATOM     16  H   UNL     1       4.199   7.199  19.777  0.00  0.00    +0.000 HD
BRANCH  15  17
ATOM     17  C   UNL     1       2.366   7.916  19.361  0.00  0.00    +0.000 A 
ATOM     18  C   UNL     1       1.622   8.044  20.543  0.00  0.00    +0.000 A 
ATOM     19  C   UNL     1       0.497   8.869  20.598  0.00  0.00    +0.000 A 
ATOM     20  C   UNL     1       0.124   9.584  19.468  0.00  0.00    +0.000 A 
ATOM     21  C   UNL     1       0.875   9.524  18.298  0.00  0.00    +0.000 A 
ATOM     22  C   UNL     1       1.993   8.694  18.253  0.00  0.00    +0.000 A 
BRANCH  20  23
ATOM     23  O   UNL     1      -1.001  10.354  19.461  0.00  0.00    +0.000 OA
ATOM     24  H   UNL     1      -1.325  10.417  18.546  0.00  0.00    +0.000 HD
ENDBRANCH  20  23
BRANCH  22  25
ATOM     25  O   UNL     1       2.739   8.590  17.106  0.00  0.00    +0.000 OA
ATOM     26  H   UNL     1       2.326   7.929  16.528  0.00  0.00    +0.000 HD
ENDBRANCH  22  25
ENDBRANCH  15  17
ENDBRANCH   9  15
TORSDOF 7
ENDMDL
