MODEL 1
REMARK VINA RESULT:      -8.2      0.000      0.000
REMARK  Name = 
REMARK  5 active torsions:
REMARK  status: ('A' for Active; 'I' for Inactive)
REMARK    1  A    between atoms: C_1  and  C_2
REMARK    2  A    between atoms: C_4  and  C_5
REMARK    3  A    between atoms: C_11  and  C_12
REMARK    4  A    between atoms: N_16  and  C_17
REMARK    5  A    between atoms: C_20  and  C_21
REMARK                            x       y       z     vdW  Elec       q    Type
REMARK                         _______ _______ _______ _____ _____    ______ ____
ROOT
ATOM      1  C   UNL     1       1.686   9.952  18.025  0.00  0.00    +0.000 C 
ATOM      2  C   UNL     1       1.449   9.199  19.298  0.00  0.00    +0.000 A 
ATOM      3  C   UNL     1       0.519   9.619  20.216  0.00  0.00    +0.000 A 
ATOM      4  C   UNL     1       0.329   8.797  21.309  0.00  0.00    +0.000 A 
ATOM      5  C   UNL     1      -0.657   9.168  22.374  0.00  0.00    +0.000 C 
ATOM      6  N   UNL     1       0.989   7.628  21.466  0.00  0.00    +0.000 NA
ATOM      7  C   UNL     1       1.857   7.265  20.505  0.00  0.00    +0.000 A 
ATOM      8  N   UNL     1       2.442   6.002  20.633  0.00  0.00    +0.000 N 
ATOM      9  C   UNL     1       2.969   5.196  19.615  0.00  0.00    +0.000 A 
ATOM     10  C   UNL     1       3.618   5.743  18.527  0.00  0.00    +0.000 A 
ATOM     11  C   UNL     1       3.976   4.903  17.491  0.00  0.00    +0.000 A 
ATOM     12  N   UNL     1       3.732   3.582  17.551  0.00  0.00    +0.000 NA
ATOM     13  C   UNL     1       3.191   3.110  18.688  0.00  0.00    +0.000 A 
ATOM     14  C   UNL     1       3.005   1.628  18.779  0.00  0.00    +0.000 C 
ATOM     15  N   UNL     1       2.807   3.865  19.734  0.00  0.00    +0.000 NA
ATOM     16  N   UNL     1       2.128   8.050  19.449  0.00  0.00    +0.000 NA
ATOM     17  H   UNL     1       1.913   5.449  21.291  0.00  0.00    +0.000 HD
ENDROOT
BRANCH  11  18
ATOM     18  C   UNL     1       4.568   5.489  16.215  0.00  0.00    +0.000 C 
ATOM     19  C   UNL     1       5.344   4.468  15.362  0.00  0.00    +0.000 C 
ATOM     20  C   UNL     1       6.699   4.128  15.983  0.00  0.00    +0.000 C 
ATOM     21  C   UNL     1       7.503   5.386  16.326  0.00  0.00    +0.000 C 
ATOM     22  N   UNL     1       6.733   6.331  17.141  0.00  0.00    +0.000 NA
ATOM     23  C   UNL     1       7.526   7.512  17.470  0.00  0.00    +0.000 C 
ATOM     24  C   UNL     1       5.478   6.710  16.476  0.00  0.00    +0.000 C 
ENDBRANCH  11  18
TORSDOF 1
ENDMDL
MODEL 2
REMARK VINA RESULT:      -7.5      1.611      4.368
REMARK  Name = 
REMARK  5 active torsions:
REMARK  status: ('A' for Active; 'I' for Inactive)
REMARK    1  A    between atoms: C_1  and  C_2
REMARK    2  A    between atoms: C_4  and  C_5
REMARK    3  A    between atoms: C_11  and  C_12
REMARK    4  A    between atoms: N_16  and  C_17
REMARK    5  A    between atoms: C_20  and  C_21
REMARK                            x       y       z     vdW  Elec       q    Type
REMARK                         _______ _______ _______ _____ _____    ______ ____
ROOT
ATOM      1  C   UNL     1       0.587   8.426  21.646  0.00  0.00    +0.000 C 
ATOM      2  C   UNL     1       0.956   9.107  20.364  0.00  0.00    +0.000 A 
ATOM      3  C   UNL     1       0.720  10.445  20.171  0.00  0.00    +0.000 A 
ATOM      4  C   UNL     1       1.182  10.980  18.985  0.00  0.00    +0.000 A 
ATOM      5  C   UNL     1       0.968  12.429  18.672  0.00  0.00    +0.000 C 
ATOM      6  N   UNL     1       1.855  10.248  18.069  0.00  0.00    +0.000 NA
ATOM      7  C   UNL     1       2.081   8.952  18.346  0.00  0.00    +0.000 A 
ATOM      8  N   UNL     1       2.876   8.246  17.438  0.00  0.00    +0.000 N 
ATOM      9  C   UNL     1       3.642   7.099  17.684  0.00  0.00    +0.000 A 
ATOM     10  C   UNL     1       3.220   6.126  18.567  0.00  0.00    +0.000 A 
ATOM     11  C   UNL     1       4.093   5.101  18.874  0.00  0.00    +0.000 A 
ATOM     12  N   UNL     1       5.310   5.029  18.306  0.00  0.00    +0.000 NA
ATOM     13  C   UNL     1       5.607   5.955  17.378  0.00  0.00    +0.000 A 
ATOM     14  C   UNL     1       6.927   5.815  16.687  0.00  0.00    +0.000 C 
ATOM     15  N   UNL     1       4.815   6.988  17.032  0.00  0.00    +0.000 NA
ATOM     16  N   UNL     1       1.606   8.361  19.456  0.00  0.00    +0.000 NA
ATOM     17  H   UNL     1       3.380   8.895  16.852  0.00  0.00    +0.000 HD
ENDROOT
BRANCH  11  18
ATOM     18  C   UNL     1       3.717   4.086  19.948  0.00  0.00    +0.000 C 
ATOM     19  C   UNL     1       4.481   2.753  19.840  0.00  0.00    +0.000 C 
ATOM     20  C   UNL     1       3.966   1.902  18.679  0.00  0.00    +0.000 C 
ATOM     21  C   UNL     1       2.444   1.741  18.717  0.00  0.00    +0.000 C 
ATOM     22  N   UNL     1       1.753   3.032  18.816  0.00  0.00    +0.000 NA
ATOM     23  C   UNL     1       0.304   2.853  18.831  0.00  0.00    +0.000 C 
ATOM     24  C   UNL     1       2.201   3.788  19.993  0.00  0.00    +0.000 C 
ENDBRANCH  11  18
TORSDOF 1
ENDMDL
MODEL 3
REMARK VINA RESULT:      -7.2      1.882      4.404
REMARK  Name = 
REMARK  5 active torsions:
REMARK  status: ('A' for Active; 'I' for Inactive)
REMARK    1  A    between atoms: C_1  and  C_2
REMARK    2  A    between atoms: C_4  and  C_5
REMARK    3  A    between atoms: C_11  and  C_12
REMARK    4  A    between atoms: N_16  and  C_17
REMARK    5  A    between atoms: C_20  and  C_21
REMARK                            x       y       z     vdW  Elec       q    Type
REMARK                         _______ _______ _______ _____ _____    ______ ____
ROOT
ATOM      1  C   UNL     1      -0.563   8.471  21.679  0.00  0.00    +0.000 C 
ATOM      2  C   UNL     1       0.165   9.422  20.778  0.00  0.00    +0.000 A 
ATOM      3  C   UNL     1       0.282  10.754  21.088  0.00  0.00    +0.000 A 
ATOM      4  C   UNL     1       1.047  11.514  20.226  0.00  0.00    +0.000 A 
ATOM      5  C   UNL     1       1.232  12.981  20.469  0.00  0.00    +0.000 C 
ATOM      6  N   UNL     1       1.677  10.987  19.152  0.00  0.00    +0.000 NA
ATOM      7  C   UNL     1       1.545   9.666  18.935  0.00  0.00    +0.000 A 
ATOM      8  N   UNL     1       2.294   9.126  17.886  0.00  0.00    +0.000 N 
ATOM      9  C   UNL     1       2.720   7.799  17.734  0.00  0.00    +0.000 A 
ATOM     10  C   UNL     1       1.942   6.740  18.153  0.00  0.00    +0.000 A 
ATOM     11  C   UNL     1       2.488   5.472  18.112  0.00  0.00    +0.000 A 
ATOM     12  N   UNL     1       3.733   5.266  17.646  0.00  0.00    +0.000 NA
ATOM     13  C   UNL     1       4.389   6.333  17.158  0.00  0.00    +0.000 A 
ATOM     14  C   UNL     1       5.736   6.079  16.561  0.00  0.00    +0.000 C 
ATOM     15  N   UNL     1       3.928   7.599  17.173  0.00  0.00    +0.000 NA
ATOM     16  N   UNL     1       0.766   8.886  19.704  0.00  0.00    +0.000 NA
ATOM     17  H   UNL     1       3.026   9.770  17.625  0.00  0.00    +0.000 HD
ENDROOT
BRANCH  11  18
ATOM     18  C   UNL     1       1.712   4.297  18.694  0.00  0.00    +0.000 C 
ATOM     19  C   UNL     1       1.038   4.603  20.044  0.00  0.00    +0.000 C 
ATOM     20  C   UNL     1       2.056   4.656  21.184  0.00  0.00    +0.000 C 
ATOM     21  C   UNL     1       2.954   3.415  21.208  0.00  0.00    +0.000 C 
ATOM     22  N   UNL     1       3.581   3.160  19.906  0.00  0.00    +0.000 NA
ATOM     23  C   UNL     1       4.446   1.984  19.960  0.00  0.00    +0.000 C 
ATOM     24  C   UNL     1       2.572   3.021  18.847  0.00  0.00    +0.000 C 
ENDBRANCH  11  18
TORSDOF 1
ENDMDL
MODEL 4
REMARK VINA RESULT:      -7.1      1.216      1.307
REMARK  Name = 
REMARK  5 active torsions:
REMARK  status: ('A' for Active; 'I' for Inactive)
REMARK    1  A    between atoms: C_1  and  C_2
REMARK    2  A    between atoms: C_4  and  C_5
REMARK    3  A    between atoms: C_11  and  C_12
REMARK    4  A    between atoms: N_16  and  C_17
REMARK    5  A    between atoms: C_20  and  C_21
REMARK                            x       y       z     vdW  Elec       q    Type
REMARK                         _______ _______ _______ _____ _____    ______ ____
ROOT
ATOM      1  C   UNL     1       2.052  10.929  17.681  0.00  0.00    +0.000 C 
ATOM      2  C   UNL     1       1.494  10.377  18.957  0.00  0.00    +0.000 A 
ATOM      3  C   UNL     1       0.513  11.036  19.655  0.00  0.00    +0.000 A 
ATOM      4  C   UNL     1       0.019  10.388  20.769  0.00  0.00    +0.000 A 
ATOM      5  C   UNL     1      -1.048  11.025  21.605  0.00  0.00    +0.000 C 
ATOM      6  N   UNL     1       0.443   9.161  21.147  0.00  0.00    +0.000 NA
ATOM      7  C   UNL     1       1.380   8.562  20.390  0.00  0.00    +0.000 A 
ATOM      8  N   UNL     1       1.720   7.251  20.736  0.00  0.00    +0.000 N 
ATOM      9  C   UNL     1       2.261   6.260  19.906  0.00  0.00    +0.000 A 
ATOM     10  C   UNL     1       3.156   6.571  18.902  0.00  0.00    +0.000 A 
ATOM     11  C   UNL     1       3.529   5.570  18.028  0.00  0.00    +0.000 A 
ATOM     12  N   UNL     1       3.063   4.316  18.166  0.00  0.00    +0.000 NA
ATOM     13  C   UNL     1       2.279   4.068  19.229  0.00  0.00    +0.000 A 
ATOM     14  C   UNL     1       1.838   2.652  19.424  0.00  0.00    +0.000 C 
ATOM     15  N   UNL     1       1.864   4.992  20.117  0.00  0.00    +0.000 NA
ATOM     16  N   UNL     1       1.942   9.166  19.330  0.00  0.00    +0.000 NA
ATOM     17  H   UNL     1       1.009   6.864  21.340  0.00  0.00    +0.000 HD
ENDROOT
BRANCH  11  18
ATOM     18  C   UNL     1       4.405   5.905  16.826  0.00  0.00    +0.000 C 
ATOM     19  C   UNL     1       4.830   4.676  16.003  0.00  0.00    +0.000 C 
ATOM     20  C   UNL     1       5.908   3.862  16.719  0.00  0.00    +0.000 C 
ATOM     21  C   UNL     1       7.080   4.737  17.172  0.00  0.00    +0.000 C 
ATOM     22  N   UNL     1       6.636   5.895  17.956  0.00  0.00    +0.000 NA
ATOM     23  C   UNL     1       7.771   6.703  18.392  0.00  0.00    +0.000 C 
ATOM     24  C   UNL     1       5.670   6.709  17.206  0.00  0.00    +0.000 C 
ENDBRANCH  11  18
TORSDOF 1
ENDMDL
MODEL 5
REMARK VINA RESULT:      -6.9      7.153     11.074
REMARK  Name = 
REMARK  5 active torsions:
REMARK  status: ('A' for Active; 'I' for Inactive)
REMARK    1  A    between atoms: C_1  and  C_2
REMARK    2  A    between atoms: C_4  and  C_5
REMARK    3  A    between atoms: C_11  and  C_12
REMARK    4  A    between atoms: N_16  and  C_17
REMARK    5  A    between atoms: C_20  and  C_21
REMARK                            x       y       z     vdW  Elec       q    Type
REMARK                         _______ _______ _______ _____ _____    ______ ____
ROOT
ATOM      1  C   UNL     1      -0.451  10.038  19.213  0.00  0.00    +0.000 C 
ATOM      2  C   UNL     1      -1.546  10.506  18.305  0.00  0.00    +0.000 A 
ATOM      3  C   UNL     1      -1.674  10.020  17.027  0.00  0.00    +0.000 A 
ATOM      4  C   UNL     1      -2.771  10.460  16.315  0.00  0.00    +0.000 A 
ATOM      5  C   UNL     1      -2.999   9.998  14.909  0.00  0.00    +0.000 C 
ATOM      6  N   UNL     1      -3.694  11.298  16.841  0.00  0.00    +0.000 NA
ATOM      7  C   UNL     1      -3.520  11.701  18.113  0.00  0.00    +0.000 A 
ATOM      8  N   UNL     1      -4.543  12.474  18.670  0.00  0.00    +0.000 N 
ATOM      9  C   UNL     1      -4.862  12.620  20.027  0.00  0.00    +0.000 A 
ATOM     10  C   UNL     1      -3.884  12.631  21.000  0.00  0.00    +0.000 A 
ATOM     11  C   UNL     1      -4.280  12.625  22.323  0.00  0.00    +0.000 A 
ATOM     12  N   UNL     1      -5.582  12.643  22.660  0.00  0.00    +0.000 NA
ATOM     13  C   UNL     1      -6.472  12.738  21.657  0.00  0.00    +0.000 A 
ATOM     14  C   UNL     1      -7.913  12.847  22.045  0.00  0.00    +0.000 C 
ATOM     15  N   UNL     1      -6.165  12.739  20.346  0.00  0.00    +0.000 NA
ATOM     16  N   UNL     1      -2.442  11.354  18.836  0.00  0.00    +0.000 NA
ATOM     17  H   UNL     1      -5.380  12.382  18.113  0.00  0.00    +0.000 HD
ENDROOT
BRANCH  11  18
ATOM     18  C   UNL     1      -3.233  12.496  23.423  0.00  0.00    +0.000 C 
ATOM     19  C   UNL     1      -3.286  13.625  24.469  0.00  0.00    +0.000 C 
ATOM     20  C   UNL     1      -2.723  14.934  23.915  0.00  0.00    +0.000 C 
ATOM     21  C   UNL     1      -1.342  14.742  23.283  0.00  0.00    +0.000 C 
ATOM     22  N   UNL     1      -1.333  13.662  22.290  0.00  0.00    +0.000 NA
ATOM     23  C   UNL     1      -0.011  13.510  21.688  0.00  0.00    +0.000 C 
ATOM     24  C   UNL     1      -1.791  12.394  22.876  0.00  0.00    +0.000 C 
ENDBRANCH  11  18
TORSDOF 1
ENDMDL
MODEL 6
REMARK VINA RESULT:      -6.8      7.424     11.417
REMARK  Name = 
REMARK  5 active torsions:
REMARK  status: ('A' for Active; 'I' for Inactive)
REMARK    1  A    between atoms: C_1  and  C_2
REMARK    2  A    between atoms: C_4  and  C_5
REMARK    3  A    between atoms: C_11  and  C_12
REMARK    4  A    between atoms: N_16  and  C_17
REMARK    5  A    between atoms: C_20  and  C_21
REMARK                            x       y       z     vdW  Elec       q    Type
REMARK                         _______ _______ _______ _____ _____    ______ ____
ROOT
ATOM      1  C   UNL     1      -0.851  10.061  17.882  0.00  0.00    +0.000 C 
ATOM      2  C   UNL     1      -2.076  10.498  17.137  0.00  0.00    +0.000 A 
ATOM      3  C   UNL     1      -2.368  10.007  15.889  0.00  0.00    +0.000 A 
ATOM      4  C   UNL     1      -3.566  10.417  15.340  0.00  0.00    +0.000 A 
ATOM      5  C   UNL     1      -3.976   9.946  13.978  0.00  0.00    +0.000 C 
ATOM      6  N   UNL     1      -4.428  11.229  15.992  0.00  0.00    +0.000 NA
ATOM      7  C   UNL     1      -4.089  11.639  17.228  0.00  0.00    +0.000 A 
ATOM      8  N   UNL     1      -5.044  12.384  17.925  0.00  0.00    +0.000 N 
ATOM      9  C   UNL     1      -5.173  12.524  19.313  0.00  0.00    +0.000 A 
ATOM     10  C   UNL     1      -4.069  12.562  20.140  0.00  0.00    +0.000 A 
ATOM     11  C   UNL     1      -4.274  12.548  21.505  0.00  0.00    +0.000 A 
ATOM     12  N   UNL     1      -5.516  12.531  22.021  0.00  0.00    +0.000 NA
ATOM     13  C   UNL     1      -6.541  12.600  21.154  0.00  0.00    +0.000 A 
ATOM     14  C   UNL     1      -7.915  12.671  21.741  0.00  0.00    +0.000 C 
ATOM     15  N   UNL     1      -6.420  12.607  19.812  0.00  0.00    +0.000 NA
ATOM     16  N   UNL     1      -2.911  11.322  17.792  0.00  0.00    +0.000 NA
ATOM     17  H   UNL     1      -5.947  12.269  17.490  0.00  0.00    +0.000 HD
ENDROOT
BRANCH  11  18
ATOM     18  C   UNL     1      -3.080  12.449  22.447  0.00  0.00    +0.000 C 
ATOM     19  C   UNL     1      -3.443  12.624  23.933  0.00  0.00    +0.000 C 
ATOM     20  C   UNL     1      -3.748  14.083  24.272  0.00  0.00    +0.000 C 
ATOM     21  C   UNL     1      -2.641  15.026  23.791  0.00  0.00    +0.000 C 
ATOM     22  N   UNL     1      -2.327  14.832  22.371  0.00  0.00    +0.000 NA
ATOM     23  C   UNL     1      -1.283  15.754  21.932  0.00  0.00    +0.000 C 
ATOM     24  C   UNL     1      -1.948  13.440  22.093  0.00  0.00    +0.000 C 
ENDBRANCH  11  18
TORSDOF 1
ENDMDL
MODEL 7
REMARK VINA RESULT:      -6.7      6.559     10.043
REMARK  Name = 
REMARK  5 active torsions:
REMARK  status: ('A' for Active; 'I' for Inactive)
REMARK    1  A    between atoms: C_1  and  C_2
REMARK    2  A    between atoms: C_4  and  C_5
REMARK    3  A    between atoms: C_11  and  C_12
REMARK    4  A    between atoms: N_16  and  C_17
REMARK    5  A    between atoms: C_20  and  C_21
REMARK                            x       y       z     vdW  Elec       q    Type
REMARK                         _______ _______ _______ _____ _____    ______ ____
ROOT
ATOM      1  C   UNL     1      -0.237  10.042  18.284  0.00  0.00    +0.000 C 
ATOM      2  C   UNL     1      -1.533  10.516  17.700  0.00  0.00    +0.000 A 
ATOM      3  C   UNL     1      -1.992  10.042  16.496  0.00  0.00    +0.000 A 
ATOM      4  C   UNL     1      -3.238  10.487  16.103  0.00  0.00    +0.000 A 
ATOM      5  C   UNL     1      -3.828  10.037  14.801  0.00  0.00    +0.000 C 
ATOM      6  N   UNL     1      -3.989  11.317  16.861  0.00  0.00    +0.000 NA
ATOM      7  C   UNL     1      -3.488  11.708  18.046  0.00  0.00    +0.000 A 
ATOM      8  N   UNL     1      -4.328  12.474  18.860  0.00  0.00    +0.000 N 
ATOM      9  C   UNL     1      -4.279  12.607  20.254  0.00  0.00    +0.000 A 
ATOM     10  C   UNL     1      -3.079  12.610  20.936  0.00  0.00    +0.000 A 
ATOM     11  C   UNL     1      -3.113  12.591  22.316  0.00  0.00    +0.000 A 
ATOM     12  N   UNL     1      -4.280  12.603  22.984  0.00  0.00    +0.000 NA
ATOM     13  C   UNL     1      -5.403  12.705  22.252  0.00  0.00    +0.000 A 
ATOM     14  C   UNL     1      -6.691  12.807  23.006  0.00  0.00    +0.000 C 
ATOM     15  N   UNL     1      -5.451  12.719  20.906  0.00  0.00    +0.000 NA
ATOM     16  N   UNL     1      -2.257  11.357  18.457  0.00  0.00    +0.000 NA
ATOM     17  H   UNL     1      -5.281  12.385  18.541  0.00  0.00    +0.000 HD
ENDROOT
BRANCH  11  18
ATOM     18  C   UNL     1      -1.813  12.454  23.101  0.00  0.00    +0.000 C 
ATOM     19  C   UNL     1      -0.687  13.381  22.608  0.00  0.00    +0.000 C 
ATOM     20  C   UNL     1      -0.088  12.889  21.290  0.00  0.00    +0.000 C 
ATOM     21  C   UNL     1       0.312  11.412  21.359  0.00  0.00    +0.000 C 
ATOM     22  N   UNL     1      -0.788  10.562  21.829  0.00  0.00    +0.000 NA
ATOM     23  C   UNL     1      -0.388   9.158  21.868  0.00  0.00    +0.000 C 
ATOM     24  C   UNL     1      -1.281  11.004  23.141  0.00  0.00    +0.000 C 
ENDBRANCH  11  18
TORSDOF 1
ENDMDL
MODEL 8
REMARK VINA RESULT:      -6.7      1.972      4.568
REMARK  Name = 
REMARK  5 active torsions:
REMARK  status: ('A' for Active; 'I' for Inactive)
REMARK    1  A    between atoms: C_1  and  C_2
REMARK    2  A    between atoms: C_4  and  C_5
REMARK    3  A    between atoms: C_11  and  C_12
REMARK    4  A    between atoms: N_16  and  C_17
REMARK    5  A    between atoms: C_20  and  C_21
REMARK                            x       y       z     vdW  Elec       q    Type
REMARK                         _______ _______ _______ _____ _____    ______ ____
ROOT
ATOM      1  C   UNL     1       0.231   9.316  22.466  0.00  0.00    +0.000 C 
ATOM      2  C   UNL     1       0.239   9.979  21.122  0.00  0.00    +0.000 A 
ATOM      3  C   UNL     1      -0.075  11.307  20.978  0.00  0.00    +0.000 A 
ATOM      4  C   UNL     1       0.050  11.827  19.705  0.00  0.00    +0.000 A 
ATOM      5  C   UNL     1      -0.276  13.264  19.437  0.00  0.00    +0.000 C 
ATOM      6  N   UNL     1       0.484  11.091  18.656  0.00  0.00    +0.000 NA
ATOM      7  C   UNL     1       0.809   9.806  18.885  0.00  0.00    +0.000 A 
ATOM      8  N   UNL     1       1.360   9.099  17.812  0.00  0.00    +0.000 N 
ATOM      9  C   UNL     1       2.195   7.975  17.868  0.00  0.00    +0.000 A 
ATOM     10  C   UNL     1       2.041   7.011  18.844  0.00  0.00    +0.000 A 
ATOM     11  C   UNL     1       2.991   6.013  18.930  0.00  0.00    +0.000 A 
ATOM     12  N   UNL     1       4.021   5.956  18.068  0.00  0.00    +0.000 NA
ATOM     13  C   UNL     1       4.044   6.869  17.081  0.00  0.00    +0.000 A 
ATOM     14  C   UNL     1       5.144   6.744  16.075  0.00  0.00    +0.000 C 
ATOM     15  N   UNL     1       3.162   7.876  16.937  0.00  0.00    +0.000 NA
ATOM     16  N   UNL     1       0.652   9.228  20.088  0.00  0.00    +0.000 NA
ATOM     17  H   UNL     1       1.678   9.748  17.107  0.00  0.00    +0.000 HD
ENDROOT
BRANCH  11  18
ATOM     18  C   UNL     1       2.932   5.013  20.079  0.00  0.00    +0.000 C 
ATOM     19  C   UNL     1       4.136   4.054  20.132  0.00  0.00    +0.000 C 
ATOM     20  C   UNL     1       4.058   2.990  19.037  0.00  0.00    +0.000 C 
ATOM     21  C   UNL     1       2.702   2.279  19.024  0.00  0.00    +0.000 C 
ATOM     22  N   UNL     1       1.581   3.225  18.969  0.00  0.00    +0.000 NA
ATOM     23  C   UNL     1       0.301   2.524  18.939  0.00  0.00    +0.000 C 
ATOM     24  C   UNL     1       1.632   4.177  20.087  0.00  0.00    +0.000 C 
ENDBRANCH  11  18
TORSDOF 1
ENDMDL
MODEL 9
REMARK VINA RESULT:      -6.4      2.064      4.882
REMARK  Name = 
REMARK  5 active torsions:
REMARK  status: ('A' for Active; 'I' for Inactive)
REMARK    1  A    between atoms: C_1  and  C_2
REMARK    2  A    between atoms: C_4  and  C_5
REMARK    3  A    between atoms: C_11  and  C_12
REMARK    4  A    between atoms: N_16  and  C_17
REMARK    5  A    between atoms: C_20  and  C_21
REMARK                            x       y       z     vdW  Elec       q    Type
REMARK                         _______ _______ _______ _____ _____    ______ ____
ROOT
ATOM      1  C   UNL     1      -0.223  10.083  21.233  0.00  0.00    +0.000 C 
ATOM      2  C   UNL     1       0.571  10.480  20.026  0.00  0.00    +0.000 A 
ATOM      3  C   UNL     1       0.777  11.799  19.708  0.00  0.00    +0.000 A 
ATOM      4  C   UNL     1       1.596  12.042  18.623  0.00  0.00    +0.000 A 
ATOM      5  C   UNL     1       1.878  13.447  18.186  0.00  0.00    +0.000 C 
ATOM      6  N   UNL     1       2.192  11.052  17.923  0.00  0.00    +0.000 NA
ATOM      7  C   UNL     1       1.973   9.785  18.319  0.00  0.00    +0.000 A 
ATOM      8  N   UNL     1       2.688   8.787  17.652  0.00  0.00    +0.000 N 
ATOM      9  C   UNL     1       3.024   7.512  18.128  0.00  0.00    +0.000 A 
ATOM     10  C   UNL     1       2.174   6.803  18.951  0.00  0.00    +0.000 A 
ATOM     11  C   UNL     1       2.633   5.624  19.504  0.00  0.00    +0.000 A 
ATOM     12  N   UNL     1       3.863   5.157  19.223  0.00  0.00    +0.000 NA
ATOM     13  C   UNL     1       4.592   5.849  18.331  0.00  0.00    +0.000 A 
ATOM     14  C   UNL     1       5.922   5.274  17.958  0.00  0.00    +0.000 C 
ATOM     15  N   UNL     1       4.217   7.010  17.759  0.00  0.00    +0.000 NA
ATOM     16  N   UNL     1       1.140   9.483  19.329  0.00  0.00    +0.000 NA
ATOM     17  H   UNL     1       3.463   9.200  17.155  0.00  0.00    +0.000 HD
ENDROOT
BRANCH  11  18
ATOM     18  C   UNL     1       1.777   4.885  20.526  0.00  0.00    +0.000 C 
ATOM     19  C   UNL     1       2.591   4.103  21.572  0.00  0.00    +0.000 C 
ATOM     20  C   UNL     1       3.200   2.833  20.979  0.00  0.00    +0.000 C 
ATOM     21  C   UNL     1       2.155   1.984  20.249  0.00  0.00    +0.000 C 
ATOM     22  N   UNL     1       1.403   2.762  19.258  0.00  0.00    +0.000 NA
ATOM     23  C   UNL     1       0.427   1.928  18.563  0.00  0.00    +0.000 C 
ATOM     24  C   UNL     1       0.753   3.927  19.876  0.00  0.00    +0.000 C 
ENDBRANCH  11  18
TORSDOF 1
ENDMDL
