MODEL 1
REMARK VINA RESULT:      -8.1      0.000      0.000
REMARK  Name = 
REMARK  3 active torsions:
REMARK  status: ('A' for Active; 'I' for Inactive)
REMARK    1  A    between atoms: C_4  and  C_5
REMARK    2  A    between atoms: C_8  and  N_9
REMARK    3  A    between atoms: C_10  and  C_12
REMARK                            x       y       z     vdW  Elec       q    Type
REMARK                         _______ _______ _______ _____ _____    ______ ____
ROOT
ATOM      1  C   UNL     1      -0.115  10.742  21.766  0.00  0.00    +0.000 A 
ATOM      2  C   UNL     1       0.047  10.776  20.373  0.00  0.00    +0.000 A 
ATOM      3  C   UNL     1       0.701   9.737  19.707  0.00  0.00    +0.000 A 
ATOM      4  C   UNL     1       1.209   8.626  20.422  0.00  0.00    +0.000 A 
ATOM      5  C   UNL     1       1.028   8.598  21.813  0.00  0.00    +0.000 A 
ATOM      6  C   UNL     1       0.389   9.639  22.481  0.00  0.00    +0.000 A 
ATOM      7  F   UNL     1       0.254   9.550  23.829  0.00  0.00    +0.000 F 
ENDROOT
BRANCH   1  11
ATOM      8  N   UNL     1      -0.968  15.000  23.947  0.00  0.00    +0.000 N 
ATOM      9  C   UNL     1      -1.178  13.699  23.443  0.00  0.00    +0.000 A 
ATOM     10  N   UNL     1      -0.229  13.007  22.794  0.00  0.00    +0.000 NA
ATOM     11  C   UNL     1      -0.817  11.835  22.480  0.00  0.00    +0.000 A 
ATOM     12  C   UNL     1      -2.123  11.846  22.949  0.00  0.00    +0.000 A 
ATOM     13  N   UNL     1      -2.334  13.025  23.561  0.00  0.00    +0.000 N 
ATOM     14  H   UNL     1      -0.055  15.458  23.814  0.00  0.00    +0.000 HD
ATOM     15  H   UNL     1      -1.720  15.496  24.445  0.00  0.00    +0.000 HD
ATOM     16  H   UNL     1      -3.213  13.344  24.027  0.00  0.00    +0.000 HD
ENDBRANCH   1  11
BRANCH   4  17
ATOM     17  N   UNL     1       1.888   7.516  19.813  0.00  0.00    +0.000 N 
ATOM     18  C   UNL     1       2.496   7.516  18.584  0.00  0.00    +0.000 C 
ATOM     19  O   UNL     1       2.533   8.539  17.920  0.00  0.00    +0.000 OA
ATOM     20  H   UNL     1       1.942   6.666  20.385  0.00  0.00    +0.000 HD
BRANCH  18  21
ATOM     21  C   UNL     1       3.180   6.306  18.024  0.00  0.00    +0.000 A 
ATOM     22  C   UNL     1       2.622   5.007  18.059  0.00  0.00    +0.000 A 
ATOM     23  C   UNL     1       3.316   3.920  17.512  0.00  0.00    +0.000 A 
ATOM     24 CL   UNL     1       2.610   2.315  17.562  0.00  0.00    +0.000 Cl
ATOM     25  C   UNL     1       4.568   4.109  16.926  0.00  0.00    +0.000 A 
ATOM     26  C   UNL     1       5.134   5.383  16.883  0.00  0.00    +0.000 A 
ATOM     27 CL   UNL     1       6.707   5.627  16.147  0.00  0.00    +0.000 Cl
ATOM     28  C   UNL     1       4.447   6.468  17.425  0.00  0.00    +0.000 A 
ENDBRANCH  18  21
ENDBRANCH   4  17
TORSDOF 3
ENDMDL
MODEL 2
REMARK VINA RESULT:      -8.0      0.644      2.144
REMARK  Name = 
REMARK  3 active torsions:
REMARK  status: ('A' for Active; 'I' for Inactive)
REMARK    1  A    between atoms: C_4  and  C_5
REMARK    2  A    between atoms: C_8  and  N_9
REMARK    3  A    between atoms: C_10  and  C_12
REMARK                            x       y       z     vdW  Elec       q    Type
REMARK                         _______ _______ _______ _____ _____    ______ ____
ROOT
ATOM      1  C   UNL     1      -0.304  10.793  21.809  0.00  0.00    +0.000 A 
ATOM      2  C   UNL     1      -0.103  10.876  20.423  0.00  0.00    +0.000 A 
ATOM      3  C   UNL     1       0.621   9.890  19.749  0.00  0.00    +0.000 A 
ATOM      4  C   UNL     1       1.162   8.785  20.448  0.00  0.00    +0.000 A 
ATOM      5  C   UNL     1       0.942   8.707  21.831  0.00  0.00    +0.000 A 
ATOM      6  C   UNL     1       0.232   9.695  22.508  0.00  0.00    +0.000 A 
ATOM      7  F   UNL     1       0.063   9.560  23.848  0.00  0.00    +0.000 F 
ENDROOT
BRANCH   1  11
ATOM      8  N   UNL     1      -3.829  12.935  24.378  0.00  0.00    +0.000 N 
ATOM      9  C   UNL     1      -2.634  12.761  23.649  0.00  0.00    +0.000 A 
ATOM     10  N   UNL     1      -2.255  11.577  23.143  0.00  0.00    +0.000 NA
ATOM     11  C   UNL     1      -1.079  11.829  22.532  0.00  0.00    +0.000 A 
ATOM     12  C   UNL     1      -0.770  13.172  22.687  0.00  0.00    +0.000 A 
ATOM     13  N   UNL     1      -1.763  13.750  23.386  0.00  0.00    +0.000 N 
ATOM     14  H   UNL     1      -4.448  12.128  24.546  0.00  0.00    +0.000 HD
ATOM     15  H   UNL     1      -4.088  13.861  24.745  0.00  0.00    +0.000 HD
ATOM     16  H   UNL     1      -1.836  14.754  23.665  0.00  0.00    +0.000 HD
ENDBRANCH   1  11
BRANCH   4  17
ATOM     17  N   UNL     1       1.913   7.728  19.829  0.00  0.00    +0.000 N 
ATOM     18  C   UNL     1       2.401   7.726  18.548  0.00  0.00    +0.000 C 
ATOM     19  O   UNL     1       2.251   8.705  17.835  0.00  0.00    +0.000 OA
ATOM     20  H   UNL     1       2.122   6.925  20.433  0.00  0.00    +0.000 HD
BRANCH  18  21
ATOM     21  C   UNL     1       3.173   6.572  17.982  0.00  0.00    +0.000 A 
ATOM     22  C   UNL     1       4.475   6.692  17.444  0.00  0.00    +0.000 A 
ATOM     23  C   UNL     1       5.141   5.570  16.935  0.00  0.00    +0.000 A 
ATOM     24 CL   UNL     1       6.756   5.735  16.271  0.00  0.00    +0.000 Cl
ATOM     25  C   UNL     1       4.523   4.318  16.955  0.00  0.00    +0.000 A 
ATOM     26  C   UNL     1       3.240   4.181  17.482  0.00  0.00    +0.000 A 
ATOM     27 CL   UNL     1       2.460   2.610  17.510  0.00  0.00    +0.000 Cl
ATOM     28  C   UNL     1       2.573   5.295  17.990  0.00  0.00    +0.000 A 
ENDBRANCH  18  21
ENDBRANCH   4  17
TORSDOF 3
ENDMDL
MODEL 3
REMARK VINA RESULT:      -8.0      4.908      9.537
REMARK  Name = 
REMARK  3 active torsions:
REMARK  status: ('A' for Active; 'I' for Inactive)
REMARK    1  A    between atoms: C_4  and  C_5
REMARK    2  A    between atoms: C_8  and  N_9
REMARK    3  A    between atoms: C_10  and  C_12
REMARK                            x       y       z     vdW  Elec       q    Type
REMARK                         _______ _______ _______ _____ _____    ______ ____
ROOT
ATOM      1  C   UNL     1       2.362   6.982  19.356  0.00  0.00    +0.000 A 
ATOM      2  C   UNL     1       1.778   6.886  20.628  0.00  0.00    +0.000 A 
ATOM      3  C   UNL     1       1.018   7.938  21.143  0.00  0.00    +0.000 A 
ATOM      4  C   UNL     1       0.816   9.120  20.392  0.00  0.00    +0.000 A 
ATOM      5  C   UNL     1       1.394   9.198  19.116  0.00  0.00    +0.000 A 
ATOM      6  C   UNL     1       2.164   8.157  18.605  0.00  0.00    +0.000 A 
ATOM      7  F   UNL     1       2.699   8.302  17.366  0.00  0.00    +0.000 F 
ENDROOT
BRANCH   1  11
ATOM      8  N   UNL     1       6.061   3.939  18.540  0.00  0.00    +0.000 N 
ATOM      9  C   UNL     1       4.792   4.545  18.437  0.00  0.00    +0.000 A 
ATOM     10  N   UNL     1       4.422   5.594  19.188  0.00  0.00    +0.000 NA
ATOM     11  C   UNL     1       3.161   5.867  18.796  0.00  0.00    +0.000 A 
ATOM     12  C   UNL     1       2.792   4.964  17.809  0.00  0.00    +0.000 A 
ATOM     13  N   UNL     1       3.832   4.142  17.587  0.00  0.00    +0.000 N 
ATOM     14  H   UNL     1       6.746   4.299  19.220  0.00  0.00    +0.000 HD
ATOM     15  H   UNL     1       6.309   3.138  17.942  0.00  0.00    +0.000 HD
ATOM     16  H   UNL     1       3.880   3.357  16.900  0.00  0.00    +0.000 HD
ENDBRANCH   1  11
BRANCH   4  17
ATOM     17  N   UNL     1       0.045  10.244  20.848  0.00  0.00    +0.000 N 
ATOM     18  C   UNL     1      -0.086  10.662  22.146  0.00  0.00    +0.000 C 
ATOM     19  O   UNL     1       0.522  10.090  23.037  0.00  0.00    +0.000 OA
ATOM     20  H   UNL     1      -0.413  10.791  20.110  0.00  0.00    +0.000 HD
BRANCH  18  21
ATOM     21  C   UNL     1      -0.918  11.847  22.531  0.00  0.00    +0.000 A 
ATOM     22  C   UNL     1      -0.590  13.178  22.184  0.00  0.00    +0.000 A 
ATOM     23  C   UNL     1      -1.417  14.239  22.574  0.00  0.00    +0.000 A 
ATOM     24 CL   UNL     1      -0.997  15.885  22.136  0.00  0.00    +0.000 Cl
ATOM     25  C   UNL     1      -2.577  13.992  23.311  0.00  0.00    +0.000 A 
ATOM     26  C   UNL     1      -2.916  12.686  23.661  0.00  0.00    +0.000 A 
ATOM     27 CL   UNL     1      -4.372  12.369  24.586  0.00  0.00    +0.000 Cl
ATOM     28  C   UNL     1      -2.097  11.626  23.275  0.00  0.00    +0.000 A 
ENDBRANCH  18  21
ENDBRANCH   4  17
TORSDOF 3
ENDMDL
MODEL 4
REMARK VINA RESULT:      -8.0      4.676      9.348
REMARK  Name = 
REMARK  3 active torsions:
REMARK  status: ('A' for Active; 'I' for Inactive)
REMARK    1  A    between atoms: C_4  and  C_5
REMARK    2  A    between atoms: C_8  and  N_9
REMARK    3  A    between atoms: C_10  and  C_12
REMARK                            x       y       z     vdW  Elec       q    Type
REMARK                         _______ _______ _______ _____ _____    ______ ____
ROOT
ATOM      1  C   UNL     1       2.848   5.808  19.387  0.00  0.00    +0.000 A 
ATOM      2  C   UNL     1       2.930   6.882  18.488  0.00  0.00    +0.000 A 
ATOM      3  C   UNL     1       2.251   8.075  18.742  0.00  0.00    +0.000 A 
ATOM      4  C   UNL     1       1.471   8.229  19.914  0.00  0.00    +0.000 A 
ATOM      5  C   UNL     1       1.409   7.152  20.811  0.00  0.00    +0.000 A 
ATOM      6  C   UNL     1       2.074   5.956  20.553  0.00  0.00    +0.000 A 
ATOM      7  F   UNL     1       1.964   4.953  21.461  0.00  0.00    +0.000 F 
ENDROOT
BRANCH   1  11
ATOM      8  N   UNL     1       3.720   1.153  18.300  0.00  0.00    +0.000 N 
ATOM      9  C   UNL     1       3.944   2.497  18.664  0.00  0.00    +0.000 A 
ATOM     10  N   UNL     1       2.955   3.397  18.775  0.00  0.00    +0.000 NA
ATOM     11  C   UNL     1       3.573   4.541  19.131  0.00  0.00    +0.000 A 
ATOM     12  C   UNL     1       4.937   4.305  19.225  0.00  0.00    +0.000 A 
ATOM     13  N   UNL     1       5.156   3.010  18.936  0.00  0.00    +0.000 N 
ATOM     14  H   UNL     1       2.762   0.830  18.100  0.00  0.00    +0.000 HD
ATOM     15  H   UNL     1       4.505   0.491  18.231  0.00  0.00    +0.000 HD
ATOM     16  H   UNL     1       6.075   2.513  18.925  0.00  0.00    +0.000 HD
ENDBRANCH   1  11
BRANCH   4  17
ATOM     17  N   UNL     1       0.748   9.424  20.251  0.00  0.00    +0.000 N 
ATOM     18  C   UNL     1       0.805  10.094  21.445  0.00  0.00    +0.000 C 
ATOM     19  O   UNL     1       1.556   9.709  22.326  0.00  0.00    +0.000 OA
ATOM     20  H   UNL     1       0.169   9.814  19.498  0.00  0.00    +0.000 HD
BRANCH  18  21
ATOM     21  C   UNL     1       0.009  11.336  21.710  0.00  0.00    +0.000 A 
ATOM     22  C   UNL     1       0.333  12.602  21.170  0.00  0.00    +0.000 A 
ATOM     23  C   UNL     1      -0.459  13.721  21.457  0.00  0.00    +0.000 A 
ATOM     24 CL   UNL     1      -0.045  15.285  20.779  0.00  0.00    +0.000 Cl
ATOM     25  C   UNL     1      -1.578  13.597  22.282  0.00  0.00    +0.000 A 
ATOM     26  C   UNL     1      -1.912  12.357  22.824  0.00  0.00    +0.000 A 
ATOM     27 CL   UNL     1      -3.317  12.195  23.860  0.00  0.00    +0.000 Cl
ATOM     28  C   UNL     1      -1.128  11.239  22.541  0.00  0.00    +0.000 A 
ENDBRANCH  18  21
ENDBRANCH   4  17
TORSDOF 3
ENDMDL
MODEL 5
REMARK VINA RESULT:      -8.0      4.685      9.191
REMARK  Name = 
REMARK  3 active torsions:
REMARK  status: ('A' for Active; 'I' for Inactive)
REMARK    1  A    between atoms: C_4  and  C_5
REMARK    2  A    between atoms: C_8  and  N_9
REMARK    3  A    between atoms: C_10  and  C_12
REMARK                            x       y       z     vdW  Elec       q    Type
REMARK                         _______ _______ _______ _____ _____    ______ ____
ROOT
ATOM      1  C   UNL     1       2.808   5.830  19.421  0.00  0.00    +0.000 A 
ATOM      2  C   UNL     1       2.868   6.936  18.559  0.00  0.00    +0.000 A 
ATOM      3  C   UNL     1       2.160   8.103  18.850  0.00  0.00    +0.000 A 
ATOM      4  C   UNL     1       1.371   8.198  20.022  0.00  0.00    +0.000 A 
ATOM      5  C   UNL     1       1.332   7.091  20.882  0.00  0.00    +0.000 A 
ATOM      6  C   UNL     1       2.025   5.920  20.588  0.00  0.00    +0.000 A 
ATOM      7  F   UNL     1       1.936   4.885  21.460  0.00  0.00    +0.000 F 
ENDROOT
BRANCH   1  11
ATOM      8  N   UNL     1       3.791   1.223  18.229  0.00  0.00    +0.000 N 
ATOM      9  C   UNL     1       3.984   2.567  18.613  0.00  0.00    +0.000 A 
ATOM     10  N   UNL     1       2.972   3.434  18.762  0.00  0.00    +0.000 NA
ATOM     11  C   UNL     1       3.564   4.590  19.126  0.00  0.00    +0.000 A 
ATOM     12  C   UNL     1       4.936   4.393  19.185  0.00  0.00    +0.000 A 
ATOM     13  N   UNL     1       5.186   3.111  18.868  0.00  0.00    +0.000 N 
ATOM     14  H   UNL     1       2.839   0.875  18.045  0.00  0.00    +0.000 HD
ATOM     15  H   UNL     1       4.594   0.586  18.131  0.00  0.00    +0.000 HD
ATOM     16  H   UNL     1       6.119   2.642  18.827  0.00  0.00    +0.000 HD
ENDBRANCH   1  11
BRANCH   4  17
ATOM     17  N   UNL     1       0.619   9.364  20.396  0.00  0.00    +0.000 N 
ATOM     18  C   UNL     1       0.679  10.013  21.602  0.00  0.00    +0.000 C 
ATOM     19  O   UNL     1       1.460   9.636  22.461  0.00  0.00    +0.000 OA
ATOM     20  H   UNL     1       0.013   9.750  19.663  0.00  0.00    +0.000 HD
BRANCH  18  21
ATOM     21  C   UNL     1      -0.149  11.225  21.906  0.00  0.00    +0.000 A 
ATOM     22  C   UNL     1      -1.304  11.196  22.722  0.00  0.00    +0.000 A 
ATOM     23  C   UNL     1      -2.029  12.370  22.968  0.00  0.00    +0.000 A 
ATOM     24 CL   UNL     1      -3.460  12.319  23.982  0.00  0.00    +0.000 Cl
ATOM     25  C   UNL     1      -1.617  13.580  22.410  0.00  0.00    +0.000 A 
ATOM     26  C   UNL     1      -0.481  13.627  21.604  0.00  0.00    +0.000 A 
ATOM     27 CL   UNL     1       0.042  15.146  20.900  0.00  0.00    +0.000 Cl
ATOM     28  C   UNL     1       0.245  12.463  21.355  0.00  0.00    +0.000 A 
ENDBRANCH  18  21
ENDBRANCH   4  17
TORSDOF 3
ENDMDL
MODEL 6
REMARK VINA RESULT:      -7.9      4.904      9.352
REMARK  Name = 
REMARK  3 active torsions:
REMARK  status: ('A' for Active; 'I' for Inactive)
REMARK    1  A    between atoms: C_4  and  C_5
REMARK    2  A    between atoms: C_8  and  N_9
REMARK    3  A    between atoms: C_10  and  C_12
REMARK                            x       y       z     vdW  Elec       q    Type
REMARK                         _______ _______ _______ _____ _____    ______ ____
ROOT
ATOM      1  C   UNL     1       2.374   6.942  19.405  0.00  0.00    +0.000 A 
ATOM      2  C   UNL     1       1.782   6.799  20.669  0.00  0.00    +0.000 A 
ATOM      3  C   UNL     1       0.987   7.817  21.201  0.00  0.00    +0.000 A 
ATOM      4  C   UNL     1       0.758   9.010  20.475  0.00  0.00    +0.000 A 
ATOM      5  C   UNL     1       1.345   9.134  19.207  0.00  0.00    +0.000 A 
ATOM      6  C   UNL     1       2.149   8.127  18.679  0.00  0.00    +0.000 A 
ATOM      7  F   UNL     1       2.691   8.316  17.450  0.00  0.00    +0.000 F 
ENDROOT
BRANCH   1  11
ATOM      8  N   UNL     1       6.157   4.006  18.578  0.00  0.00    +0.000 N 
ATOM      9  C   UNL     1       4.877   4.589  18.465  0.00  0.00    +0.000 A 
ATOM     10  N   UNL     1       4.468   5.604  19.240  0.00  0.00    +0.000 NA
ATOM     11  C   UNL     1       3.211   5.863  18.828  0.00  0.00    +0.000 A 
ATOM     12  C   UNL     1       2.884   4.986  17.803  0.00  0.00    +0.000 A 
ATOM     13  N   UNL     1       3.947   4.194  17.579  0.00  0.00    +0.000 N 
ATOM     14  H   UNL     1       6.818   4.358  19.285  0.00  0.00    +0.000 HD
ATOM     15  H   UNL     1       6.436   3.232  17.959  0.00  0.00    +0.000 HD
ATOM     16  H   UNL     1       4.027   3.433  16.868  0.00  0.00    +0.000 HD
ENDBRANCH   1  11
BRANCH   4  17
ATOM     17  N   UNL     1      -0.050  10.100  20.948  0.00  0.00    +0.000 N 
ATOM     18  C   UNL     1      -0.146  10.531  22.246  0.00  0.00    +0.000 C 
ATOM     19  O   UNL     1       0.527  10.004  23.117  0.00  0.00    +0.000 OA
ATOM     20  H   UNL     1      -0.565  10.612  20.224  0.00  0.00    +0.000 HD
BRANCH  18  21
ATOM     21  C   UNL     1      -1.021  11.678  22.650  0.00  0.00    +0.000 A 
ATOM     22  C   UNL     1      -2.238  11.524  23.355  0.00  0.00    +0.000 A 
ATOM     23  C   UNL     1      -3.004  12.643  23.705  0.00  0.00    +0.000 A 
ATOM     24 CL   UNL     1      -4.511  12.434  24.578  0.00  0.00    +0.000 Cl
ATOM     25  C   UNL     1      -2.573  13.925  23.361  0.00  0.00    +0.000 A 
ATOM     26  C   UNL     1      -1.376  14.097  22.667  0.00  0.00    +0.000 A 
ATOM     27 CL   UNL     1      -0.829  15.705  22.233  0.00  0.00    +0.000 Cl
ATOM     28  C   UNL     1      -0.609  12.986  22.316  0.00  0.00    +0.000 A 
ENDBRANCH  18  21
ENDBRANCH   4  17
TORSDOF 3
ENDMDL
MODEL 7
REMARK VINA RESULT:      -7.9      1.695      2.767
REMARK  Name = 
REMARK  3 active torsions:
REMARK  status: ('A' for Active; 'I' for Inactive)
REMARK    1  A    between atoms: C_4  and  C_5
REMARK    2  A    between atoms: C_8  and  N_9
REMARK    3  A    between atoms: C_10  and  C_12
REMARK                            x       y       z     vdW  Elec       q    Type
REMARK                         _______ _______ _______ _____ _____    ______ ____
ROOT
ATOM      1  C   UNL     1      -0.716  10.928  22.139  0.00  0.00    +0.000 A 
ATOM      2  C   UNL     1       0.103   9.996  22.793  0.00  0.00    +0.000 A 
ATOM      3  C   UNL     1       0.911   9.123  22.062  0.00  0.00    +0.000 A 
ATOM      4  C   UNL     1       0.925   9.163  20.647  0.00  0.00    +0.000 A 
ATOM      5  C   UNL     1       0.111  10.109  20.006  0.00  0.00    +0.000 A 
ATOM      6  C   UNL     1      -0.706  10.972  20.732  0.00  0.00    +0.000 A 
ATOM      7  F   UNL     1      -1.474  11.857  20.047  0.00  0.00    +0.000 F 
ENDROOT
BRANCH   1  11
ATOM      8  N   UNL     1      -4.453  12.701  24.690  0.00  0.00    +0.000 N 
ATOM      9  C   UNL     1      -3.216  12.637  24.014  0.00  0.00    +0.000 A 
ATOM     10  N   UNL     1      -2.763  11.518  23.428  0.00  0.00    +0.000 NA
ATOM     11  C   UNL     1      -1.570  11.866  22.906  0.00  0.00    +0.000 A 
ATOM     12  C   UNL     1      -1.324  13.201  23.195  0.00  0.00    +0.000 A 
ATOM     13  N   UNL     1      -2.374  13.677  23.887  0.00  0.00    +0.000 N 
ATOM     14  H   UNL     1      -5.046  11.860  24.753  0.00  0.00    +0.000 HD
ATOM     15  H   UNL     1      -4.769  13.581  25.122  0.00  0.00    +0.000 HD
ATOM     16  H   UNL     1      -2.503  14.648  24.248  0.00  0.00    +0.000 HD
ENDBRANCH   1  11
BRANCH   4  17
ATOM     17  N   UNL     1       1.730   8.305  19.823  0.00  0.00    +0.000 N 
ATOM     18  C   UNL     1       1.952   6.968  20.024  0.00  0.00    +0.000 C 
ATOM     19  O   UNL     1       1.406   6.389  20.949  0.00  0.00    +0.000 OA
ATOM     20  H   UNL     1       2.136   8.749  18.992  0.00  0.00    +0.000 HD
BRANCH  18  21
ATOM     21  C   UNL     1       2.814   6.148  19.111  0.00  0.00    +0.000 A 
ATOM     22  C   UNL     1       3.504   6.684  17.999  0.00  0.00    +0.000 A 
ATOM     23  C   UNL     1       4.297   5.859  17.190  0.00  0.00    +0.000 A 
ATOM     24 CL   UNL     1       5.147   6.538  15.814  0.00  0.00    +0.000 Cl
ATOM     25  C   UNL     1       4.412   4.498  17.474  0.00  0.00    +0.000 A 
ATOM     26  C   UNL     1       3.739   3.953  18.566  0.00  0.00    +0.000 A 
ATOM     27 CL   UNL     1       3.881   2.243  18.928  0.00  0.00    +0.000 Cl
ATOM     28  C   UNL     1       2.949   4.769  19.375  0.00  0.00    +0.000 A 
ENDBRANCH  18  21
ENDBRANCH   4  17
TORSDOF 3
ENDMDL
MODEL 8
REMARK VINA RESULT:      -7.8      0.675      1.952
REMARK  Name = 
REMARK  3 active torsions:
REMARK  status: ('A' for Active; 'I' for Inactive)
REMARK    1  A    between atoms: C_4  and  C_5
REMARK    2  A    between atoms: C_8  and  N_9
REMARK    3  A    between atoms: C_10  and  C_12
REMARK                            x       y       z     vdW  Elec       q    Type
REMARK                         _______ _______ _______ _____ _____    ______ ____
ROOT
ATOM      1  C   UNL     1       0.259  10.514  21.347  0.00  0.00    +0.000 A 
ATOM      2  C   UNL     1       0.297  10.493  19.945  0.00  0.00    +0.000 A 
ATOM      3  C   UNL     1       0.906   9.435  19.266  0.00  0.00    +0.000 A 
ATOM      4  C   UNL     1       1.492   8.361  19.976  0.00  0.00    +0.000 A 
ATOM      5  C   UNL     1       1.434   8.387  21.377  0.00  0.00    +0.000 A 
ATOM      6  C   UNL     1       0.841   9.447  22.058  0.00  0.00    +0.000 A 
ATOM      7  F   UNL     1       0.827   9.411  23.415  0.00  0.00    +0.000 F 
ENDROOT
BRANCH   1  11
ATOM      8  N   UNL     1      -0.636  14.954  23.108  0.00  0.00    +0.000 N 
ATOM      9  C   UNL     1      -0.771  13.573  22.852  0.00  0.00    +0.000 A 
ATOM     10  N   UNL     1       0.075  12.890  22.066  0.00  0.00    +0.000 NA
ATOM     11  C   UNL     1      -0.393  11.626  22.077  0.00  0.00    +0.000 A 
ATOM     12  C   UNL     1      -1.526  11.573  22.877  0.00  0.00    +0.000 A 
ATOM     13  N   UNL     1      -1.748  12.806  23.366  0.00  0.00    +0.000 N 
ATOM     14  H   UNL     1       0.137  15.480  22.674  0.00  0.00    +0.000 HD
ATOM     15  H   UNL     1      -1.302  15.441  23.722  0.00  0.00    +0.000 HD
ATOM     16  H   UNL     1      -2.518  13.100  24.007  0.00  0.00    +0.000 HD
ENDBRANCH   1  11
BRANCH   4  17
ATOM     17  N   UNL     1       2.131   7.235  19.353  0.00  0.00    +0.000 N 
ATOM     18  C   UNL     1       2.960   7.277  18.262  0.00  0.00    +0.000 C 
ATOM     19  O   UNL     1       3.251   8.349  17.757  0.00  0.00    +0.000 OA
ATOM     20  H   UNL     1       1.967   6.329  19.807  0.00  0.00    +0.000 HD
BRANCH  18  21
ATOM     21  C   UNL     1       3.582   6.047  17.675  0.00  0.00    +0.000 A 
ATOM     22  C   UNL     1       4.711   6.072  16.824  0.00  0.00    +0.000 A 
ATOM     23  C   UNL     1       5.243   4.881  16.313  0.00  0.00    +0.000 A 
ATOM     24 CL   UNL     1       6.644   4.928  15.259  0.00  0.00    +0.000 Cl
ATOM     25  C   UNL     1       4.663   3.655  16.641  0.00  0.00    +0.000 A 
ATOM     26  C   UNL     1       3.549   3.611  17.479  0.00  0.00    +0.000 A 
ATOM     27 CL   UNL     1       2.816   2.073  17.895  0.00  0.00    +0.000 Cl
ATOM     28  C   UNL     1       3.015   4.793  17.990  0.00  0.00    +0.000 A 
ENDBRANCH  18  21
ENDBRANCH   4  17
TORSDOF 3
ENDMDL
MODEL 9
REMARK VINA RESULT:      -7.8      4.827      9.486
REMARK  Name = 
REMARK  3 active torsions:
REMARK  status: ('A' for Active; 'I' for Inactive)
REMARK    1  A    between atoms: C_4  and  C_5
REMARK    2  A    between atoms: C_8  and  N_9
REMARK    3  A    between atoms: C_10  and  C_12
REMARK                            x       y       z     vdW  Elec       q    Type
REMARK                         _______ _______ _______ _____ _____    ______ ____
ROOT
ATOM      1  C   UNL     1       2.807   5.977  19.518  0.00  0.00    +0.000 A 
ATOM      2  C   UNL     1       2.028   5.982  20.685  0.00  0.00    +0.000 A 
ATOM      3  C   UNL     1       1.275   7.105  21.032  0.00  0.00    +0.000 A 
ATOM      4  C   UNL     1       1.277   8.260  20.213  0.00  0.00    +0.000 A 
ATOM      5  C   UNL     1       2.049   8.236  19.042  0.00  0.00    +0.000 A 
ATOM      6  C   UNL     1       2.812   7.122  18.700  0.00  0.00    +0.000 A 
ATOM      7  F   UNL     1       3.542   7.171  17.557  0.00  0.00    +0.000 F 
ENDROOT
BRANCH   1  11
ATOM      8  N   UNL     1       3.933   1.476  18.073  0.00  0.00    +0.000 N 
ATOM      9  C   UNL     1       4.085   2.808  18.512  0.00  0.00    +0.000 A 
ATOM     10  N   UNL     1       3.044   3.623  18.741  0.00  0.00    +0.000 NA
ATOM     11  C   UNL     1       3.601   4.786  19.136  0.00  0.00    +0.000 A 
ATOM     12  C   UNL     1       4.982   4.647  19.133  0.00  0.00    +0.000 A 
ATOM     13  N   UNL     1       5.273   3.392  18.746  0.00  0.00    +0.000 N 
ATOM     14  H   UNL     1       2.990   1.096  17.909  0.00  0.00    +0.000 HD
ATOM     15  H   UNL     1       4.757   0.880  17.914  0.00  0.00    +0.000 HD
ATOM     16  H   UNL     1       6.222   2.967  18.647  0.00  0.00    +0.000 HD
ENDBRANCH   1  11
BRANCH   4  17
ATOM     17  N   UNL     1       0.527   9.452  20.496  0.00  0.00    +0.000 N 
ATOM     18  C   UNL     1       0.550  10.162  21.668  0.00  0.00    +0.000 C 
ATOM     19  O   UNL     1       1.292   9.821  22.575  0.00  0.00    +0.000 OA
ATOM     20  H   UNL     1      -0.045   9.806  19.721  0.00  0.00    +0.000 HD
BRANCH  18  21
ATOM     21  C   UNL     1      -0.272  11.398  21.877  0.00  0.00    +0.000 A 
ATOM     22  C   UNL     1       0.008  12.637  21.257  0.00  0.00    +0.000 A 
ATOM     23  C   UNL     1      -0.806  13.752  21.495  0.00  0.00    +0.000 A 
ATOM     24 CL   UNL     1      -0.446  15.283  20.718  0.00  0.00    +0.000 Cl
ATOM     25  C   UNL     1      -1.905  13.649  22.349  0.00  0.00    +0.000 A 
ATOM     26  C   UNL     1      -2.198  12.435  22.968  0.00  0.00    +0.000 A 
ATOM     27 CL   UNL     1      -3.578  12.299  24.041  0.00  0.00    +0.000 Cl
ATOM     28  C   UNL     1      -1.390  11.322  22.735  0.00  0.00    +0.000 A 
ENDBRANCH  18  21
ENDBRANCH   4  17
TORSDOF 3
ENDMDL
