MODEL 1
REMARK VINA RESULT:      -8.5      0.000      0.000
REMARK  Name = 
REMARK  2 active torsions:
REMARK  status: ('A' for Active; 'I' for Inactive)
REMARK    1  A    between atoms: C_2  and  C_12
REMARK    2  A    between atoms: N_3  and  C_4
REMARK                            x       y       z     vdW  Elec       q    Type
REMARK                         _______ _______ _______ _____ _____    ______ ____
ROOT
ATOM      1  C   UNL     1       2.509   6.774  19.343  0.00  0.00    +0.000 C 
ATOM      2  C   UNL     1       3.102   6.975  18.136  0.00  0.00    +0.000 C 
ATOM      3  O   UNL     1       3.092   8.066  17.494  0.00  0.00    +0.000 OA
ATOM      4  C   UNL     1       3.866   5.788  17.546  0.00  0.00    +0.000 A 
ATOM      5  C   UNL     1       5.111   6.078  16.933  0.00  0.00    +0.000 A 
ATOM      6  C   UNL     1       5.900   5.090  16.327  0.00  0.00    +0.000 A 
ATOM      7 CL   UNL     1       7.399   5.504  15.584  0.00  0.00    +0.000 Cl
ATOM      8  C   UNL     1       5.479   3.768  16.314  0.00  0.00    +0.000 A 
ATOM      9  C   UNL     1       4.253   3.446  16.891  0.00  0.00    +0.000 A 
ATOM     10  C   UNL     1       3.447   4.444  17.492  0.00  0.00    +0.000 A 
ATOM     11  S   UNL     1       1.888   3.875  18.135  0.00  0.00    +0.000 S 
ATOM     12  O   UNL     1       0.838   4.419  17.299  0.00  0.00    +0.000 OA
ATOM     13  O   UNL     1       2.002   2.431  18.292  0.00  0.00    +0.000 OA
ATOM     14  C   UNL     1       1.688   4.492  19.778  0.00  0.00    +0.000 C 
ATOM     15  C   UNL     1       2.700   5.533  20.169  0.00  0.00    +0.000 C 
ENDROOT
BRANCH   1  17
ATOM     16  O   UNL     1       1.336   7.688  21.214  0.00  0.00    +0.000 OA
ATOM     17  C   UNL     1       1.644   7.835  20.020  0.00  0.00    +0.000 C 
ATOM     18  N   UNL     1       1.349   8.957  19.279  0.00  0.00    +0.000 N 
ATOM     19  H   UNL     1       1.890   8.993  18.393  0.00  0.00    +0.000 HD
BRANCH  18  20
ATOM     20  C   UNL     1       0.528  10.044  19.633  0.00  0.00    +0.000 A 
ATOM     21  C   UNL     1       0.856  10.902  20.688  0.00  0.00    +0.000 A 
ATOM     22  C   UNL     1       0.033  11.983  21.013  0.00  0.00    +0.000 A 
ATOM     23  C   UNL     1      -1.133  12.218  20.286  0.00  0.00    +0.000 A 
ATOM     24 CL   UNL     1      -2.084  13.591  20.731  0.00  0.00    +0.000 Cl
ATOM     25  C   UNL     1      -1.484  11.353  19.244  0.00  0.00    +0.000 A 
ATOM     26 CL   UNL     1      -2.916  11.594  18.304  0.00  0.00    +0.000 Cl
ATOM     27  C   UNL     1      -0.658  10.261  18.927  0.00  0.00    +0.000 A 
ENDBRANCH  18  20
ENDBRANCH   1  17
TORSDOF 2
ENDMDL
MODEL 2
REMARK VINA RESULT:      -8.3      0.658      1.414
REMARK  Name = 
REMARK  2 active torsions:
REMARK  status: ('A' for Active; 'I' for Inactive)
REMARK    1  A    between atoms: C_2  and  C_12
REMARK    2  A    between atoms: N_3  and  C_4
REMARK                            x       y       z     vdW  Elec       q    Type
REMARK                         _______ _______ _______ _____ _____    ______ ____
ROOT
ATOM      1  C   UNL     1       2.510   6.878  19.274  0.00  0.00    +0.000 C 
ATOM      2  C   UNL     1       3.110   7.027  18.063  0.00  0.00    +0.000 C 
ATOM      3  O   UNL     1       3.110   8.090  17.377  0.00  0.00    +0.000 OA
ATOM      4  C   UNL     1       3.869   5.811  17.526  0.00  0.00    +0.000 A 
ATOM      5  C   UNL     1       5.118   6.068  16.907  0.00  0.00    +0.000 A 
ATOM      6  C   UNL     1       5.905   5.051  16.346  0.00  0.00    +0.000 A 
ATOM      7 CL   UNL     1       7.409   5.424  15.595  0.00  0.00    +0.000 Cl
ATOM      8  C   UNL     1       5.474   3.733  16.385  0.00  0.00    +0.000 A 
ATOM      9  C   UNL     1       4.244   3.442  16.969  0.00  0.00    +0.000 A 
ATOM     10  C   UNL     1       3.442   4.469  17.525  0.00  0.00    +0.000 A 
ATOM     11  S   UNL     1       1.875   3.937  18.182  0.00  0.00    +0.000 S 
ATOM     12  O   UNL     1       0.833   4.453  17.320  0.00  0.00    +0.000 OA
ATOM     13  O   UNL     1       1.979   2.500  18.399  0.00  0.00    +0.000 OA
ATOM     14  C   UNL     1       1.672   4.622  19.798  0.00  0.00    +0.000 C 
ATOM     15  C   UNL     1       2.688   5.671  20.151  0.00  0.00    +0.000 C 
ENDROOT
BRANCH   1  17
ATOM     16  O   UNL     1       1.354   7.887  21.106  0.00  0.00    +0.000 OA
ATOM     17  C   UNL     1       1.648   7.972  19.903  0.00  0.00    +0.000 C 
ATOM     18  N   UNL     1       1.343   9.053  19.107  0.00  0.00    +0.000 N 
ATOM     19  H   UNL     1       1.876   9.043  18.215  0.00  0.00    +0.000 HD
BRANCH  18  20
ATOM     20  C   UNL     1       0.523  10.155  19.411  0.00  0.00    +0.000 A 
ATOM     21  C   UNL     1      -0.815  10.212  19.006  0.00  0.00    +0.000 A 
ATOM     22  C   UNL     1      -1.615  11.309  19.330  0.00  0.00    +0.000 A 
ATOM     23  C   UNL     1      -1.085  12.369  20.063  0.00  0.00    +0.000 A 
ATOM     24 CL   UNL     1      -2.145  13.679  20.449  0.00  0.00    +0.000 Cl
ATOM     25  C   UNL     1       0.259  12.336  20.453  0.00  0.00    +0.000 A 
ATOM     26 CL   UNL     1       0.974  13.620  21.367  0.00  0.00    +0.000 Cl
ATOM     27  C   UNL     1       1.063  11.234  20.116  0.00  0.00    +0.000 A 
ENDBRANCH  18  20
ENDBRANCH   1  17
TORSDOF 2
ENDMDL
MODEL 3
REMARK VINA RESULT:      -8.1      0.888      1.343
REMARK  Name = 
REMARK  2 active torsions:
REMARK  status: ('A' for Active; 'I' for Inactive)
REMARK    1  A    between atoms: C_2  and  C_12
REMARK    2  A    between atoms: N_3  and  C_4
REMARK                            x       y       z     vdW  Elec       q    Type
REMARK                         _______ _______ _______ _____ _____    ______ ____
ROOT
ATOM      1  C   UNL     1       2.625   6.598  19.306  0.00  0.00    +0.000 C 
ATOM      2  C   UNL     1       3.180   6.840  18.088  0.00  0.00    +0.000 C 
ATOM      3  O   UNL     1       3.122   7.943  17.469  0.00  0.00    +0.000 OA
ATOM      4  C   UNL     1       3.959   5.686  17.453  0.00  0.00    +0.000 A 
ATOM      5  C   UNL     1       5.178   6.024  16.813  0.00  0.00    +0.000 A 
ATOM      6  C   UNL     1       5.978   5.070  16.166  0.00  0.00    +0.000 A 
ATOM      7 CL   UNL     1       7.443   5.540  15.392  0.00  0.00    +0.000 Cl
ATOM      8  C   UNL     1       5.592   3.738  16.137  0.00  0.00    +0.000 A 
ATOM      9  C   UNL     1       4.392   3.370  16.739  0.00  0.00    +0.000 A 
ATOM     10  C   UNL     1       3.576   4.333  17.383  0.00  0.00    +0.000 A 
ATOM     11  S   UNL     1       2.051   3.708  18.055  0.00  0.00    +0.000 S 
ATOM     12  O   UNL     1       0.964   4.239  17.259  0.00  0.00    +0.000 OA
ATOM     13  O   UNL     1       2.209   2.265  18.179  0.00  0.00    +0.000 OA
ATOM     14  C   UNL     1       1.880   4.286  19.716  0.00  0.00    +0.000 C 
ATOM     15  C   UNL     1       2.872   5.347  20.100  0.00  0.00    +0.000 C 
ENDROOT
BRANCH   1  17
ATOM     16  O   UNL     1       1.411   7.399  21.201  0.00  0.00    +0.000 OA
ATOM     17  C   UNL     1       1.750   7.621  20.027  0.00  0.00    +0.000 C 
ATOM     18  N   UNL     1       1.483   8.791  19.354  0.00  0.00    +0.000 N 
ATOM     19  H   UNL     1       2.048   8.879  18.486  0.00  0.00    +0.000 HD
BRANCH  18  20
ATOM     20  C   UNL     1       0.661   9.860  19.756  0.00  0.00    +0.000 A 
ATOM     21  C   UNL     1       0.279  10.870  18.867  0.00  0.00    +0.000 A 
ATOM     22  C   UNL     1      -0.550  11.914  19.284  0.00  0.00    +0.000 A 
ATOM     23  C   UNL     1      -1.004  11.964  20.600  0.00  0.00    +0.000 A 
ATOM     24 CL   UNL     1      -2.047  13.273  21.033  0.00  0.00    +0.000 Cl
ATOM     25  C   UNL     1      -0.608  10.973  21.506  0.00  0.00    +0.000 A 
ATOM     26 CL   UNL     1      -1.142  10.979  23.152  0.00  0.00    +0.000 Cl
ATOM     27  C   UNL     1       0.233   9.930  21.084  0.00  0.00    +0.000 A 
ENDBRANCH  18  20
ENDBRANCH   1  17
TORSDOF 2
ENDMDL
MODEL 4
REMARK VINA RESULT:      -8.0      1.258      1.470
REMARK  Name = 
REMARK  2 active torsions:
REMARK  status: ('A' for Active; 'I' for Inactive)
REMARK    1  A    between atoms: C_2  and  C_12
REMARK    2  A    between atoms: N_3  and  C_4
REMARK                            x       y       z     vdW  Elec       q    Type
REMARK                         _______ _______ _______ _____ _____    ______ ____
ROOT
ATOM      1  C   UNL     1       2.396   6.205  19.691  0.00  0.00    +0.000 C 
ATOM      2  C   UNL     1       2.986   6.697  18.568  0.00  0.00    +0.000 C 
ATOM      3  O   UNL     1       2.849   7.878  18.133  0.00  0.00    +0.000 OA
ATOM      4  C   UNL     1       3.910   5.742  17.810  0.00  0.00    +0.000 A 
ATOM      5  C   UNL     1       5.120   6.291  17.317  0.00  0.00    +0.000 A 
ATOM      6  C   UNL     1       6.045   5.537  16.580  0.00  0.00    +0.000 A 
ATOM      7 CL   UNL     1       7.493   6.261  15.994  0.00  0.00    +0.000 Cl
ATOM      8  C   UNL     1       5.798   4.198  16.310  0.00  0.00    +0.000 A 
ATOM      9  C   UNL     1       4.611   3.627  16.762  0.00  0.00    +0.000 A 
ATOM     10  C   UNL     1       3.670   4.390  17.496  0.00  0.00    +0.000 A 
ATOM     11  S   UNL     1       2.182   3.525  17.952  0.00  0.00    +0.000 S 
ATOM     12  O   UNL     1       1.090   4.081  17.181  0.00  0.00    +0.000 OA
ATOM     13  O   UNL     1       2.479   2.102  17.853  0.00  0.00    +0.000 OA
ATOM     14  C   UNL     1       1.867   3.799  19.669  0.00  0.00    +0.000 C 
ATOM     15  C   UNL     1       2.727   4.866  20.287  0.00  0.00    +0.000 C 
ENDROOT
BRANCH   1  17
ATOM     16  O   UNL     1       0.514   6.401  21.150  0.00  0.00    +0.000 OA
ATOM     17  C   UNL     1       1.385   7.009  20.507  0.00  0.00    +0.000 C 
ATOM     18  N   UNL     1       1.579   8.370  20.563  0.00  0.00    +0.000 N 
ATOM     19  H   UNL     1       2.491   8.652  20.152  0.00  0.00    +0.000 HD
BRANCH  18  20
ATOM     20  C   UNL     1       0.769   9.341  21.182  0.00  0.00    +0.000 A 
ATOM     21  C   UNL     1       0.372   9.225  22.518  0.00  0.00    +0.000 A 
ATOM     22  C   UNL     1      -0.420  10.208  23.116  0.00  0.00    +0.000 A 
ATOM     23  C   UNL     1      -0.830  11.320  22.382  0.00  0.00    +0.000 A 
ATOM     24 CL   UNL     1      -1.785  12.505  23.200  0.00  0.00    +0.000 Cl
ATOM     25  C   UNL     1      -0.460  11.434  21.037  0.00  0.00    +0.000 A 
ATOM     26 CL   UNL     1      -0.935  12.791  20.075  0.00  0.00    +0.000 Cl
ATOM     27  C   UNL     1       0.329  10.438  20.437  0.00  0.00    +0.000 A 
ENDBRANCH  18  20
ENDBRANCH   1  17
TORSDOF 2
ENDMDL
MODEL 5
REMARK VINA RESULT:      -7.7      1.477      1.743
REMARK  Name = 
REMARK  2 active torsions:
REMARK  status: ('A' for Active; 'I' for Inactive)
REMARK    1  A    between atoms: C_2  and  C_12
REMARK    2  A    between atoms: N_3  and  C_4
REMARK                            x       y       z     vdW  Elec       q    Type
REMARK                         _______ _______ _______ _____ _____    ______ ____
ROOT
ATOM      1  C   UNL     1       2.552   7.187  18.840  0.00  0.00    +0.000 C 
ATOM      2  C   UNL     1       3.166   7.140  17.627  0.00  0.00    +0.000 C 
ATOM      3  O   UNL     1       3.162   8.075  16.773  0.00  0.00    +0.000 OA
ATOM      4  C   UNL     1       3.947   5.863  17.308  0.00  0.00    +0.000 A 
ATOM      5  C   UNL     1       5.201   6.031  16.669  0.00  0.00    +0.000 A 
ATOM      6  C   UNL     1       6.006   4.946  16.293  0.00  0.00    +0.000 A 
ATOM      7 CL   UNL     1       7.516   5.210  15.507  0.00  0.00    +0.000 Cl
ATOM      8  C   UNL     1       5.591   3.647  16.546  0.00  0.00    +0.000 A 
ATOM      9  C   UNL     1       4.357   3.440  17.157  0.00  0.00    +0.000 A 
ATOM     10  C   UNL     1       3.536   4.533  17.526  0.00  0.00    +0.000 A 
ATOM     11  S   UNL     1       1.967   4.096  18.245  0.00  0.00    +0.000 S 
ATOM     12  O   UNL     1       0.930   4.447  17.298  0.00  0.00    +0.000 OA
ATOM     13  O   UNL     1       2.086   2.717  18.700  0.00  0.00    +0.000 OA
ATOM     14  C   UNL     1       1.735   5.037  19.723  0.00  0.00    +0.000 C 
ATOM     15  C   UNL     1       2.734   6.145  19.907  0.00  0.00    +0.000 C 
ENDROOT
BRANCH   1  17
ATOM     16  O   UNL     1       1.171   9.084  18.393  0.00  0.00    +0.000 OA
ATOM     17  C   UNL     1       1.669   8.358  19.268  0.00  0.00    +0.000 C 
ATOM     18  N   UNL     1       1.392   8.465  20.611  0.00  0.00    +0.000 N 
ATOM     19  H   UNL     1       1.710   7.630  21.143  0.00  0.00    +0.000 HD
BRANCH  18  20
ATOM     20  C   UNL     1       0.668   9.473  21.274  0.00  0.00    +0.000 A 
ATOM     21  C   UNL     1      -0.101   9.201  22.411  0.00  0.00    +0.000 A 
ATOM     22  C   UNL     1      -0.800  10.220  23.061  0.00  0.00    +0.000 A 
ATOM     23  C   UNL     1      -0.742  11.527  22.580  0.00  0.00    +0.000 A 
ATOM     24 CL   UNL     1      -1.613  12.737  23.455  0.00  0.00    +0.000 Cl
ATOM     25  C   UNL     1       0.004  11.807  21.429  0.00  0.00    +0.000 A 
ATOM     26 CL   UNL     1       0.117  13.408  20.785  0.00  0.00    +0.000 Cl
ATOM     27  C   UNL     1       0.698  10.777  20.773  0.00  0.00    +0.000 A 
ENDBRANCH  18  20
ENDBRANCH   1  17
TORSDOF 2
ENDMDL
MODEL 6
REMARK VINA RESULT:      -7.6      2.747      8.388
REMARK  Name = 
REMARK  2 active torsions:
REMARK  status: ('A' for Active; 'I' for Inactive)
REMARK    1  A    between atoms: C_2  and  C_12
REMARK    2  A    between atoms: N_3  and  C_4
REMARK                            x       y       z     vdW  Elec       q    Type
REMARK                         _______ _______ _______ _____ _____    ______ ____
ROOT
ATOM      1  C   UNL     1       0.577   8.907  19.896  0.00  0.00    +0.000 C 
ATOM      2  C   UNL     1       0.112   9.725  18.913  0.00  0.00    +0.000 C 
ATOM      3  O   UNL     1       0.525   9.731  17.717  0.00  0.00    +0.000 OA
ATOM      4  C   UNL     1      -1.023  10.676  19.300  0.00  0.00    +0.000 A 
ATOM      5  C   UNL     1      -2.070  10.828  18.357  0.00  0.00    +0.000 A 
ATOM      6  C   UNL     1      -3.156  11.689  18.569  0.00  0.00    +0.000 A 
ATOM      7 CL   UNL     1      -4.393  11.844  17.381  0.00  0.00    +0.000 Cl
ATOM      8  C   UNL     1      -3.241  12.432  19.738  0.00  0.00    +0.000 A 
ATOM      9  C   UNL     1      -2.223  12.323  20.682  0.00  0.00    +0.000 A 
ATOM     10  C   UNL     1      -1.118  11.464  20.464  0.00  0.00    +0.000 A 
ATOM     11  S   UNL     1       0.121  11.483  21.742  0.00  0.00    +0.000 S 
ATOM     12  O   UNL     1       1.307  12.112  21.201  0.00  0.00    +0.000 OA
ATOM     13  O   UNL     1      -0.510  12.043  22.929  0.00  0.00    +0.000 OA
ATOM     14  C   UNL     1       0.510   9.817  22.184  0.00  0.00    +0.000 C 
ATOM     15  C   UNL     1      -0.061   8.786  21.251  0.00  0.00    +0.000 C 
ENDROOT
BRANCH   1  17
ATOM     16  O   UNL     1       2.338   7.496  20.681  0.00  0.00    +0.000 OA
ATOM     17  C   UNL     1       1.759   7.963  19.686  0.00  0.00    +0.000 C 
ATOM     18  N   UNL     1       2.039   7.600  18.389  0.00  0.00    +0.000 N 
ATOM     19  H   UNL     1       1.299   7.910  17.729  0.00  0.00    +0.000 HD
BRANCH  18  20
ATOM     20  C   UNL     1       3.099   6.805  17.915  0.00  0.00    +0.000 A 
ATOM     21  C   UNL     1       4.257   7.370  17.371  0.00  0.00    +0.000 A 
ATOM     22  C   UNL     1       5.303   6.562  16.919  0.00  0.00    +0.000 A 
ATOM     23  C   UNL     1       5.202   5.174  17.003  0.00  0.00    +0.000 A 
ATOM     24 CL   UNL     1       6.549   4.243  16.449  0.00  0.00    +0.000 Cl
ATOM     25  C   UNL     1       4.038   4.596  17.523  0.00  0.00    +0.000 A 
ATOM     26 CL   UNL     1       3.854   2.881  17.656  0.00  0.00    +0.000 Cl
ATOM     27  C   UNL     1       2.984   5.413  17.967  0.00  0.00    +0.000 A 
ENDBRANCH  18  20
ENDBRANCH   1  17
TORSDOF 2
ENDMDL
MODEL 7
REMARK VINA RESULT:      -7.5      2.680      8.313
REMARK  Name = 
REMARK  2 active torsions:
REMARK  status: ('A' for Active; 'I' for Inactive)
REMARK    1  A    between atoms: C_2  and  C_12
REMARK    2  A    between atoms: N_3  and  C_4
REMARK                            x       y       z     vdW  Elec       q    Type
REMARK                         _______ _______ _______ _____ _____    ______ ____
ROOT
ATOM      1  C   UNL     1       0.823   8.663  19.807  0.00  0.00    +0.000 C 
ATOM      2  C   UNL     1       0.404   9.490  18.811  0.00  0.00    +0.000 C 
ATOM      3  O   UNL     1       0.860   9.495  17.630  0.00  0.00    +0.000 OA
ATOM      4  C   UNL     1      -0.732  10.455  19.159  0.00  0.00    +0.000 A 
ATOM      5  C   UNL     1      -1.742  10.622  18.179  0.00  0.00    +0.000 A 
ATOM      6  C   UNL     1      -2.824  11.497  18.355  0.00  0.00    +0.000 A 
ATOM      7 CL   UNL     1      -4.016  11.670  17.123  0.00  0.00    +0.000 Cl
ATOM      8  C   UNL     1      -2.942  12.237  19.523  0.00  0.00    +0.000 A 
ATOM      9  C   UNL     1      -1.961  12.113  20.502  0.00  0.00    +0.000 A 
ATOM     10  C   UNL     1      -0.859  11.240  20.321  0.00  0.00    +0.000 A 
ATOM     11  S   UNL     1       0.333  11.239  21.643  0.00  0.00    +0.000 S 
ATOM     12  O   UNL     1       1.546  11.856  21.148  0.00  0.00    +0.000 OA
ATOM     13  O   UNL     1      -0.334  11.805  22.808  0.00  0.00    +0.000 OA
ATOM     14  C   UNL     1       0.685   9.567  22.094  0.00  0.00    +0.000 C 
ATOM     15  C   UNL     1       0.135   8.547  21.137  0.00  0.00    +0.000 C 
ENDROOT
BRANCH   1  17
ATOM     16  O   UNL     1       2.433   7.103  20.633  0.00  0.00    +0.000 OA
ATOM     17  C   UNL     1       2.000   7.705  19.637  0.00  0.00    +0.000 C 
ATOM     18  N   UNL     1       2.439   7.486  18.351  0.00  0.00    +0.000 N 
ATOM     19  H   UNL     1       1.800   7.900  17.645  0.00  0.00    +0.000 HD
BRANCH  18  20
ATOM     20  C   UNL     1       3.533   6.711  17.923  0.00  0.00    +0.000 A 
ATOM     21  C   UNL     1       3.398   5.355  17.609  0.00  0.00    +0.000 A 
ATOM     22  C   UNL     1       4.495   4.609  17.173  0.00  0.00    +0.000 A 
ATOM     23  C   UNL     1       5.746   5.210  17.050  0.00  0.00    +0.000 A 
ATOM     24 CL   UNL     1       7.048   4.227  16.479  0.00  0.00    +0.000 Cl
ATOM     25  C   UNL     1       5.900   6.560  17.385  0.00  0.00    +0.000 A 
ATOM     26 CL   UNL     1       7.426   7.363  17.251  0.00  0.00    +0.000 Cl
ATOM     27  C   UNL     1       4.795   7.304  17.832  0.00  0.00    +0.000 A 
ENDBRANCH  18  20
ENDBRANCH   1  17
TORSDOF 2
ENDMDL
MODEL 8
REMARK VINA RESULT:      -7.3      2.915      8.399
REMARK  Name = 
REMARK  2 active torsions:
REMARK  status: ('A' for Active; 'I' for Inactive)
REMARK    1  A    between atoms: C_2  and  C_12
REMARK    2  A    between atoms: N_3  and  C_4
REMARK                            x       y       z     vdW  Elec       q    Type
REMARK                         _______ _______ _______ _____ _____    ______ ____
ROOT
ATOM      1  C   UNL     1       0.786   9.945  19.373  0.00  0.00    +0.000 C 
ATOM      2  C   UNL     1       1.114  11.230  19.676  0.00  0.00    +0.000 C 
ATOM      3  O   UNL     1       2.062  11.882  19.147  0.00  0.00    +0.000 OA
ATOM      4  C   UNL     1       0.233  11.933  20.710  0.00  0.00    +0.000 A 
ATOM      5  C   UNL     1      -0.111  13.281  20.438  0.00  0.00    +0.000 A 
ATOM      6  C   UNL     1      -0.888  14.052  21.314  0.00  0.00    +0.000 A 
ATOM      7 CL   UNL     1      -1.262  15.690  20.937  0.00  0.00    +0.000 Cl
ATOM      8  C   UNL     1      -1.358  13.504  22.499  0.00  0.00    +0.000 A 
ATOM      9  C   UNL     1      -1.028  12.187  22.811  0.00  0.00    +0.000 A 
ATOM     10  C   UNL     1      -0.232  11.410  21.933  0.00  0.00    +0.000 A 
ATOM     11  S   UNL     1       0.144   9.767  22.505  0.00  0.00    +0.000 S 
ATOM     12  O   UNL     1       1.557   9.717  22.818  0.00  0.00    +0.000 OA
ATOM     13  O   UNL     1      -0.831   9.450  23.540  0.00  0.00    +0.000 OA
ATOM     14  C   UNL     1      -0.193   8.619  21.204  0.00  0.00    +0.000 C 
ATOM     15  C   UNL     1      -0.456   9.263  19.872  0.00  0.00    +0.000 C 
ENDROOT
BRANCH   1  17
ATOM     16  O   UNL     1       1.858   9.515  17.282  0.00  0.00    +0.000 OA
ATOM     17  C   UNL     1       1.620   9.087  18.423  0.00  0.00    +0.000 C 
ATOM     18  N   UNL     1       2.151   7.928  18.941  0.00  0.00    +0.000 N 
ATOM     19  H   UNL     1       2.029   7.870  19.971  0.00  0.00    +0.000 HD
BRANCH  18  20
ATOM     20  C   UNL     1       2.893   6.936  18.274  0.00  0.00    +0.000 A 
ATOM     21  C   UNL     1       4.108   7.223  17.644  0.00  0.00    +0.000 A 
ATOM     22  C   UNL     1       4.835   6.219  17.000  0.00  0.00    +0.000 A 
ATOM     23  C   UNL     1       4.352   4.912  16.974  0.00  0.00    +0.000 A 
ATOM     24 CL   UNL     1       5.321   3.721  16.181  0.00  0.00    +0.000 Cl
ATOM     25  C   UNL     1       3.125   4.617  17.580  0.00  0.00    +0.000 A 
ATOM     26 CL   UNL     1       2.474   3.014  17.583  0.00  0.00    +0.000 Cl
ATOM     27  C   UNL     1       2.393   5.632  18.218  0.00  0.00    +0.000 A 
ENDBRANCH  18  20
ENDBRANCH   1  17
TORSDOF 2
ENDMDL
MODEL 9
REMARK VINA RESULT:      -7.2      3.083      8.517
REMARK  Name = 
REMARK  2 active torsions:
REMARK  status: ('A' for Active; 'I' for Inactive)
REMARK    1  A    between atoms: C_2  and  C_12
REMARK    2  A    between atoms: N_3  and  C_4
REMARK                            x       y       z     vdW  Elec       q    Type
REMARK                         _______ _______ _______ _____ _____    ______ ____
ROOT
ATOM      1  C   UNL     1       0.137   9.340  20.479  0.00  0.00    +0.000 C 
ATOM      2  C   UNL     1      -0.268  10.083  19.413  0.00  0.00    +0.000 C 
ATOM      3  O   UNL     1       0.255  10.047  18.262  0.00  0.00    +0.000 OA
ATOM      4  C   UNL     1      -1.475  10.997  19.640  0.00  0.00    +0.000 A 
ATOM      5  C   UNL     1      -2.433  11.048  18.597  0.00  0.00    +0.000 A 
ATOM      6  C   UNL     1      -3.571  11.865  18.660  0.00  0.00    +0.000 A 
ATOM      7 CL   UNL     1      -4.696  11.897  17.356  0.00  0.00    +0.000 Cl
ATOM      8  C   UNL     1      -3.799  12.663  19.772  0.00  0.00    +0.000 A 
ATOM      9  C   UNL     1      -2.871  12.653  20.810  0.00  0.00    +0.000 A 
ATOM     10  C   UNL     1      -1.714  11.838  20.743  0.00  0.00    +0.000 A 
ATOM     11  S   UNL     1      -0.603  11.984  22.127  0.00  0.00    +0.000 S 
ATOM     12  O   UNL     1       0.601  12.642  21.663  0.00  0.00    +0.000 OA
ATOM     13  O   UNL     1      -1.367  12.574  23.217  0.00  0.00    +0.000 OA
ATOM     14  C   UNL     1      -0.185  10.364  22.696  0.00  0.00    +0.000 C 
ATOM     15  C   UNL     1      -0.620   9.260  21.774  0.00  0.00    +0.000 C 
ENDROOT
BRANCH   1  17
ATOM     16  O   UNL     1       2.015   8.252  21.479  0.00  0.00    +0.000 OA
ATOM     17  C   UNL     1       1.374   8.445  20.432  0.00  0.00    +0.000 C 
ATOM     18  N   UNL     1       1.636   7.814  19.238  0.00  0.00    +0.000 N 
ATOM     19  H   UNL     1       0.856   7.922  18.560  0.00  0.00    +0.000 HD
BRANCH  18  20
ATOM     20  C   UNL     1       2.733   6.997  18.907  0.00  0.00    +0.000 A 
ATOM     21  C   UNL     1       3.181   5.984  19.761  0.00  0.00    +0.000 A 
ATOM     22  C   UNL     1       4.263   5.175  19.406  0.00  0.00    +0.000 A 
ATOM     23  C   UNL     1       4.914   5.372  18.189  0.00  0.00    +0.000 A 
ATOM     24 CL   UNL     1       6.227   4.314  17.809  0.00  0.00    +0.000 Cl
ATOM     25  C   UNL     1       4.491   6.398  17.337  0.00  0.00    +0.000 A 
ATOM     26 CL   UNL     1       5.257   6.690  15.814  0.00  0.00    +0.000 Cl
ATOM     27  C   UNL     1       3.408   7.216  17.703  0.00  0.00    +0.000 A 
ENDBRANCH  18  20
ENDBRANCH   1  17
TORSDOF 2
ENDMDL
