MODEL 1
REMARK VINA RESULT:      -7.7      0.000      0.000
REMARK  Name = 
REMARK  3 active torsions:
REMARK  status: ('A' for Active; 'I' for Inactive)
REMARK    1  A    between atoms: C_2  and  C_16
REMARK    2  A    between atoms: N_3  and  C_4
REMARK    3  A    between atoms: C_10  and  C_11
REMARK                            x       y       z     vdW  Elec       q    Type
REMARK                         _______ _______ _______ _____ _____    ______ ____
ROOT
ATOM      1  C   UNL     1       5.425   3.996  16.254  0.00  0.00    +0.000 A 
ATOM      2  C   UNL     1       5.001   3.638  14.965  0.00  0.00    +0.000 A 
ATOM      3  C   UNL     1       5.795   3.935  13.860  0.00  0.00    +0.000 A 
ATOM      4 BR   UNL     1       5.250   3.383  12.135  0.00  0.00    +0.000 Br
ATOM      5  C   UNL     1       7.000   4.610  14.018  0.00  0.00    +0.000 A 
ATOM      6  C   UNL     1       7.419   4.984  15.298  0.00  0.00    +0.000 A 
ATOM      7  C   UNL     1       6.644   4.681  16.433  0.00  0.00    +0.000 A 
ENDROOT
BRANCH   7   8
ATOM      8  C   UNL     1       7.101   5.183  17.727  0.00  0.00    +0.000 A 
ATOM      9  N   UNL     1       6.946   4.623  18.913  0.00  0.00    +0.000 NA
ATOM     10  N   UNL     1       7.558   5.451  19.823  0.00  0.00    +0.000 NA
ATOM     11  N   UNL     1       8.102   6.497  19.219  0.00  0.00    +0.000 NA
ATOM     12  N   UNL     1       7.854   6.313  17.919  0.00  0.00    +0.000 N 
ATOM     13  H   UNL     1       8.209   6.975  17.241  0.00  0.00    +0.000 HD
ENDBRANCH   7   8
BRANCH   1  16
ATOM     14  O   UNL     1       3.303   5.458  17.432  0.00  0.00    +0.000 OA
ATOM     15  C   UNL     1       3.609   4.360  17.888  0.00  0.00    +0.000 C 
ATOM     16  N   UNL     1       4.652   3.601  17.367  0.00  0.00    +0.000 N 
ATOM     17  H   UNL     1       4.958   2.801  17.912  0.00  0.00    +0.000 HD
BRANCH  15  18
ATOM     18  C   UNL     1       2.989   3.824  19.092  0.00  0.00    +0.000 A 
ATOM     19  C   UNL     1       1.765   4.194  19.615  0.00  0.00    +0.000 A 
ATOM     20  C   UNL     1       1.441   3.491  20.814  0.00  0.00    +0.000 A 
ATOM     21  C   UNL     1       2.436   2.609  21.170  0.00  0.00    +0.000 A 
ATOM     22  S   UNL     1       3.744   2.634  20.071  0.00  0.00    +0.000 S 
ENDBRANCH  15  18
ENDBRANCH   1  16
TORSDOF 3
ENDMDL
MODEL 2
REMARK VINA RESULT:      -7.3      0.986      1.009
REMARK  Name = 
REMARK  3 active torsions:
REMARK  status: ('A' for Active; 'I' for Inactive)
REMARK    1  A    between atoms: C_2  and  C_16
REMARK    2  A    between atoms: N_3  and  C_4
REMARK    3  A    between atoms: C_10  and  C_11
REMARK                            x       y       z     vdW  Elec       q    Type
REMARK                         _______ _______ _______ _____ _____    ______ ____
ROOT
ATOM      1  C   UNL     1       5.052   4.393  16.289  0.00  0.00    +0.000 A 
ATOM      2  C   UNL     1       4.599   4.054  15.005  0.00  0.00    +0.000 A 
ATOM      3  C   UNL     1       5.489   4.028  13.933  0.00  0.00    +0.000 A 
ATOM      4 BR   UNL     1       4.884   3.498  12.222  0.00  0.00    +0.000 Br
ATOM      5  C   UNL     1       6.825   4.361  14.118  0.00  0.00    +0.000 A 
ATOM      6  C   UNL     1       7.279   4.716  15.392  0.00  0.00    +0.000 A 
ATOM      7  C   UNL     1       6.405   4.734  16.495  0.00  0.00    +0.000 A 
ENDROOT
BRANCH   7   8
ATOM      8  C   UNL     1       6.929   5.202  17.776  0.00  0.00    +0.000 A 
ATOM      9  N   UNL     1       6.723   4.683  18.972  0.00  0.00    +0.000 NA
ATOM     10  N   UNL     1       7.435   5.452  19.862  0.00  0.00    +0.000 NA
ATOM     11  N   UNL     1       8.088   6.418  19.236  0.00  0.00    +0.000 NA
ATOM     12  N   UNL     1       7.808   6.241  17.941  0.00  0.00    +0.000 N 
ATOM     13  H   UNL     1       8.230   6.846  17.248  0.00  0.00    +0.000 HD
ENDBRANCH   7   8
BRANCH   1  16
ATOM     14  O   UNL     1       4.124   2.030  17.546  0.00  0.00    +0.000 OA
ATOM     15  C   UNL     1       3.751   3.124  17.960  0.00  0.00    +0.000 C 
ATOM     16  N   UNL     1       4.155   4.320  17.376  0.00  0.00    +0.000 N 
ATOM     17  H   UNL     1       3.660   5.161  17.655  0.00  0.00    +0.000 HD
BRANCH  15  18
ATOM     18  C   UNL     1       2.753   3.251  19.014  0.00  0.00    +0.000 A 
ATOM     19  C   UNL     1       1.498   3.816  18.887  0.00  0.00    +0.000 A 
ATOM     20  C   UNL     1       0.759   3.799  20.106  0.00  0.00    +0.000 A 
ATOM     21  C   UNL     1       1.479   3.225  21.130  0.00  0.00    +0.000 A 
ATOM     22  S   UNL     1       3.030   2.717  20.620  0.00  0.00    +0.000 S 
ENDBRANCH  15  18
ENDBRANCH   1  16
TORSDOF 3
ENDMDL
MODEL 3
REMARK VINA RESULT:      -7.3      0.835      1.243
REMARK  Name = 
REMARK  3 active torsions:
REMARK  status: ('A' for Active; 'I' for Inactive)
REMARK    1  A    between atoms: C_2  and  C_16
REMARK    2  A    between atoms: N_3  and  C_4
REMARK    3  A    between atoms: C_10  and  C_11
REMARK                            x       y       z     vdW  Elec       q    Type
REMARK                         _______ _______ _______ _____ _____    ______ ____
ROOT
ATOM      1  C   UNL     1       5.506   4.022  16.077  0.00  0.00    +0.000 A 
ATOM      2  C   UNL     1       4.985   3.644  14.830  0.00  0.00    +0.000 A 
ATOM      3  C   UNL     1       5.710   3.890  13.666  0.00  0.00    +0.000 A 
ATOM      4 BR   UNL     1       5.032   3.311  11.998  0.00  0.00    +0.000 Br
ATOM      5  C   UNL     1       6.941   4.532  13.724  0.00  0.00    +0.000 A 
ATOM      6  C   UNL     1       7.457   4.925  14.962  0.00  0.00    +0.000 A 
ATOM      7  C   UNL     1       6.753   4.674  16.155  0.00  0.00    +0.000 A 
ENDROOT
BRANCH   7   8
ATOM      8  C   UNL     1       7.312   5.195  17.401  0.00  0.00    +0.000 A 
ATOM      9  N   UNL     1       7.450   6.458  17.760  0.00  0.00    +0.000 NA
ATOM     10  N   UNL     1       8.003   6.451  19.018  0.00  0.00    +0.000 NA
ATOM     11  N   UNL     1       8.189   5.212  19.447  0.00  0.00    +0.000 NA
ATOM     12  N   UNL     1       7.726   4.434  18.464  0.00  0.00    +0.000 N 
ATOM     13  H   UNL     1       7.726   3.428  18.575  0.00  0.00    +0.000 HD
ENDBRANCH   7   8
BRANCH   1  16
ATOM     14  O   UNL     1       3.641   5.649  17.456  0.00  0.00    +0.000 OA
ATOM     15  C   UNL     1       3.882   4.519  17.870  0.00  0.00    +0.000 C 
ATOM     16  N   UNL     1       4.800   3.678  17.250  0.00  0.00    +0.000 N 
ATOM     17  H   UNL     1       5.077   2.843  17.757  0.00  0.00    +0.000 HD
BRANCH  15  18
ATOM     18  C   UNL     1       3.323   4.020  19.119  0.00  0.00    +0.000 A 
ATOM     19  C   UNL     1       3.708   2.872  19.785  0.00  0.00    +0.000 A 
ATOM     20  C   UNL     1       2.959   2.649  20.979  0.00  0.00    +0.000 A 
ATOM     21  C   UNL     1       2.020   3.635  21.182  0.00  0.00    +0.000 A 
ATOM     22  S   UNL     1       2.043   4.812  19.942  0.00  0.00    +0.000 S 
ENDBRANCH  15  18
ENDBRANCH   1  16
TORSDOF 3
ENDMDL
MODEL 4
REMARK VINA RESULT:      -7.1      1.112      1.409
REMARK  Name = 
REMARK  3 active torsions:
REMARK  status: ('A' for Active; 'I' for Inactive)
REMARK    1  A    between atoms: C_2  and  C_16
REMARK    2  A    between atoms: N_3  and  C_4
REMARK    3  A    between atoms: C_10  and  C_11
REMARK                            x       y       z     vdW  Elec       q    Type
REMARK                         _______ _______ _______ _____ _____    ______ ____
ROOT
ATOM      1  C   UNL     1       5.207   4.686  15.988  0.00  0.00    +0.000 A 
ATOM      2  C   UNL     1       4.689   4.289  14.746  0.00  0.00    +0.000 A 
ATOM      3  C   UNL     1       5.543   4.089  13.664  0.00  0.00    +0.000 A 
ATOM      4 BR   UNL     1       4.845   3.483  12.014  0.00  0.00    +0.000 Br
ATOM      5  C   UNL     1       6.910   4.303  13.795  0.00  0.00    +0.000 A 
ATOM      6  C   UNL     1       7.430   4.715  15.026  0.00  0.00    +0.000 A 
ATOM      7  C   UNL     1       6.591   4.908  16.140  0.00  0.00    +0.000 A 
ENDROOT
BRANCH   7   8
ATOM      8  C   UNL     1       7.192   5.425  17.367  0.00  0.00    +0.000 A 
ATOM      9  N   UNL     1       7.504   6.677  17.650  0.00  0.00    +0.000 NA
ATOM     10  N   UNL     1       8.023   6.676  18.922  0.00  0.00    +0.000 NA
ATOM     11  N   UNL     1       8.018   5.454  19.434  0.00  0.00    +0.000 NA
ATOM     12  N   UNL     1       7.468   4.686  18.489  0.00  0.00    +0.000 N 
ATOM     13  H   UNL     1       7.320   3.700  18.664  0.00  0.00    +0.000 HD
ENDBRANCH   7   8
BRANCH   1  16
ATOM     14  O   UNL     1       4.139   2.538  17.495  0.00  0.00    +0.000 OA
ATOM     15  C   UNL     1       3.860   3.692  17.804  0.00  0.00    +0.000 C 
ATOM     16  N   UNL     1       4.336   4.789  17.095  0.00  0.00    +0.000 N 
ATOM     17  H   UNL     1       3.913   5.690  17.297  0.00  0.00    +0.000 HD
BRANCH  15  18
ATOM     18  C   UNL     1       2.902   3.999  18.858  0.00  0.00    +0.000 A 
ATOM     19  C   UNL     1       2.775   5.205  19.521  0.00  0.00    +0.000 A 
ATOM     20  C   UNL     1       1.748   5.186  20.511  0.00  0.00    +0.000 A 
ATOM     21  C   UNL     1       1.127   3.959  20.575  0.00  0.00    +0.000 A 
ATOM     22  S   UNL     1       1.781   2.846  19.455  0.00  0.00    +0.000 S 
ENDBRANCH  15  18
ENDBRANCH   1  16
TORSDOF 3
ENDMDL
MODEL 5
REMARK VINA RESULT:      -6.7      1.391      1.724
REMARK  Name = 
REMARK  3 active torsions:
REMARK  status: ('A' for Active; 'I' for Inactive)
REMARK    1  A    between atoms: C_2  and  C_16
REMARK    2  A    between atoms: N_3  and  C_4
REMARK    3  A    between atoms: C_10  and  C_11
REMARK                            x       y       z     vdW  Elec       q    Type
REMARK                         _______ _______ _______ _____ _____    ______ ____
ROOT
ATOM      1  C   UNL     1       5.274   4.982  15.850  0.00  0.00    +0.000 A 
ATOM      2  C   UNL     1       4.744   4.424  14.677  0.00  0.00    +0.000 A 
ATOM      3  C   UNL     1       5.583   4.115  13.609  0.00  0.00    +0.000 A 
ATOM      4 BR   UNL     1       4.869   3.296  12.061  0.00  0.00    +0.000 Br
ATOM      5  C   UNL     1       6.945   4.378  13.683  0.00  0.00    +0.000 A 
ATOM      6  C   UNL     1       7.477   4.948  14.843  0.00  0.00    +0.000 A 
ATOM      7  C   UNL     1       6.654   5.255  15.943  0.00  0.00    +0.000 A 
ENDROOT
BRANCH   7   8
ATOM      8  C   UNL     1       7.264   5.933  17.085  0.00  0.00    +0.000 A 
ATOM      9  N   UNL     1       7.569   7.213  17.198  0.00  0.00    +0.000 NA
ATOM     10  N   UNL     1       8.101   7.382  18.453  0.00  0.00    +0.000 NA
ATOM     11  N   UNL     1       8.113   6.238  19.120  0.00  0.00    +0.000 NA
ATOM     12  N   UNL     1       7.560   5.349  18.290  0.00  0.00    +0.000 N 
ATOM     13  H   UNL     1       7.422   4.393  18.594  0.00  0.00    +0.000 HD
ENDBRANCH   7   8
BRANCH   1  16
ATOM     14  O   UNL     1       4.249   3.001  17.597  0.00  0.00    +0.000 OA
ATOM     15  C   UNL     1       3.967   4.180  17.786  0.00  0.00    +0.000 C 
ATOM     16  N   UNL     1       4.422   5.199  16.955  0.00  0.00    +0.000 N 
ATOM     17  H   UNL     1       3.996   6.113  17.068  0.00  0.00    +0.000 HD
BRANCH  15  18
ATOM     18  C   UNL     1       3.026   4.593  18.819  0.00  0.00    +0.000 A 
ATOM     19  C   UNL     1       2.193   3.762  19.544  0.00  0.00    +0.000 A 
ATOM     20  C   UNL     1       1.380   4.473  20.476  0.00  0.00    +0.000 A 
ATOM     21  C   UNL     1       1.615   5.828  20.426  0.00  0.00    +0.000 A 
ATOM     22  S   UNL     1       2.802   6.234  19.265  0.00  0.00    +0.000 S 
ENDBRANCH  15  18
ENDBRANCH   1  16
TORSDOF 3
ENDMDL
MODEL 6
REMARK VINA RESULT:      -6.6      4.072      5.332
REMARK  Name = 
REMARK  3 active torsions:
REMARK  status: ('A' for Active; 'I' for Inactive)
REMARK    1  A    between atoms: C_2  and  C_16
REMARK    2  A    between atoms: N_3  and  C_4
REMARK    3  A    between atoms: C_10  and  C_11
REMARK                            x       y       z     vdW  Elec       q    Type
REMARK                         _______ _______ _______ _____ _____    ______ ____
ROOT
ATOM      1  C   UNL     1       3.367   5.482  18.686  0.00  0.00    +0.000 A 
ATOM      2  C   UNL     1       4.131   5.954  17.608  0.00  0.00    +0.000 A 
ATOM      3  C   UNL     1       4.744   5.054  16.739  0.00  0.00    +0.000 A 
ATOM      4 BR   UNL     1       5.711   5.698  15.247  0.00  0.00    +0.000 Br
ATOM      5  C   UNL     1       4.627   3.684  16.943  0.00  0.00    +0.000 A 
ATOM      6  C   UNL     1       3.880   3.209  18.025  0.00  0.00    +0.000 A 
ATOM      7  C   UNL     1       3.237   4.096  18.909  0.00  0.00    +0.000 A 
ENDROOT
BRANCH   7   8
ATOM      8  C   UNL     1       2.550   3.530  20.068  0.00  0.00    +0.000 A 
ATOM      9  N   UNL     1       1.272   3.634  20.381  0.00  0.00    +0.000 NA
ATOM     10  N   UNL     1       1.092   2.922  21.543  0.00  0.00    +0.000 NA
ATOM     11  N   UNL     1       2.228   2.368  21.939  0.00  0.00    +0.000 NA
ATOM     12  N   UNL     1       3.122   2.710  21.006  0.00  0.00    +0.000 N 
ATOM     13  H   UNL     1       4.072   2.367  21.070  0.00  0.00    +0.000 HD
ENDBRANCH   7   8
BRANCH   1  16
ATOM     14  O   UNL     1       2.222   7.931  17.839  0.00  0.00    +0.000 OA
ATOM     15  C   UNL     1       2.122   7.589  19.013  0.00  0.00    +0.000 C 
ATOM     16  N   UNL     1       2.676   6.409  19.497  0.00  0.00    +0.000 N 
ATOM     17  H   UNL     1       2.711   6.293  20.504  0.00  0.00    +0.000 HD
BRANCH  15  18
ATOM     18  C   UNL     1       1.527   8.457  20.021  0.00  0.00    +0.000 A 
ATOM     19  C   UNL     1       1.428   8.190  21.374  0.00  0.00    +0.000 A 
ATOM     20  C   UNL     1       0.781   9.236  22.098  0.00  0.00    +0.000 A 
ATOM     21  C   UNL     1       0.401  10.267  21.269  0.00  0.00    +0.000 A 
ATOM     22  S   UNL     1       0.818   9.971  19.638  0.00  0.00    +0.000 S 
ENDBRANCH  15  18
ENDBRANCH   1  16
TORSDOF 3
ENDMDL
MODEL 7
REMARK VINA RESULT:      -6.5      1.373      1.471
REMARK  Name = 
REMARK  3 active torsions:
REMARK  status: ('A' for Active; 'I' for Inactive)
REMARK    1  A    between atoms: C_2  and  C_16
REMARK    2  A    between atoms: N_3  and  C_4
REMARK    3  A    between atoms: C_10  and  C_11
REMARK                            x       y       z     vdW  Elec       q    Type
REMARK                         _______ _______ _______ _____ _____    ______ ____
ROOT
ATOM      1  C   UNL     1       5.088   4.262  16.324  0.00  0.00    +0.000 A 
ATOM      2  C   UNL     1       4.618   4.057  15.018  0.00  0.00    +0.000 A 
ATOM      3  C   UNL     1       5.508   4.057  13.946  0.00  0.00    +0.000 A 
ATOM      4 BR   UNL     1       4.875   3.707  12.199  0.00  0.00    +0.000 Br
ATOM      5  C   UNL     1       6.863   4.284  14.155  0.00  0.00    +0.000 A 
ATOM      6  C   UNL     1       7.335   4.506  15.452  0.00  0.00    +0.000 A 
ATOM      7  C   UNL     1       6.460   4.494  16.554  0.00  0.00    +0.000 A 
ENDROOT
BRANCH   7   8
ATOM      8  C   UNL     1       7.010   4.823  17.868  0.00  0.00    +0.000 A 
ATOM      9  N   UNL     1       8.239   4.616  18.305  0.00  0.00    +0.000 NA
ATOM     10  N   UNL     1       8.288   5.107  19.587  0.00  0.00    +0.000 NA
ATOM     11  N   UNL     1       7.122   5.628  19.940  0.00  0.00    +0.000 NA
ATOM     12  N   UNL     1       6.343   5.489  18.863  0.00  0.00    +0.000 N 
ATOM     13  H   UNL     1       5.398   5.852  18.876  0.00  0.00    +0.000 HD
ENDBRANCH   7   8
BRANCH   1  16
ATOM     14  O   UNL     1       4.181   1.872  17.544  0.00  0.00    +0.000 OA
ATOM     15  C   UNL     1       3.792   2.955  17.969  0.00  0.00    +0.000 C 
ATOM     16  N   UNL     1       4.184   4.163  17.404  0.00  0.00    +0.000 N 
ATOM     17  H   UNL     1       3.677   4.994  17.690  0.00  0.00    +0.000 HD
BRANCH  15  18
ATOM     18  C   UNL     1       2.784   3.055  19.017  0.00  0.00    +0.000 A 
ATOM     19  C   UNL     1       3.021   3.266  20.362  0.00  0.00    +0.000 A 
ATOM     20  C   UNL     1       1.823   3.305  21.135  0.00  0.00    +0.000 A 
ATOM     21  C   UNL     1       0.707   3.115  20.352  0.00  0.00    +0.000 A 
ATOM     22  S   UNL     1       1.105   2.890  18.705  0.00  0.00    +0.000 S 
ENDBRANCH  15  18
ENDBRANCH   1  16
TORSDOF 3
ENDMDL
MODEL 8
REMARK VINA RESULT:      -6.5      2.965      5.679
REMARK  Name = 
REMARK  3 active torsions:
REMARK  status: ('A' for Active; 'I' for Inactive)
REMARK    1  A    between atoms: C_2  and  C_16
REMARK    2  A    between atoms: N_3  and  C_4
REMARK    3  A    between atoms: C_10  and  C_11
REMARK                            x       y       z     vdW  Elec       q    Type
REMARK                         _______ _______ _______ _____ _____    ______ ____
ROOT
ATOM      1  C   UNL     1       4.359   4.573  17.048  0.00  0.00    +0.000 A 
ATOM      2  C   UNL     1       3.281   3.715  17.308  0.00  0.00    +0.000 A 
ATOM      3  C   UNL     1       2.638   3.754  18.544  0.00  0.00    +0.000 A 
ATOM      4 BR   UNL     1       1.139   2.645  18.860  0.00  0.00    +0.000 Br
ATOM      5  C   UNL     1       3.072   4.624  19.537  0.00  0.00    +0.000 A 
ATOM      6  C   UNL     1       4.157   5.470  19.289  0.00  0.00    +0.000 A 
ATOM      7  C   UNL     1       4.813   5.462  18.044  0.00  0.00    +0.000 A 
ENDROOT
BRANCH   7   8
ATOM      8  C   UNL     1       5.995   6.308  17.887  0.00  0.00    +0.000 A 
ATOM      9  N   UNL     1       6.155   7.330  17.066  0.00  0.00    +0.000 NA
ATOM     10  N   UNL     1       7.418   7.821  17.292  0.00  0.00    +0.000 NA
ATOM     11  N   UNL     1       8.029   7.136  18.247  0.00  0.00    +0.000 NA
ATOM     12  N   UNL     1       7.136   6.225  18.643  0.00  0.00    +0.000 N 
ATOM     13  H   UNL     1       7.361   5.596  19.403  0.00  0.00    +0.000 HD
ENDBRANCH   7   8
BRANCH   1  16
ATOM     14  O   UNL     1       7.020   3.863  16.386  0.00  0.00    +0.000 OA
ATOM     15  C   UNL     1       6.246   4.206  15.498  0.00  0.00    +0.000 C 
ATOM     16  N   UNL     1       4.933   4.584  15.758  0.00  0.00    +0.000 N 
ATOM     17  H   UNL     1       4.422   5.029  15.002  0.00  0.00    +0.000 HD
BRANCH  15  18
ATOM     18  C   UNL     1       6.680   4.369  14.116  0.00  0.00    +0.000 A 
ATOM     19  C   UNL     1       7.603   5.287  13.653  0.00  0.00    +0.000 A 
ATOM     20  C   UNL     1       7.805   5.204  12.243  0.00  0.00    +0.000 A 
ATOM     21  C   UNL     1       7.021   4.226  11.674  0.00  0.00    +0.000 A 
ATOM     22  S   UNL     1       6.053   3.422  12.831  0.00  0.00    +0.000 S 
ENDBRANCH  15  18
ENDBRANCH   1  16
TORSDOF 3
ENDMDL
MODEL 9
REMARK VINA RESULT:      -6.3      4.101      5.547
REMARK  Name = 
REMARK  3 active torsions:
REMARK  status: ('A' for Active; 'I' for Inactive)
REMARK    1  A    between atoms: C_2  and  C_16
REMARK    2  A    between atoms: N_3  and  C_4
REMARK    3  A    between atoms: C_10  and  C_11
REMARK                            x       y       z     vdW  Elec       q    Type
REMARK                         _______ _______ _______ _____ _____    ______ ____
ROOT
ATOM      1  C   UNL     1       3.696   5.763  18.801  0.00  0.00    +0.000 A 
ATOM      2  C   UNL     1       4.912   6.293  18.342  0.00  0.00    +0.000 A 
ATOM      3  C   UNL     1       5.727   5.542  17.497  0.00  0.00    +0.000 A 
ATOM      4 BR   UNL     1       7.327   6.293  16.824  0.00  0.00    +0.000 Br
ATOM      5  C   UNL     1       5.358   4.256  17.121  0.00  0.00    +0.000 A 
ATOM      6  C   UNL     1       4.157   3.717  17.589  0.00  0.00    +0.000 A 
ATOM      7  C   UNL     1       3.307   4.460  18.430  0.00  0.00    +0.000 A 
ENDROOT
BRANCH   7   8
ATOM      8  C   UNL     1       2.113   3.799  18.952  0.00  0.00    +0.000 A 
ATOM      9  N   UNL     1       1.469   4.060  20.075  0.00  0.00    +0.000 NA
ATOM     10  N   UNL     1       0.402   3.196  20.128  0.00  0.00    +0.000 NA
ATOM     11  N   UNL     1       0.365   2.423  19.053  0.00  0.00    +0.000 NA
ATOM     12  N   UNL     1       1.399   2.822  18.306  0.00  0.00    +0.000 N 
ATOM     13  H   UNL     1       1.561   2.398  17.401  0.00  0.00    +0.000 HD
ENDBRANCH   7   8
BRANCH   1  16
ATOM     14  O   UNL     1       2.332   8.086  17.926  0.00  0.00    +0.000 OA
ATOM     15  C   UNL     1       2.187   7.697  19.081  0.00  0.00    +0.000 C 
ATOM     16  N   UNL     1       2.842   6.576  19.577  0.00  0.00    +0.000 N 
ATOM     17  H   UNL     1       2.815   6.432  20.582  0.00  0.00    +0.000 HD
BRANCH  15  18
ATOM     18  C   UNL     1       1.419   8.456  20.060  0.00  0.00    +0.000 A 
ATOM     19  C   UNL     1       1.174   8.087  21.369  0.00  0.00    +0.000 A 
ATOM     20  C   UNL     1       0.379   9.041  22.071  0.00  0.00    +0.000 A 
ATOM     21  C   UNL     1       0.037  10.106  21.270  0.00  0.00    +0.000 A 
ATOM     22  S   UNL     1       0.668   9.952  19.689  0.00  0.00    +0.000 S 
ENDBRANCH  15  18
ENDBRANCH   1  16
TORSDOF 3
ENDMDL
