MODEL 1
REMARK VINA RESULT:      -8.7      0.000      0.000
REMARK  Name = 
REMARK  7 active torsions:
REMARK  status: ('A' for Active; 'I' for Inactive)
REMARK    1  A    between atoms: C_1  and  C_2
REMARK    2  A    between atoms: C_6  and  C_7
REMARK    3  A    between atoms: C_7  and  N_8
REMARK    4  A    between atoms: C_14  and  C_15
REMARK    5  A    between atoms: N_17  and  C_18
REMARK    6  A    between atoms: C_18  and  C_19
REMARK    7  A    between atoms: C_19  and  N_20
REMARK                            x       y       z     vdW  Elec       q    Type
REMARK                         _______ _______ _______ _____ _____    ______ ____
ROOT
ATOM      1  N   UNL     1       2.936   2.939  18.496  0.00  0.00    +0.000 N 
ATOM      2  C   UNL     1       3.169   3.251  17.179  0.00  0.00    +0.000 C 
ATOM      3  O   UNL     1       2.398   3.219  16.227  0.00  0.00    +0.000 OA
ATOM      4  C   UNL     1       4.488   3.877  17.122  0.00  0.00    +0.000 A 
ATOM      5  C   UNL     1       5.037   4.643  16.123  0.00  0.00    +0.000 A 
ATOM      6  C   UNL     1       6.076   5.499  16.496  0.00  0.00    +0.000 A 
ATOM      7  C   UNL     1       6.534   5.606  17.847  0.00  0.00    +0.000 A 
ATOM      8  C   UNL     1       6.006   4.756  18.818  0.00  0.00    +0.000 A 
ATOM      9  C   UNL     1       5.002   3.888  18.412  0.00  0.00    +0.000 A 
ATOM     10  C   UNL     1       4.095   3.086  19.220  0.00  0.00    +0.000 C 
ATOM     11  O   UNL     1       4.376   2.686  20.334  0.00  0.00    +0.000 OA
ENDROOT
BRANCH   7  12
ATOM     12  C   UNL     1       7.485   6.729  18.122  0.00  0.00    +0.000 C 
ATOM     13  O   UNL     1       8.298   6.587  19.032  0.00  0.00    +0.000 OA
ATOM     14  N   UNL     1       7.491   7.867  17.335  0.00  0.00    +0.000 N 
ATOM     15  H   UNL     1       6.773   8.089  16.653  0.00  0.00    +0.000 HD
BRANCH  14  16
ATOM     16  C   UNL     1       8.501   8.875  17.630  0.00  0.00    +0.000 C 
BRANCH  16  17
ATOM     17  C   UNL     1       7.998  10.213  18.197  0.00  0.00    +0.000 C 
BRANCH  17  18
ATOM     18  N   UNL     1       9.024  11.143  18.714  0.00  0.00    +0.000 NA
ATOM     19  C   UNL     1       9.375  10.847  20.116  0.00  0.00    +0.000 C 
ATOM     20  C   UNL     1      10.432  11.823  20.639  0.00  0.00    +0.000 C 
ATOM     21  C   UNL     1      11.685  11.810  19.775  0.00  0.00    +0.000 C 
ATOM     22  C   UNL     1      11.324  12.015  18.308  0.00  0.00    +0.000 C 
ATOM     23  C   UNL     1      10.233  11.037  17.867  0.00  0.00    +0.000 C 
ENDBRANCH  17  18
ENDBRANCH  16  17
ENDBRANCH  14  16
ENDBRANCH   7  12
BRANCH   1  24
ATOM     24  C   UNL     1       1.743   3.525  19.070  0.00  0.00    +0.000 C 
BRANCH  24  30
ATOM     25  C   UNL     1       2.688   8.198  17.573  0.00  0.00    +0.000 C 
ATOM     26  C   UNL     1       2.321   7.249  18.676  0.00  0.00    +0.000 A 
ATOM     27  C   UNL     1       2.127   7.698  19.987  0.00  0.00    +0.000 A 
ATOM     28  C   UNL     1       1.786   6.802  20.993  0.00  0.00    +0.000 A 
ATOM     29  C   UNL     1       1.633   5.451  20.698  0.00  0.00    +0.000 A 
ATOM     30  C   UNL     1       1.824   4.984  19.387  0.00  0.00    +0.000 A 
ATOM     31  C   UNL     1       2.166   5.895  18.384  0.00  0.00    +0.000 A 
ENDBRANCH  24  30
ENDBRANCH   1  24
TORSDOF 6
ENDMDL
MODEL 2
REMARK VINA RESULT:      -8.6      0.758      1.081
REMARK  Name = 
REMARK  7 active torsions:
REMARK  status: ('A' for Active; 'I' for Inactive)
REMARK    1  A    between atoms: C_1  and  C_2
REMARK    2  A    between atoms: C_6  and  C_7
REMARK    3  A    between atoms: C_7  and  N_8
REMARK    4  A    between atoms: C_14  and  C_15
REMARK    5  A    between atoms: N_17  and  C_18
REMARK    6  A    between atoms: C_18  and  C_19
REMARK    7  A    between atoms: C_19  and  N_20
REMARK                            x       y       z     vdW  Elec       q    Type
REMARK                         _______ _______ _______ _____ _____    ______ ____
ROOT
ATOM      1  N   UNL     1       2.540   2.759  18.720  0.00  0.00    +0.000 N 
ATOM      2  C   UNL     1       2.959   2.907  17.420  0.00  0.00    +0.000 C 
ATOM      3  O   UNL     1       2.310   2.835  16.384  0.00  0.00    +0.000 OA
ATOM      4  C   UNL     1       4.328   3.415  17.475  0.00  0.00    +0.000 A 
ATOM      5  C   UNL     1       5.062   4.023  16.486  0.00  0.00    +0.000 A 
ATOM      6  C   UNL     1       6.124   4.827  16.906  0.00  0.00    +0.000 A 
ATOM      7  C   UNL     1       6.423   5.042  18.288  0.00  0.00    +0.000 A 
ATOM      8  C   UNL     1       5.705   4.347  19.261  0.00  0.00    +0.000 A 
ATOM      9  C   UNL     1       4.681   3.524  18.813  0.00  0.00    +0.000 A 
ATOM     10  C   UNL     1       3.612   2.889  19.570  0.00  0.00    +0.000 C 
ATOM     11  O   UNL     1       3.718   2.590  20.745  0.00  0.00    +0.000 OA
ENDROOT
BRANCH   7  12
ATOM     12  C   UNL     1       7.435   6.108  18.575  0.00  0.00    +0.000 C 
ATOM     13  O   UNL     1       8.343   5.846  19.359  0.00  0.00    +0.000 OA
ATOM     14  N   UNL     1       7.384   7.331  17.928  0.00  0.00    +0.000 N 
ATOM     15  H   UNL     1       6.599   7.644  17.367  0.00  0.00    +0.000 HD
BRANCH  14  16
ATOM     16  C   UNL     1       8.453   8.279  18.215  0.00  0.00    +0.000 C 
BRANCH  16  17
ATOM     17  C   UNL     1       8.177   9.754  17.878  0.00  0.00    +0.000 C 
BRANCH  17  18
ATOM     18  N   UNL     1       9.225  10.727  18.252  0.00  0.00    +0.000 NA
ATOM     19  C   UNL     1       8.867  12.100  17.847  0.00  0.00    +0.000 C 
ATOM     20  C   UNL     1       9.964  13.095  18.233  0.00  0.00    +0.000 C 
ATOM     21  C   UNL     1      10.259  13.054  19.726  0.00  0.00    +0.000 C 
ATOM     22  C   UNL     1      10.533  11.623  20.176  0.00  0.00    +0.000 C 
ATOM     23  C   UNL     1       9.420  10.678  19.718  0.00  0.00    +0.000 C 
ENDBRANCH  17  18
ENDBRANCH  16  17
ENDBRANCH  14  16
ENDBRANCH   7  12
BRANCH   1  24
ATOM     24  C   UNL     1       1.346   3.497  19.075  0.00  0.00    +0.000 C 
BRANCH  24  30
ATOM     25  C   UNL     1       2.840   8.034  17.607  0.00  0.00    +0.000 C 
ATOM     26  C   UNL     1       2.309   7.142  18.690  0.00  0.00    +0.000 A 
ATOM     27  C   UNL     1       2.071   7.627  19.980  0.00  0.00    +0.000 A 
ATOM     28  C   UNL     1       1.577   6.783  20.968  0.00  0.00    +0.000 A 
ATOM     29  C   UNL     1       1.314   5.448  20.675  0.00  0.00    +0.000 A 
ATOM     30  C   UNL     1       1.547   4.946  19.384  0.00  0.00    +0.000 A 
ATOM     31  C   UNL     1       2.043   5.804  18.399  0.00  0.00    +0.000 A 
ENDBRANCH  24  30
ENDBRANCH   1  24
TORSDOF 6
ENDMDL
MODEL 3
REMARK VINA RESULT:      -7.9      3.846      7.473
REMARK  Name = 
REMARK  7 active torsions:
REMARK  status: ('A' for Active; 'I' for Inactive)
REMARK    1  A    between atoms: C_1  and  C_2
REMARK    2  A    between atoms: C_6  and  C_7
REMARK    3  A    between atoms: C_7  and  N_8
REMARK    4  A    between atoms: C_14  and  C_15
REMARK    5  A    between atoms: N_17  and  C_18
REMARK    6  A    between atoms: C_18  and  C_19
REMARK    7  A    between atoms: C_19  and  N_20
REMARK                            x       y       z     vdW  Elec       q    Type
REMARK                         _______ _______ _______ _____ _____    ______ ____
ROOT
ATOM      1  N   UNL     1       3.134   3.045  18.899  0.00  0.00    +0.000 N 
ATOM      2  C   UNL     1       2.816   3.553  20.136  0.00  0.00    +0.000 C 
ATOM      3  O   UNL     1       3.154   3.158  21.245  0.00  0.00    +0.000 OA
ATOM      4  C   UNL     1       2.163   4.839  19.906  0.00  0.00    +0.000 A 
ATOM      5  C   UNL     1       1.952   5.869  20.790  0.00  0.00    +0.000 A 
ATOM      6  C   UNL     1       1.754   7.135  20.234  0.00  0.00    +0.000 A 
ATOM      7  C   UNL     1       1.800   7.368  18.823  0.00  0.00    +0.000 A 
ATOM      8  C   UNL     1       1.938   6.286  17.954  0.00  0.00    +0.000 A 
ATOM      9  C   UNL     1       2.092   5.034  18.533  0.00  0.00    +0.000 A 
ATOM     10  C   UNL     1       2.511   3.781  17.921  0.00  0.00    +0.000 C 
ATOM     11  O   UNL     1       2.332   3.525  16.745  0.00  0.00    +0.000 OA
ENDROOT
BRANCH   7  12
ATOM     12  C   UNL     1       1.804   8.805  18.402  0.00  0.00    +0.000 C 
ATOM     13  O   UNL     1       2.215   9.076  17.277  0.00  0.00    +0.000 OA
ATOM     14  N   UNL     1       1.301   9.792  19.233  0.00  0.00    +0.000 N 
ATOM     15  H   UNL     1       1.061   9.645  20.208  0.00  0.00    +0.000 HD
BRANCH  14  16
ATOM     16  C   UNL     1       1.278  11.152  18.710  0.00  0.00    +0.000 C 
BRANCH  16  17
ATOM     17  C   UNL     1       0.035  11.996  19.037  0.00  0.00    +0.000 C 
BRANCH  17  18
ATOM     18  N   UNL     1      -1.174  11.739  18.226  0.00  0.00    +0.000 NA
ATOM     19  C   UNL     1      -1.107  10.433  17.543  0.00  0.00    +0.000 C 
ATOM     20  C   UNL     1      -2.361  10.185  16.701  0.00  0.00    +0.000 C 
ATOM     21  C   UNL     1      -3.627  10.267  17.542  0.00  0.00    +0.000 C 
ATOM     22  C   UNL     1      -3.659  11.571  18.332  0.00  0.00    +0.000 C 
ATOM     23  C   UNL     1      -2.358  11.774  19.112  0.00  0.00    +0.000 C 
ENDBRANCH  17  18
ENDBRANCH  16  17
ENDBRANCH  14  16
ENDBRANCH   7  12
BRANCH   1  24
ATOM     24  C   UNL     1       4.537   2.756  18.689  0.00  0.00    +0.000 C 
BRANCH  24  30
ATOM     25  C   UNL     1       6.892   4.873  14.824  0.00  0.00    +0.000 C 
ATOM     26  C   UNL     1       6.536   4.893  16.281  0.00  0.00    +0.000 A 
ATOM     27  C   UNL     1       7.011   5.896  17.133  0.00  0.00    +0.000 A 
ATOM     28  C   UNL     1       6.668   5.896  18.479  0.00  0.00    +0.000 A 
ATOM     29  C   UNL     1       5.843   4.896  18.986  0.00  0.00    +0.000 A 
ATOM     30  C   UNL     1       5.357   3.882  18.144  0.00  0.00    +0.000 A 
ATOM     31  C   UNL     1       5.710   3.893  16.792  0.00  0.00    +0.000 A 
ENDBRANCH  24  30
ENDBRANCH   1  24
TORSDOF 6
ENDMDL
MODEL 4
REMARK VINA RESULT:      -7.8      3.926      7.428
REMARK  Name = 
REMARK  7 active torsions:
REMARK  status: ('A' for Active; 'I' for Inactive)
REMARK    1  A    between atoms: C_1  and  C_2
REMARK    2  A    between atoms: C_6  and  C_7
REMARK    3  A    between atoms: C_7  and  N_8
REMARK    4  A    between atoms: C_14  and  C_15
REMARK    5  A    between atoms: N_17  and  C_18
REMARK    6  A    between atoms: C_18  and  C_19
REMARK    7  A    between atoms: C_19  and  N_20
REMARK                            x       y       z     vdW  Elec       q    Type
REMARK                         _______ _______ _______ _____ _____    ______ ____
ROOT
ATOM      1  N   UNL     1       2.900   3.052  18.841  0.00  0.00    +0.000 N 
ATOM      2  C   UNL     1       2.662   3.573  20.090  0.00  0.00    +0.000 C 
ATOM      3  O   UNL     1       3.018   3.154  21.185  0.00  0.00    +0.000 OA
ATOM      4  C   UNL     1       2.078   4.898  19.888  0.00  0.00    +0.000 A 
ATOM      5  C   UNL     1       1.964   5.934  20.782  0.00  0.00    +0.000 A 
ATOM      6  C   UNL     1       1.822   7.212  20.236  0.00  0.00    +0.000 A 
ATOM      7  C   UNL     1       1.826   7.448  18.825  0.00  0.00    +0.000 A 
ATOM      8  C   UNL     1       1.865   6.363  17.950  0.00  0.00    +0.000 A 
ATOM      9  C   UNL     1       1.966   5.102  18.520  0.00  0.00    +0.000 A 
ATOM     10  C   UNL     1       2.284   3.829  17.889  0.00  0.00    +0.000 C 
ATOM     11  O   UNL     1       2.044   3.589  16.721  0.00  0.00    +0.000 OA
ENDROOT
BRANCH   7  12
ATOM     12  C   UNL     1       1.901   8.884  18.408  0.00  0.00    +0.000 C 
ATOM     13  O   UNL     1       2.447   9.147  17.340  0.00  0.00    +0.000 OA
ATOM     14  N   UNL     1       1.315   9.879  19.171  0.00  0.00    +0.000 N 
ATOM     15  H   UNL     1       0.958   9.738  20.111  0.00  0.00    +0.000 HD
BRANCH  14  16
ATOM     16  C   UNL     1       1.373  11.239  18.649  0.00  0.00    +0.000 C 
BRANCH  16  17
ATOM     17  C   UNL     1       0.286  12.212  19.134  0.00  0.00    +0.000 C 
BRANCH  17  18
ATOM     18  N   UNL     1      -1.099  11.695  19.170  0.00  0.00    +0.000 NA
ATOM     19  C   UNL     1      -2.041  12.692  19.713  0.00  0.00    +0.000 C 
ATOM     20  C   UNL     1      -3.468  12.141  19.753  0.00  0.00    +0.000 C 
ATOM     21  C   UNL     1      -3.931  11.683  18.377  0.00  0.00    +0.000 C 
ATOM     22  C   UNL     1      -2.914  10.728  17.762  0.00  0.00    +0.000 C 
ATOM     23  C   UNL     1      -1.506  11.326  17.797  0.00  0.00    +0.000 C 
ENDBRANCH  17  18
ENDBRANCH  16  17
ENDBRANCH  14  16
ENDBRANCH   7  12
BRANCH   1  24
ATOM     24  C   UNL     1       4.274   2.681  18.575  0.00  0.00    +0.000 C 
BRANCH  24  30
ATOM     25  C   UNL     1       6.729   4.802  14.775  0.00  0.00    +0.000 C 
ATOM     26  C   UNL     1       6.382   4.787  16.235  0.00  0.00    +0.000 A 
ATOM     27  C   UNL     1       6.921   5.727  17.120  0.00  0.00    +0.000 A 
ATOM     28  C   UNL     1       6.585   5.695  18.468  0.00  0.00    +0.000 A 
ATOM     29  C   UNL     1       5.706   4.727  18.944  0.00  0.00    +0.000 A 
ATOM     30  C   UNL     1       5.156   3.776  18.067  0.00  0.00    +0.000 A 
ATOM     31  C   UNL     1       5.501   3.819  16.714  0.00  0.00    +0.000 A 
ENDBRANCH  24  30
ENDBRANCH   1  24
TORSDOF 6
ENDMDL
MODEL 5
REMARK VINA RESULT:      -7.8      0.876      1.648
REMARK  Name = 
REMARK  7 active torsions:
REMARK  status: ('A' for Active; 'I' for Inactive)
REMARK    1  A    between atoms: C_1  and  C_2
REMARK    2  A    between atoms: C_6  and  C_7
REMARK    3  A    between atoms: C_7  and  N_8
REMARK    4  A    between atoms: C_14  and  C_15
REMARK    5  A    between atoms: N_17  and  C_18
REMARK    6  A    between atoms: C_18  and  C_19
REMARK    7  A    between atoms: C_19  and  N_20
REMARK                            x       y       z     vdW  Elec       q    Type
REMARK                         _______ _______ _______ _____ _____    ______ ____
ROOT
ATOM      1  N   UNL     1       2.489   3.167  18.948  0.00  0.00    +0.000 N 
ATOM      2  C   UNL     1       2.939   3.170  17.650  0.00  0.00    +0.000 C 
ATOM      3  O   UNL     1       2.304   3.041  16.609  0.00  0.00    +0.000 OA
ATOM      4  C   UNL     1       4.334   3.601  17.690  0.00  0.00    +0.000 A 
ATOM      5  C   UNL     1       5.121   4.072  16.667  0.00  0.00    +0.000 A 
ATOM      6  C   UNL     1       6.222   4.848  17.037  0.00  0.00    +0.000 A 
ATOM      7  C   UNL     1       6.508   5.171  18.401  0.00  0.00    +0.000 A 
ATOM      8  C   UNL     1       5.733   4.611  19.415  0.00  0.00    +0.000 A 
ATOM      9  C   UNL     1       4.669   3.811  19.020  0.00  0.00    +0.000 A 
ATOM     10  C   UNL     1       3.551   3.312  19.807  0.00  0.00    +0.000 C 
ATOM     11  O   UNL     1       3.618   3.116  21.006  0.00  0.00    +0.000 OA
ENDROOT
BRANCH   7  12
ATOM     12  C   UNL     1       7.577   6.198  18.613  0.00  0.00    +0.000 C 
ATOM     13  O   UNL     1       8.554   5.884  19.287  0.00  0.00    +0.000 OA
ATOM     14  N   UNL     1       7.496   7.444  18.015  0.00  0.00    +0.000 N 
ATOM     15  H   UNL     1       6.667   7.798  17.551  0.00  0.00    +0.000 HD
BRANCH  14  16
ATOM     16  C   UNL     1       8.618   8.352  18.218  0.00  0.00    +0.000 C 
BRANCH  16  17
ATOM     17  C   UNL     1       8.348   9.848  17.982  0.00  0.00    +0.000 C 
BRANCH  17  18
ATOM     18  N   UNL     1       9.424  10.786  18.368  0.00  0.00    +0.000 NA
ATOM     19  C   UNL     1       9.147  12.158  17.902  0.00  0.00    +0.000 C 
ATOM     20  C   UNL     1      10.272  13.115  18.301  0.00  0.00    +0.000 C 
ATOM     21  C   UNL     1      10.503  13.114  19.806  0.00  0.00    +0.000 C 
ATOM     22  C   UNL     1      10.690  11.689  20.316  0.00  0.00    +0.000 C 
ATOM     23  C   UNL     1       9.554  10.780  19.842  0.00  0.00    +0.000 C 
ENDBRANCH  17  18
ENDBRANCH  16  17
ENDBRANCH  14  16
ENDBRANCH   7  12
BRANCH   1  24
ATOM     24  C   UNL     1       1.335   4.002  19.207  0.00  0.00    +0.000 C 
BRANCH  24  30
ATOM     25  C   UNL     1       1.212   8.281  21.784  0.00  0.00    +0.000 C 
ATOM     26  C   UNL     1       1.504   7.560  20.502  0.00  0.00    +0.000 A 
ATOM     27  C   UNL     1       1.945   8.246  19.365  0.00  0.00    +0.000 A 
ATOM     28  C   UNL     1       2.211   7.557  18.188  0.00  0.00    +0.000 A 
ATOM     29  C   UNL     1       2.041   6.176  18.136  0.00  0.00    +0.000 A 
ATOM     30  C   UNL     1       1.599   5.473  19.269  0.00  0.00    +0.000 A 
ATOM     31  C   UNL     1       1.336   6.177  20.447  0.00  0.00    +0.000 A 
ENDBRANCH  24  30
ENDBRANCH   1  24
TORSDOF 6
ENDMDL
MODEL 6
REMARK VINA RESULT:      -7.8      3.956      7.124
REMARK  Name = 
REMARK  7 active torsions:
REMARK  status: ('A' for Active; 'I' for Inactive)
REMARK    1  A    between atoms: C_1  and  C_2
REMARK    2  A    between atoms: C_6  and  C_7
REMARK    3  A    between atoms: C_7  and  N_8
REMARK    4  A    between atoms: C_14  and  C_15
REMARK    5  A    between atoms: N_17  and  C_18
REMARK    6  A    between atoms: C_18  and  C_19
REMARK    7  A    between atoms: C_19  and  N_20
REMARK                            x       y       z     vdW  Elec       q    Type
REMARK                         _______ _______ _______ _____ _____    ______ ____
ROOT
ATOM      1  N   UNL     1       2.875   2.985  18.800  0.00  0.00    +0.000 N 
ATOM      2  C   UNL     1       2.629   3.481  20.058  0.00  0.00    +0.000 C 
ATOM      3  O   UNL     1       2.978   3.041  21.147  0.00  0.00    +0.000 OA
ATOM      4  C   UNL     1       2.047   4.810  19.878  0.00  0.00    +0.000 A 
ATOM      5  C   UNL     1       1.928   5.828  20.792  0.00  0.00    +0.000 A 
ATOM      6  C   UNL     1       1.789   7.117  20.271  0.00  0.00    +0.000 A 
ATOM      7  C   UNL     1       1.802   7.380  18.865  0.00  0.00    +0.000 A 
ATOM      8  C   UNL     1       1.847   6.313  17.968  0.00  0.00    +0.000 A 
ATOM      9  C   UNL     1       1.944   5.041  18.514  0.00  0.00    +0.000 A 
ATOM     10  C   UNL     1       2.265   3.780  17.860  0.00  0.00    +0.000 C 
ATOM     11  O   UNL     1       2.033   3.564  16.686  0.00  0.00    +0.000 OA
ENDROOT
BRANCH   7  12
ATOM     12  C   UNL     1       1.880   8.824  18.476  0.00  0.00    +0.000 C 
ATOM     13  O   UNL     1       2.531   9.119  17.477  0.00  0.00    +0.000 OA
ATOM     14  N   UNL     1       1.188   9.791  19.184  0.00  0.00    +0.000 N 
ATOM     15  H   UNL     1       0.736   9.625  20.078  0.00  0.00    +0.000 HD
BRANCH  14  16
ATOM     16  C   UNL     1       1.263  11.160  18.689  0.00  0.00    +0.000 C 
BRANCH  16  17
ATOM     17  C   UNL     1       0.018  12.039  18.897  0.00  0.00    +0.000 C 
BRANCH  17  18
ATOM     18  N   UNL     1      -0.781  11.780  20.114  0.00  0.00    +0.000 NA
ATOM     19  C   UNL     1       0.024  11.939  21.340  0.00  0.00    +0.000 C 
ATOM     20  C   UNL     1      -0.814  11.660  22.591  0.00  0.00    +0.000 C 
ATOM     21  C   UNL     1      -2.042  12.557  22.655  0.00  0.00    +0.000 C 
ATOM     22  C   UNL     1      -2.829  12.478  21.351  0.00  0.00    +0.000 C 
ATOM     23  C   UNL     1      -1.921  12.722  20.144  0.00  0.00    +0.000 C 
ENDBRANCH  17  18
ENDBRANCH  16  17
ENDBRANCH  14  16
ENDBRANCH   7  12
BRANCH   1  24
ATOM     24  C   UNL     1       4.250   2.618  18.537  0.00  0.00    +0.000 C 
BRANCH  24  30
ATOM     25  C   UNL     1       6.775   4.739  14.782  0.00  0.00    +0.000 C 
ATOM     26  C   UNL     1       6.393   4.731  16.233  0.00  0.00    +0.000 A 
ATOM     27  C   UNL     1       6.899   5.683  17.124  0.00  0.00    +0.000 A 
ATOM     28  C   UNL     1       6.530   5.657  18.464  0.00  0.00    +0.000 A 
ATOM     29  C   UNL     1       5.650   4.682  18.925  0.00  0.00    +0.000 A 
ATOM     30  C   UNL     1       5.132   3.720  18.042  0.00  0.00    +0.000 A 
ATOM     31  C   UNL     1       5.511   3.756  16.697  0.00  0.00    +0.000 A 
ENDBRANCH  24  30
ENDBRANCH   1  24
TORSDOF 6
ENDMDL
MODEL 7
REMARK VINA RESULT:      -7.7      6.833      9.318
REMARK  Name = 
REMARK  7 active torsions:
REMARK  status: ('A' for Active; 'I' for Inactive)
REMARK    1  A    between atoms: C_1  and  C_2
REMARK    2  A    between atoms: C_6  and  C_7
REMARK    3  A    between atoms: C_7  and  N_8
REMARK    4  A    between atoms: C_14  and  C_15
REMARK    5  A    between atoms: N_17  and  C_18
REMARK    6  A    between atoms: C_18  and  C_19
REMARK    7  A    between atoms: C_19  and  N_20
REMARK                            x       y       z     vdW  Elec       q    Type
REMARK                         _______ _______ _______ _____ _____    ______ ____
ROOT
ATOM      1  N   UNL     1      -3.179  11.511  17.895  0.00  0.00    +0.000 N 
ATOM      2  C   UNL     1      -2.648  12.049  19.042  0.00  0.00    +0.000 C 
ATOM      3  O   UNL     1      -3.198  12.713  19.913  0.00  0.00    +0.000 OA
ATOM      4  C   UNL     1      -1.306  11.488  19.188  0.00  0.00    +0.000 A 
ATOM      5  C   UNL     1      -0.505  11.449  20.303  0.00  0.00    +0.000 A 
ATOM      6  C   UNL     1       0.489  10.467  20.319  0.00  0.00    +0.000 A 
ATOM      7  C   UNL     1       0.654   9.526  19.255  0.00  0.00    +0.000 A 
ATOM      8  C   UNL     1      -0.128   9.647  18.106  0.00  0.00    +0.000 A 
ATOM      9  C   UNL     1      -1.080  10.656  18.100  0.00  0.00    +0.000 A 
ATOM     10  C   UNL     1      -2.194  10.867  17.186  0.00  0.00    +0.000 C 
ATOM     11  O   UNL     1      -2.186  10.483  16.031  0.00  0.00    +0.000 OA
ENDROOT
BRANCH   7  12
ATOM     12  C   UNL     1       1.601   8.398  19.527  0.00  0.00    +0.000 C 
ATOM     13  O   UNL     1       1.680   7.975  20.677  0.00  0.00    +0.000 OA
ATOM     14  N   UNL     1       2.319   7.808  18.501  0.00  0.00    +0.000 N 
ATOM     15  H   UNL     1       2.383   8.188  17.562  0.00  0.00    +0.000 HD
BRANCH  14  16
ATOM     16  C   UNL     1       3.159   6.669  18.847  0.00  0.00    +0.000 C 
BRANCH  16  17
ATOM     17  C   UNL     1       3.241   5.532  17.816  0.00  0.00    +0.000 C 
BRANCH  17  18
ATOM     18  N   UNL     1       4.449   5.493  16.964  0.00  0.00    +0.000 NA
ATOM     19  C   UNL     1       5.646   5.957  17.691  0.00  0.00    +0.000 C 
ATOM     20  C   UNL     1       6.886   5.920  16.795  0.00  0.00    +0.000 C 
ATOM     21  C   UNL     1       7.128   4.528  16.230  0.00  0.00    +0.000 C 
ATOM     22  C   UNL     1       5.864   3.996  15.562  0.00  0.00    +0.000 C 
ATOM     23  C   UNL     1       4.659   4.105  16.498  0.00  0.00    +0.000 C 
ENDBRANCH  17  18
ENDBRANCH  16  17
ENDBRANCH  14  16
ENDBRANCH   7  12
BRANCH   1  24
ATOM     24  C   UNL     1      -4.423  10.791  18.066  0.00  0.00    +0.000 C 
BRANCH  24  30
ATOM     25  C   UNL     1      -7.269  14.513  16.331  0.00  0.00    +0.000 C 
ATOM     26  C   UNL     1      -7.014  13.468  17.376  0.00  0.00    +0.000 A 
ATOM     27  C   UNL     1      -7.857  13.327  18.484  0.00  0.00    +0.000 A 
ATOM     28  C   UNL     1      -7.603  12.352  19.440  0.00  0.00    +0.000 A 
ATOM     29  C   UNL     1      -6.506  11.507  19.298  0.00  0.00    +0.000 A 
ATOM     30  C   UNL     1      -5.650  11.636  18.191  0.00  0.00    +0.000 A 
ATOM     31  C   UNL     1      -5.916  12.620  17.236  0.00  0.00    +0.000 A 
ENDBRANCH  24  30
ENDBRANCH   1  24
TORSDOF 6
ENDMDL
MODEL 8
REMARK VINA RESULT:      -7.7      3.709      7.537
REMARK  Name = 
REMARK  7 active torsions:
REMARK  status: ('A' for Active; 'I' for Inactive)
REMARK    1  A    between atoms: C_1  and  C_2
REMARK    2  A    between atoms: C_6  and  C_7
REMARK    3  A    between atoms: C_7  and  N_8
REMARK    4  A    between atoms: C_14  and  C_15
REMARK    5  A    between atoms: N_17  and  C_18
REMARK    6  A    between atoms: C_18  and  C_19
REMARK    7  A    between atoms: C_19  and  N_20
REMARK                            x       y       z     vdW  Elec       q    Type
REMARK                         _______ _______ _______ _____ _____    ______ ____
ROOT
ATOM      1  N   UNL     1       3.347   2.863  18.186  0.00  0.00    +0.000 N 
ATOM      2  C   UNL     1       3.390   3.261  19.501  0.00  0.00    +0.000 C 
ATOM      3  O   UNL     1       4.052   2.806  20.427  0.00  0.00    +0.000 OA
ATOM      4  C   UNL     1       2.659   4.524  19.582  0.00  0.00    +0.000 A 
ATOM      5  C   UNL     1       2.686   5.473  20.575  0.00  0.00    +0.000 A 
ATOM      6  C   UNL     1       2.294   6.763  20.211  0.00  0.00    +0.000 A 
ATOM      7  C   UNL     1       1.916   7.101  18.873  0.00  0.00    +0.000 A 
ATOM      8  C   UNL     1       1.826   6.094  17.912  0.00  0.00    +0.000 A 
ATOM      9  C   UNL     1       2.182   4.814  18.311  0.00  0.00    +0.000 A 
ATOM     10  C   UNL     1       2.441   3.634  17.499  0.00  0.00    +0.000 C 
ATOM     11  O   UNL     1       1.932   3.455  16.408  0.00  0.00    +0.000 OA
ENDROOT
BRANCH   7  12
ATOM     12  C   UNL     1       1.752   8.563  18.595  0.00  0.00    +0.000 C 
ATOM     13  O   UNL     1       2.095   8.983  17.493  0.00  0.00    +0.000 OA
ATOM     14  N   UNL     1       1.173   9.406  19.528  0.00  0.00    +0.000 N 
ATOM     15  H   UNL     1       0.981   9.142  20.489  0.00  0.00    +0.000 HD
BRANCH  14  16
ATOM     16  C   UNL     1       0.986  10.798  19.141  0.00  0.00    +0.000 C 
BRANCH  16  17
ATOM     17  C   UNL     1      -0.289  11.491  19.648  0.00  0.00    +0.000 C 
BRANCH  17  18
ATOM     18  N   UNL     1      -1.570  11.030  19.071  0.00  0.00    +0.000 NA
ATOM     19  C   UNL     1      -2.578  12.106  19.046  0.00  0.00    +0.000 C 
ATOM     20  C   UNL     1      -3.901  11.612  18.454  0.00  0.00    +0.000 C 
ATOM     21  C   UNL     1      -3.711  11.043  17.055  0.00  0.00    +0.000 C 
ATOM     22  C   UNL     1      -2.600   9.999  17.049  0.00  0.00    +0.000 C 
ATOM     23  C   UNL     1      -1.325  10.547  17.694  0.00  0.00    +0.000 C 
ENDBRANCH  17  18
ENDBRANCH  16  17
ENDBRANCH  14  16
ENDBRANCH   7  12
BRANCH   1  24
ATOM     24  C   UNL     1       4.634   2.668  17.554  0.00  0.00    +0.000 C 
BRANCH  24  30
ATOM     25  C   UNL     1       7.830   6.276  18.874  0.00  0.00    +0.000 C 
ATOM     26  C   UNL     1       6.900   5.691  17.853  0.00  0.00    +0.000 A 
ATOM     27  C   UNL     1       6.674   6.327  16.627  0.00  0.00    +0.000 A 
ATOM     28  C   UNL     1       5.808   5.767  15.695  0.00  0.00    +0.000 A 
ATOM     29  C   UNL     1       5.164   4.566  15.977  0.00  0.00    +0.000 A 
ATOM     30  C   UNL     1       5.380   3.916  17.203  0.00  0.00    +0.000 A 
ATOM     31  C   UNL     1       6.253   4.488  18.132  0.00  0.00    +0.000 A 
ENDBRANCH  24  30
ENDBRANCH   1  24
TORSDOF 6
ENDMDL
MODEL 9
REMARK VINA RESULT:      -7.7      3.819      5.695
REMARK  Name = 
REMARK  7 active torsions:
REMARK  status: ('A' for Active; 'I' for Inactive)
REMARK    1  A    between atoms: C_1  and  C_2
REMARK    2  A    between atoms: C_6  and  C_7
REMARK    3  A    between atoms: C_7  and  N_8
REMARK    4  A    between atoms: C_14  and  C_15
REMARK    5  A    between atoms: N_17  and  C_18
REMARK    6  A    between atoms: C_18  and  C_19
REMARK    7  A    between atoms: C_19  and  N_20
REMARK                            x       y       z     vdW  Elec       q    Type
REMARK                         _______ _______ _______ _____ _____    ______ ____
ROOT
ATOM      1  N   UNL     1       2.851   2.998  18.798  0.00  0.00    +0.000 N 
ATOM      2  C   UNL     1       2.610   3.497  20.055  0.00  0.00    +0.000 C 
ATOM      3  O   UNL     1       2.961   3.057  21.144  0.00  0.00    +0.000 OA
ATOM      4  C   UNL     1       2.033   4.827  19.875  0.00  0.00    +0.000 A 
ATOM      5  C   UNL     1       1.919   5.848  20.787  0.00  0.00    +0.000 A 
ATOM      6  C   UNL     1       1.783   7.136  20.264  0.00  0.00    +0.000 A 
ATOM      7  C   UNL     1       1.793   7.397  18.857  0.00  0.00    +0.000 A 
ATOM      8  C   UNL     1       1.832   6.328  17.963  0.00  0.00    +0.000 A 
ATOM      9  C   UNL     1       1.926   5.056  18.510  0.00  0.00    +0.000 A 
ATOM     10  C   UNL     1       2.242   3.794  17.858  0.00  0.00    +0.000 C 
ATOM     11  O   UNL     1       2.006   3.576  16.684  0.00  0.00    +0.000 OA
ENDROOT
BRANCH   7  12
ATOM     12  C   UNL     1       1.875   8.840  18.466  0.00  0.00    +0.000 C 
ATOM     13  O   UNL     1       2.445   9.122  17.415  0.00  0.00    +0.000 OA
ATOM     14  N   UNL     1       1.270   9.821  19.232  0.00  0.00    +0.000 N 
ATOM     15  H   UNL     1       0.891   9.663  20.160  0.00  0.00    +0.000 HD
BRANCH  14  16
ATOM     16  C   UNL     1       1.337  11.189  18.734  0.00  0.00    +0.000 C 
BRANCH  16  17
ATOM     17  C   UNL     1       1.139  12.311  19.767  0.00  0.00    +0.000 C 
BRANCH  17  18
ATOM     18  N   UNL     1       1.978  13.517  19.607  0.00  0.00    +0.000 NA
ATOM     19  C   UNL     1       2.890  13.706  20.752  0.00  0.00    +0.000 C 
ATOM     20  C   UNL     1       3.746  14.962  20.576  0.00  0.00    +0.000 C 
ATOM     21  C   UNL     1       4.542  14.922  19.279  0.00  0.00    +0.000 C 
ATOM     22  C   UNL     1       3.623  14.627  18.098  0.00  0.00    +0.000 C 
ATOM     23  C   UNL     1       2.767  13.386  18.362  0.00  0.00    +0.000 C 
ENDBRANCH  17  18
ENDBRANCH  16  17
ENDBRANCH  14  16
ENDBRANCH   7  12
BRANCH   1  24
ATOM     24  C   UNL     1       4.225   2.626  18.531  0.00  0.00    +0.000 C 
BRANCH  24  30
ATOM     25  C   UNL     1       6.806   4.881  14.895  0.00  0.00    +0.000 C 
ATOM     26  C   UNL     1       6.412   4.813  16.341  0.00  0.00    +0.000 A 
ATOM     27  C   UNL     1       6.923   5.717  17.278  0.00  0.00    +0.000 A 
ATOM     28  C   UNL     1       6.543   5.636  18.612  0.00  0.00    +0.000 A 
ATOM     29  C   UNL     1       5.647   4.653  19.022  0.00  0.00    +0.000 A 
ATOM     30  C   UNL     1       5.125   3.737  18.093  0.00  0.00    +0.000 A 
ATOM     31  C   UNL     1       5.514   3.829  16.754  0.00  0.00    +0.000 A 
ENDBRANCH  24  30
ENDBRANCH   1  24
TORSDOF 6
ENDMDL
