MODEL 1
REMARK VINA RESULT:      -8.1      0.000      0.000
REMARK  Name = 
REMARK  6 active torsions:
REMARK  status: ('A' for Active; 'I' for Inactive)
REMARK    1  A    between atoms: C_2  and  C_3
REMARK    2  A    between atoms: C_3  and  S_4
REMARK    3  A    between atoms: S_4  and  C_5
REMARK    4  A    between atoms: N_13  and  C_14
REMARK    5  A    between atoms: C_14  and  C_15
REMARK    6  A    between atoms: C_26  and  C_28
REMARK                            x       y       z     vdW  Elec       q    Type
REMARK                         _______ _______ _______ _____ _____    ______ ____
ROOT
ATOM      1  S   UNL     1       3.381   7.769  17.908  0.00  0.00    +0.000 S 
ENDROOT
BRANCH   1   2
ATOM      2  C   UNL     1       3.136   6.321  18.824  0.00  0.00    +0.000 A 
ATOM      3  N   UNL     1       2.134   6.120  19.648  0.00  0.00    +0.000 NA
ATOM      4  C   UNL     1       2.352   4.874  20.179  0.00  0.00    +0.000 A 
ATOM      5  C   UNL     1       1.593   4.169  21.128  0.00  0.00    +0.000 A 
ATOM      6  C   UNL     1       2.027   2.906  21.541  0.00  0.00    +0.000 A 
ATOM      7  C   UNL     1       3.194   2.348  21.016  0.00  0.00    +0.000 A 
ATOM      8  C   UNL     1       3.958   3.027  20.057  0.00  0.00    +0.000 A 
ATOM      9  C   UNL     1       3.505   4.292  19.652  0.00  0.00    +0.000 A 
ATOM     10  N   UNL     1       3.975   5.232  18.750  0.00  0.00    +0.000 N 
BRANCH  10  11
ATOM     11  C   UNL     1       5.108   5.045  17.851  0.00  0.00    +0.000 C 
BRANCH  11  12
ATOM     12  C   UNL     1       4.756   4.297  16.580  0.00  0.00    +0.000 C 
ATOM     13  O   UNL     1       3.666   3.741  16.427  0.00  0.00    +0.000 OA
ATOM     14  N   UNL     1       5.705   4.289  15.569  0.00  0.00    +0.000 N 
ATOM     15  C   UNL     1       7.043   4.842  15.563  0.00  0.00    +0.000 C 
ATOM     16  C   UNL     1       7.295   5.126  14.090  0.00  0.00    +0.000 C 
ATOM     17  C   UNL     1       6.558   4.000  13.370  0.00  0.00    +0.000 C 
ATOM     18  C   UNL     1       5.424   3.611  14.312  0.00  0.00    +0.000 C 
ENDBRANCH  11  12
ENDBRANCH  10  11
ENDBRANCH   1   2
BRANCH   1  19
ATOM     19  C   UNL     1       1.694   8.478  17.868  0.00  0.00    +0.000 C 
BRANCH  19  21
ATOM     20  O   UNL     1       2.401  10.766  17.466  0.00  0.00    +0.000 OA
ATOM     21  C   UNL     1       1.726   9.987  18.145  0.00  0.00    +0.000 C 
ATOM     22  N   UNL     1       0.965  10.473  19.209  0.00  0.00    +0.000 N 
ATOM     23  C   UNL     1       0.075   9.682  20.079  0.00  0.00    +0.000 C 
ATOM     24  C   UNL     1       0.137  10.147  21.551  0.00  0.00    +0.000 C 
ATOM     25  N   UNL     1       0.014  11.605  21.662  0.00  0.00    +0.000 N 
ATOM     26  C   UNL     1      -0.825  12.165  22.629  0.00  0.00    +0.000 C 
ATOM     27  O   UNL     1      -1.377  11.446  23.465  0.00  0.00    +0.000 OA
ATOM     28  C   UNL     1       0.990  12.334  20.845  0.00  0.00    +0.000 C 
ATOM     29  C   UNL     1       0.851  11.932  19.376  0.00  0.00    +0.000 C 
BRANCH  26  30
ATOM     30  C   UNL     1      -1.034  13.606  22.636  0.00  0.00    +0.000 A 
ATOM     31  C   UNL     1      -1.515  14.449  21.649  0.00  0.00    +0.000 A 
ATOM     32  C   UNL     1      -1.514  15.760  22.186  0.00  0.00    +0.000 A 
ATOM     33  C   UNL     1      -0.983  15.652  23.449  0.00  0.00    +0.000 A 
ATOM     34  O   UNL     1      -0.660  14.362  23.719  0.00  0.00    +0.000 OA
ENDBRANCH  26  30
ENDBRANCH  19  21
ENDBRANCH   1  19
TORSDOF 6
ENDMDL
MODEL 2
REMARK VINA RESULT:      -8.1      2.087      2.330
REMARK  Name = 
REMARK  6 active torsions:
REMARK  status: ('A' for Active; 'I' for Inactive)
REMARK    1  A    between atoms: C_2  and  C_3
REMARK    2  A    between atoms: C_3  and  S_4
REMARK    3  A    between atoms: S_4  and  C_5
REMARK    4  A    between atoms: N_13  and  C_14
REMARK    5  A    between atoms: C_14  and  C_15
REMARK    6  A    between atoms: C_26  and  C_28
REMARK                            x       y       z     vdW  Elec       q    Type
REMARK                         _______ _______ _______ _____ _____    ______ ____
ROOT
ATOM      1  S   UNL     1       2.926   7.908  18.151  0.00  0.00    +0.000 S 
ENDROOT
BRANCH   1   2
ATOM      2  C   UNL     1       2.882   6.186  18.313  0.00  0.00    +0.000 A 
ATOM      3  N   UNL     1       1.823   5.442  18.088  0.00  0.00    +0.000 NA
ATOM      4  C   UNL     1       2.221   4.160  18.370  0.00  0.00    +0.000 A 
ATOM      5  C   UNL     1       1.478   2.969  18.314  0.00  0.00    +0.000 A 
ATOM      6  C   UNL     1       2.095   1.767  18.674  0.00  0.00    +0.000 A 
ATOM      7  C   UNL     1       3.431   1.747  19.079  0.00  0.00    +0.000 A 
ATOM      8  C   UNL     1       4.194   2.921  19.128  0.00  0.00    +0.000 A 
ATOM      9  C   UNL     1       3.559   4.117  18.760  0.00  0.00    +0.000 A 
ATOM     10  N   UNL     1       3.976   5.435  18.680  0.00  0.00    +0.000 N 
BRANCH  10  11
ATOM     11  C   UNL     1       5.343   5.901  18.881  0.00  0.00    +0.000 C 
BRANCH  11  12
ATOM     12  C   UNL     1       6.374   5.112  18.098  0.00  0.00    +0.000 C 
ATOM     13  O   UNL     1       7.240   4.432  18.654  0.00  0.00    +0.000 OA
ATOM     14  N   UNL     1       6.285   5.154  16.714  0.00  0.00    +0.000 N 
ATOM     15  C   UNL     1       5.378   5.911  15.877  0.00  0.00    +0.000 C 
ATOM     16  C   UNL     1       5.298   5.077  14.608  0.00  0.00    +0.000 C 
ATOM     17  C   UNL     1       6.698   4.484  14.472  0.00  0.00    +0.000 C 
ATOM     18  C   UNL     1       7.227   4.400  15.900  0.00  0.00    +0.000 C 
ENDBRANCH  11  12
ENDBRANCH  10  11
ENDBRANCH   1   2
BRANCH   1  19
ATOM     19  C   UNL     1       1.760   8.439  19.459  0.00  0.00    +0.000 C 
BRANCH  19  21
ATOM     20  O   UNL     1       0.872   9.956  17.785  0.00  0.00    +0.000 OA
ATOM     21  C   UNL     1       0.825   9.543  18.947  0.00  0.00    +0.000 C 
ATOM     22  N   UNL     1      -0.096  10.088  19.842  0.00  0.00    +0.000 N 
ATOM     23  C   UNL     1      -0.305   9.671  21.240  0.00  0.00    +0.000 C 
ATOM     24  C   UNL     1      -0.586  10.873  22.171  0.00  0.00    +0.000 C 
ATOM     25  N   UNL     1      -1.604  11.765  21.606  0.00  0.00    +0.000 N 
ATOM     26  C   UNL     1      -2.631  12.257  22.417  0.00  0.00    +0.000 C 
ATOM     27  O   UNL     1      -2.624  12.038  23.630  0.00  0.00    +0.000 OA
ATOM     28  C   UNL     1      -1.290  12.221  20.247  0.00  0.00    +0.000 C 
ATOM     29  C   UNL     1      -1.110  11.019  19.319  0.00  0.00    +0.000 C 
BRANCH  26  30
ATOM     30  C   UNL     1      -3.704  13.032  21.810  0.00  0.00    +0.000 A 
ATOM     31  C   UNL     1      -4.860  12.619  21.169  0.00  0.00    +0.000 A 
ATOM     32  C   UNL     1      -5.553  13.788  20.770  0.00  0.00    +0.000 A 
ATOM     33  C   UNL     1      -4.758  14.846  21.139  0.00  0.00    +0.000 A 
ATOM     34  O   UNL     1      -3.625  14.400  21.738  0.00  0.00    +0.000 OA
ENDBRANCH  26  30
ENDBRANCH  19  21
ENDBRANCH   1  19
TORSDOF 6
ENDMDL
MODEL 3
REMARK VINA RESULT:      -8.1      1.370      4.064
REMARK  Name = 
REMARK  6 active torsions:
REMARK  status: ('A' for Active; 'I' for Inactive)
REMARK    1  A    between atoms: C_2  and  C_3
REMARK    2  A    between atoms: C_3  and  S_4
REMARK    3  A    between atoms: S_4  and  C_5
REMARK    4  A    between atoms: N_13  and  C_14
REMARK    5  A    between atoms: C_14  and  C_15
REMARK    6  A    between atoms: C_26  and  C_28
REMARK                            x       y       z     vdW  Elec       q    Type
REMARK                         _______ _______ _______ _____ _____    ______ ____
ROOT
ATOM      1  S   UNL     1       2.426   7.527  19.102  0.00  0.00    +0.000 S 
ENDROOT
BRANCH   1   2
ATOM      2  C   UNL     1       3.584   6.595  18.215  0.00  0.00    +0.000 A 
ATOM      3  N   UNL     1       4.866   6.869  18.146  0.00  0.00    +0.000 NA
ATOM      4  C   UNL     1       5.393   5.908  17.320  0.00  0.00    +0.000 A 
ATOM      5  C   UNL     1       6.719   5.738  16.891  0.00  0.00    +0.000 A 
ATOM      6  C   UNL     1       7.021   4.686  16.020  0.00  0.00    +0.000 A 
ATOM      7  C   UNL     1       6.021   3.814  15.586  0.00  0.00    +0.000 A 
ATOM      8  C   UNL     1       4.694   3.957  16.014  0.00  0.00    +0.000 A 
ATOM      9  C   UNL     1       4.411   5.015  16.890  0.00  0.00    +0.000 A 
ATOM     10  N   UNL     1       3.256   5.458  17.512  0.00  0.00    +0.000 N 
BRANCH  10  11
ATOM     11  C   UNL     1       1.964   4.784  17.470  0.00  0.00    +0.000 C 
BRANCH  11  12
ATOM     12  C   UNL     1       1.976   3.411  18.111  0.00  0.00    +0.000 C 
ATOM     13  O   UNL     1       2.146   2.381  17.453  0.00  0.00    +0.000 OA
ATOM     14  N   UNL     1       1.820   3.354  19.488  0.00  0.00    +0.000 N 
ATOM     15  C   UNL     1       1.573   4.429  20.427  0.00  0.00    +0.000 C 
ATOM     16  C   UNL     1       2.160   3.897  21.725  0.00  0.00    +0.000 C 
ATOM     17  C   UNL     1       1.887   2.397  21.662  0.00  0.00    +0.000 C 
ATOM     18  C   UNL     1       1.846   2.070  20.172  0.00  0.00    +0.000 C 
ENDBRANCH  11  12
ENDBRANCH  10  11
ENDBRANCH   1   2
BRANCH   1  19
ATOM     19  C   UNL     1       1.702   8.576  17.788  0.00  0.00    +0.000 C 
BRANCH  19  21
ATOM     20  O   UNL     1       2.512  10.860  17.641  0.00  0.00    +0.000 OA
ATOM     21  C   UNL     1       1.746  10.059  18.183  0.00  0.00    +0.000 C 
ATOM     22  N   UNL     1       0.888  10.492  19.195  0.00  0.00    +0.000 N 
ATOM     23  C   UNL     1      -0.113   9.671  19.901  0.00  0.00    +0.000 C 
ATOM     24  C   UNL     1      -0.199  10.024  21.403  0.00  0.00    +0.000 C 
ATOM     25  N   UNL     1      -0.292  11.473  21.612  0.00  0.00    +0.000 N 
ATOM     26  C   UNL     1      -1.216  11.991  22.525  0.00  0.00    +0.000 C 
ATOM     27  O   UNL     1      -1.874  11.233  23.240  0.00  0.00    +0.000 OA
ATOM     28  C   UNL     1       0.787  12.226  20.962  0.00  0.00    +0.000 C 
ATOM     29  C   UNL     1       0.797  11.938  19.460  0.00  0.00    +0.000 C 
BRANCH  26  30
ATOM     30  C   UNL     1      -1.384  13.434  22.621  0.00  0.00    +0.000 A 
ATOM     31  C   UNL     1      -1.077  14.307  23.651  0.00  0.00    +0.000 A 
ATOM     32  C   UNL     1      -1.446  15.605  23.217  0.00  0.00    +0.000 A 
ATOM     33  C   UNL     1      -2.006  15.444  21.973  0.00  0.00    +0.000 A 
ATOM     34  O   UNL     1      -2.004  14.135  21.618  0.00  0.00    +0.000 OA
ENDBRANCH  26  30
ENDBRANCH  19  21
ENDBRANCH   1  19
TORSDOF 6
ENDMDL
MODEL 4
REMARK VINA RESULT:      -7.9      2.279      2.905
REMARK  Name = 
REMARK  6 active torsions:
REMARK  status: ('A' for Active; 'I' for Inactive)
REMARK    1  A    between atoms: C_2  and  C_3
REMARK    2  A    between atoms: C_3  and  S_4
REMARK    3  A    between atoms: S_4  and  C_5
REMARK    4  A    between atoms: N_13  and  C_14
REMARK    5  A    between atoms: C_14  and  C_15
REMARK    6  A    between atoms: C_26  and  C_28
REMARK                            x       y       z     vdW  Elec       q    Type
REMARK                         _______ _______ _______ _____ _____    ______ ____
ROOT
ATOM      1  S   UNL     1       2.350   7.804  18.177  0.00  0.00    +0.000 S 
ENDROOT
BRANCH   1   2
ATOM      2  C   UNL     1       2.521   6.278  18.976  0.00  0.00    +0.000 A 
ATOM      3  N   UNL     1       1.969   5.974  20.128  0.00  0.00    +0.000 NA
ATOM      4  C   UNL     1       2.392   4.697  20.400  0.00  0.00    +0.000 A 
ATOM      5  C   UNL     1       2.113   3.890  21.515  0.00  0.00    +0.000 A 
ATOM      6  C   UNL     1       2.681   2.614  21.588  0.00  0.00    +0.000 A 
ATOM      7  C   UNL     1       3.509   2.145  20.567  0.00  0.00    +0.000 A 
ATOM      8  C   UNL     1       3.788   2.928  19.439  0.00  0.00    +0.000 A 
ATOM      9  C   UNL     1       3.207   4.204  19.381  0.00  0.00    +0.000 A 
ATOM     10  N   UNL     1       3.246   5.231  18.454  0.00  0.00    +0.000 N 
BRANCH  10  11
ATOM     11  C   UNL     1       3.883   5.161  17.144  0.00  0.00    +0.000 C 
BRANCH  11  12
ATOM     12  C   UNL     1       4.934   6.231  16.924  0.00  0.00    +0.000 C 
ATOM     13  O   UNL     1       4.748   7.188  16.168  0.00  0.00    +0.000 OA
ATOM     14  N   UNL     1       6.117   6.112  17.639  0.00  0.00    +0.000 N 
ATOM     15  C   UNL     1       6.542   5.058  18.537  0.00  0.00    +0.000 C 
ATOM     16  C   UNL     1       7.508   5.768  19.472  0.00  0.00    +0.000 C 
ATOM     17  C   UNL     1       8.186   6.804  18.580  0.00  0.00    +0.000 C 
ATOM     18  C   UNL     1       7.160   7.116  17.496  0.00  0.00    +0.000 C 
ENDBRANCH  11  12
ENDBRANCH  10  11
ENDBRANCH   1   2
BRANCH   1  19
ATOM     19  C   UNL     1       1.647   8.848  19.507  0.00  0.00    +0.000 C 
BRANCH  19  21
ATOM     20  O   UNL     1       0.367   9.954  17.765  0.00  0.00    +0.000 OA
ATOM     21  C   UNL     1       0.512   9.730  18.970  0.00  0.00    +0.000 C 
ATOM     22  N   UNL     1      -0.371  10.293  19.893  0.00  0.00    +0.000 N 
ATOM     23  C   UNL     1      -0.360  10.082  21.352  0.00  0.00    +0.000 C 
ATOM     24  C   UNL     1      -0.704  11.373  22.128  0.00  0.00    +0.000 C 
ATOM     25  N   UNL     1      -1.897  12.029  21.582  0.00  0.00    +0.000 N 
ATOM     26  C   UNL     1      -2.887  12.513  22.444  0.00  0.00    +0.000 C 
ATOM     27  O   UNL     1      -2.711  12.494  23.663  0.00  0.00    +0.000 OA
ATOM     28  C   UNL     1      -1.807  12.297  20.143  0.00  0.00    +0.000 C 
ATOM     29  C   UNL     1      -1.561  10.994  19.381  0.00  0.00    +0.000 C 
BRANCH  26  30
ATOM     30  C   UNL     1      -4.121  13.041  21.880  0.00  0.00    +0.000 A 
ATOM     31  C   UNL     1      -4.558  14.347  21.740  0.00  0.00    +0.000 A 
ATOM     32  C   UNL     1      -5.833  14.294  21.125  0.00  0.00    +0.000 A 
ATOM     33  C   UNL     1      -6.126  12.960  20.973  0.00  0.00    +0.000 A 
ATOM     34  O   UNL     1      -5.115  12.195  21.455  0.00  0.00    +0.000 OA
ENDBRANCH  26  30
ENDBRANCH  19  21
ENDBRANCH   1  19
TORSDOF 6
ENDMDL
MODEL 5
REMARK VINA RESULT:      -7.9      1.897      5.083
REMARK  Name = 
REMARK  6 active torsions:
REMARK  status: ('A' for Active; 'I' for Inactive)
REMARK    1  A    between atoms: C_2  and  C_3
REMARK    2  A    between atoms: C_3  and  S_4
REMARK    3  A    between atoms: S_4  and  C_5
REMARK    4  A    between atoms: N_13  and  C_14
REMARK    5  A    between atoms: C_14  and  C_15
REMARK    6  A    between atoms: C_26  and  C_28
REMARK                            x       y       z     vdW  Elec       q    Type
REMARK                         _______ _______ _______ _____ _____    ______ ____
ROOT
ATOM      1  S   UNL     1       4.914   6.447  18.356  0.00  0.00    +0.000 S 
ENDROOT
BRANCH   1   2
ATOM      2  C   UNL     1       5.417   5.732  16.862  0.00  0.00    +0.000 A 
ATOM      3  N   UNL     1       6.461   6.117  16.166  0.00  0.00    +0.000 NA
ATOM      4  C   UNL     1       6.464   5.313  15.053  0.00  0.00    +0.000 A 
ATOM      5  C   UNL     1       7.353   5.307  13.966  0.00  0.00    +0.000 A 
ATOM      6  C   UNL     1       7.143   4.402  12.922  0.00  0.00    +0.000 A 
ATOM      7  C   UNL     1       6.068   3.512  12.958  0.00  0.00    +0.000 A 
ATOM      8  C   UNL     1       5.177   3.491  14.040  0.00  0.00    +0.000 A 
ATOM      9  C   UNL     1       5.406   4.404  15.080  0.00  0.00    +0.000 A 
ATOM     10  N   UNL     1       4.764   4.670  16.278  0.00  0.00    +0.000 N 
BRANCH  10  11
ATOM     11  C   UNL     1       3.652   3.903  16.827  0.00  0.00    +0.000 C 
BRANCH  11  12
ATOM     12  C   UNL     1       3.928   3.339  18.207  0.00  0.00    +0.000 C 
ATOM     13  O   UNL     1       5.070   3.083  18.594  0.00  0.00    +0.000 OA
ATOM     14  N   UNL     1       2.836   3.149  19.042  0.00  0.00    +0.000 N 
ATOM     15  C   UNL     1       1.428   3.348  18.769  0.00  0.00    +0.000 C 
ATOM     16  C   UNL     1       0.846   3.641  20.143  0.00  0.00    +0.000 C 
ATOM     17  C   UNL     1       1.681   2.777  21.085  0.00  0.00    +0.000 C 
ATOM     18  C   UNL     1       3.030   2.633  20.389  0.00  0.00    +0.000 C 
ENDBRANCH  11  12
ENDBRANCH  10  11
ENDBRANCH   1   2
BRANCH   1  19
ATOM     19  C   UNL     1       3.224   7.022  17.948  0.00  0.00    +0.000 C 
BRANCH  19  21
ATOM     20  O   UNL     1       2.371   6.521  20.165  0.00  0.00    +0.000 OA
ATOM     21  C   UNL     1       2.421   7.316  19.222  0.00  0.00    +0.000 C 
ATOM     22  N   UNL     1       1.729   8.525  19.295  0.00  0.00    +0.000 N 
ATOM     23  C   UNL     1       1.729   9.593  18.279  0.00  0.00    +0.000 C 
ATOM     24  C   UNL     1       0.339  10.250  18.124  0.00  0.00    +0.000 C 
ATOM     25  N   UNL     1      -0.239  10.601  19.426  0.00  0.00    +0.000 N 
ATOM     26  C   UNL     1      -0.846  11.847  19.609  0.00  0.00    +0.000 C 
ATOM     27  O   UNL     1      -1.000  12.610  18.653  0.00  0.00    +0.000 OA
ATOM     28  C   UNL     1      -0.299   9.471  20.360  0.00  0.00    +0.000 C 
ATOM     29  C   UNL     1       1.101   8.894  20.575  0.00  0.00    +0.000 C 
BRANCH  26  30
ATOM     30  C   UNL     1      -1.295  12.227  20.941  0.00  0.00    +0.000 A 
ATOM     31  C   UNL     1      -0.574  12.457  22.100  0.00  0.00    +0.000 A 
ATOM     32  C   UNL     1      -1.509  12.800  23.109  0.00  0.00    +0.000 A 
ATOM     33  C   UNL     1      -2.748  12.706  22.524  0.00  0.00    +0.000 A 
ATOM     34  O   UNL     1      -2.633  12.330  21.226  0.00  0.00    +0.000 OA
ENDBRANCH  26  30
ENDBRANCH  19  21
ENDBRANCH   1  19
TORSDOF 6
ENDMDL
MODEL 6
REMARK VINA RESULT:      -7.9      1.556      2.090
REMARK  Name = 
REMARK  6 active torsions:
REMARK  status: ('A' for Active; 'I' for Inactive)
REMARK    1  A    between atoms: C_2  and  C_3
REMARK    2  A    between atoms: C_3  and  S_4
REMARK    3  A    between atoms: S_4  and  C_5
REMARK    4  A    between atoms: N_13  and  C_14
REMARK    5  A    between atoms: C_14  and  C_15
REMARK    6  A    between atoms: C_26  and  C_28
REMARK                            x       y       z     vdW  Elec       q    Type
REMARK                         _______ _______ _______ _____ _____    ______ ____
ROOT
ATOM      1  S   UNL     1       3.193   7.921  17.826  0.00  0.00    +0.000 S 
ENDROOT
BRANCH   1   2
ATOM      2  C   UNL     1       2.821   6.379  18.519  0.00  0.00    +0.000 A 
ATOM      3  N   UNL     1       2.072   6.201  19.583  0.00  0.00    +0.000 NA
ATOM      4  C   UNL     1       2.075   4.846  19.799  0.00  0.00    +0.000 A 
ATOM      5  C   UNL     1       1.445   4.109  20.815  0.00  0.00    +0.000 A 
ATOM      6  C   UNL     1       1.609   2.720  20.848  0.00  0.00    +0.000 A 
ATOM      7  C   UNL     1       2.383   2.073  19.884  0.00  0.00    +0.000 A 
ATOM      8  C   UNL     1       3.008   2.788  18.852  0.00  0.00    +0.000 A 
ATOM      9  C   UNL     1       2.829   4.179  18.833  0.00  0.00    +0.000 A 
ATOM     10  N   UNL     1       3.271   5.188  17.995  0.00  0.00    +0.000 N 
BRANCH  10  11
ATOM     11  C   UNL     1       4.013   4.991  16.755  0.00  0.00    +0.000 C 
BRANCH  11  12
ATOM     12  C   UNL     1       5.174   5.951  16.584  0.00  0.00    +0.000 C 
ATOM     13  O   UNL     1       5.196   6.802  15.692  0.00  0.00    +0.000 OA
ATOM     14  N   UNL     1       6.210   5.859  17.501  0.00  0.00    +0.000 N 
ATOM     15  C   UNL     1       6.393   4.917  18.586  0.00  0.00    +0.000 C 
ATOM     16  C   UNL     1       7.252   5.689  19.575  0.00  0.00    +0.000 C 
ATOM     17  C   UNL     1       8.152   6.544  18.687  0.00  0.00    +0.000 C 
ATOM     18  C   UNL     1       7.346   6.765  17.412  0.00  0.00    +0.000 C 
ENDBRANCH  11  12
ENDBRANCH  10  11
ENDBRANCH   1   2
BRANCH   1  19
ATOM     19  C   UNL     1       1.546   8.721  17.785  0.00  0.00    +0.000 C 
BRANCH  19  21
ATOM     20  O   UNL     1       2.434  10.979  17.690  0.00  0.00    +0.000 OA
ATOM     21  C   UNL     1       1.640  10.192  18.213  0.00  0.00    +0.000 C 
ATOM     22  N   UNL     1       0.796  10.631  19.234  0.00  0.00    +0.000 N 
ATOM     23  C   UNL     1      -0.233   9.829  19.920  0.00  0.00    +0.000 C 
ATOM     24  C   UNL     1      -0.310  10.151  21.430  0.00  0.00    +0.000 C 
ATOM     25  N   UNL     1      -0.354  11.597  21.672  0.00  0.00    +0.000 N 
ATOM     26  C   UNL     1      -1.260  12.125  22.596  0.00  0.00    +0.000 C 
ATOM     27  O   UNL     1      -1.945  11.374  23.292  0.00  0.00    +0.000 OA
ATOM     28  C   UNL     1       0.752  12.326  21.040  0.00  0.00    +0.000 C 
ATOM     29  C   UNL     1       0.754  12.073  19.532  0.00  0.00    +0.000 C 
BRANCH  26  30
ATOM     30  C   UNL     1      -1.379  13.571  22.724  0.00  0.00    +0.000 A 
ATOM     31  C   UNL     1      -1.112  14.401  23.799  0.00  0.00    +0.000 A 
ATOM     32  C   UNL     1      -1.400  15.724  23.382  0.00  0.00    +0.000 A 
ATOM     33  C   UNL     1      -1.877  15.622  22.098  0.00  0.00    +0.000 A 
ATOM     34  O   UNL     1      -1.899  14.324  21.703  0.00  0.00    +0.000 OA
ENDBRANCH  26  30
ENDBRANCH  19  21
ENDBRANCH   1  19
TORSDOF 6
ENDMDL
MODEL 7
REMARK VINA RESULT:      -7.9      1.548      4.658
REMARK  Name = 
REMARK  6 active torsions:
REMARK  status: ('A' for Active; 'I' for Inactive)
REMARK    1  A    between atoms: C_2  and  C_3
REMARK    2  A    between atoms: C_3  and  S_4
REMARK    3  A    between atoms: S_4  and  C_5
REMARK    4  A    between atoms: N_13  and  C_14
REMARK    5  A    between atoms: C_14  and  C_15
REMARK    6  A    between atoms: C_26  and  C_28
REMARK                            x       y       z     vdW  Elec       q    Type
REMARK                         _______ _______ _______ _____ _____    ______ ____
ROOT
ATOM      1  S   UNL     1       4.228   6.153  19.178  0.00  0.00    +0.000 S 
ENDROOT
BRANCH   1   2
ATOM      2  C   UNL     1       4.969   5.642  17.699  0.00  0.00    +0.000 A 
ATOM      3  N   UNL     1       5.914   6.302  17.072  0.00  0.00    +0.000 NA
ATOM      4  C   UNL     1       6.176   5.566  15.944  0.00  0.00    +0.000 A 
ATOM      5  C   UNL     1       7.090   5.824  14.909  0.00  0.00    +0.000 A 
ATOM      6  C   UNL     1       7.168   4.932  13.834  0.00  0.00    +0.000 A 
ATOM      7  C   UNL     1       6.354   3.800  13.790  0.00  0.00    +0.000 A 
ATOM      8  C   UNL     1       5.445   3.516  14.819  0.00  0.00    +0.000 A 
ATOM      9  C   UNL     1       5.384   4.419  15.890  0.00  0.00    +0.000 A 
ATOM     10  N   UNL     1       4.637   4.471  17.055  0.00  0.00    +0.000 N 
BRANCH  10  11
ATOM     11  C   UNL     1       3.730   3.429  17.523  0.00  0.00    +0.000 C 
BRANCH  11  12
ATOM     12  C   UNL     1       3.989   2.998  18.953  0.00  0.00    +0.000 C 
ATOM     13  O   UNL     1       5.129   2.807  19.385  0.00  0.00    +0.000 OA
ATOM     14  N   UNL     1       2.885   2.857  19.781  0.00  0.00    +0.000 N 
ATOM     15  C   UNL     1       1.479   2.996  19.464  0.00  0.00    +0.000 C 
ATOM     16  C   UNL     1       0.861   3.397  20.794  0.00  0.00    +0.000 C 
ATOM     17  C   UNL     1       1.695   2.642  21.827  0.00  0.00    +0.000 C 
ATOM     18  C   UNL     1       3.062   2.470  21.173  0.00  0.00    +0.000 C 
ENDBRANCH  11  12
ENDBRANCH  10  11
ENDBRANCH   1   2
BRANCH   1  19
ATOM     19  C   UNL     1       2.492   6.413  18.658  0.00  0.00    +0.000 C 
BRANCH  19  21
ATOM     20  O   UNL     1       2.611   8.464  17.364  0.00  0.00    +0.000 OA
ATOM     21  C   UNL     1       2.217   7.899  18.387  0.00  0.00    +0.000 C 
ATOM     22  N   UNL     1       1.501   8.616  19.346  0.00  0.00    +0.000 N 
ATOM     23  C   UNL     1       0.924   8.076  20.591  0.00  0.00    +0.000 C 
ATOM     24  C   UNL     1       1.057   9.064  21.771  0.00  0.00    +0.000 C 
ATOM     25  N   UNL     1       0.624  10.414  21.395  0.00  0.00    +0.000 N 
ATOM     26  C   UNL     1      -0.197  11.151  22.255  0.00  0.00    +0.000 C 
ATOM     27  O   UNL     1      -0.466  10.719  23.377  0.00  0.00    +0.000 OA
ATOM     28  C   UNL     1       1.304  10.933  20.203  0.00  0.00    +0.000 C 
ATOM     29  C   UNL     1       1.082   9.990  19.020  0.00  0.00    +0.000 C 
BRANCH  26  30
ATOM     30  C   UNL     1      -0.722  12.433  21.807  0.00  0.00    +0.000 A 
ATOM     31  C   UNL     1      -1.803  12.725  20.992  0.00  0.00    +0.000 A 
ATOM     32  C   UNL     1      -1.868  14.136  20.881  0.00  0.00    +0.000 A 
ATOM     33  C   UNL     1      -0.794  14.622  21.586  0.00  0.00    +0.000 A 
ATOM     34  O   UNL     1      -0.078  13.602  22.122  0.00  0.00    +0.000 OA
ENDBRANCH  26  30
ENDBRANCH  19  21
ENDBRANCH   1  19
TORSDOF 6
ENDMDL
MODEL 8
REMARK VINA RESULT:      -7.8      1.879      2.176
REMARK  Name = 
REMARK  6 active torsions:
REMARK  status: ('A' for Active; 'I' for Inactive)
REMARK    1  A    between atoms: C_2  and  C_3
REMARK    2  A    between atoms: C_3  and  S_4
REMARK    3  A    between atoms: S_4  and  C_5
REMARK    4  A    between atoms: N_13  and  C_14
REMARK    5  A    between atoms: C_14  and  C_15
REMARK    6  A    between atoms: C_26  and  C_28
REMARK                            x       y       z     vdW  Elec       q    Type
REMARK                         _______ _______ _______ _____ _____    ______ ____
ROOT
ATOM      1  S   UNL     1       3.109   8.030  17.825  0.00  0.00    +0.000 S 
ENDROOT
BRANCH   1   2
ATOM      2  C   UNL     1       2.941   6.337  18.146  0.00  0.00    +0.000 A 
ATOM      3  N   UNL     1       1.840   5.648  17.957  0.00  0.00    +0.000 NA
ATOM      4  C   UNL     1       2.140   4.375  18.371  0.00  0.00    +0.000 A 
ATOM      5  C   UNL     1       1.318   3.236  18.403  0.00  0.00    +0.000 A 
ATOM      6  C   UNL     1       1.841   2.035  18.894  0.00  0.00    +0.000 A 
ATOM      7  C   UNL     1       3.160   1.966  19.343  0.00  0.00    +0.000 A 
ATOM      8  C   UNL     1       4.002   3.086  19.307  0.00  0.00    +0.000 A 
ATOM      9  C   UNL     1       3.461   4.281  18.807  0.00  0.00    +0.000 A 
ATOM     10  N   UNL     1       3.971   5.554  18.618  0.00  0.00    +0.000 N 
BRANCH  10  11
ATOM     11  C   UNL     1       5.361   5.946  18.819  0.00  0.00    +0.000 C 
BRANCH  11  12
ATOM     12  C   UNL     1       6.350   5.074  18.071  0.00  0.00    +0.000 C 
ATOM     13  O   UNL     1       7.160   4.351  18.655  0.00  0.00    +0.000 OA
ATOM     14  N   UNL     1       6.288   5.095  16.685  0.00  0.00    +0.000 N 
ATOM     15  C   UNL     1       5.448   5.894  15.817  0.00  0.00    +0.000 C 
ATOM     16  C   UNL     1       5.334   5.041  14.563  0.00  0.00    +0.000 C 
ATOM     17  C   UNL     1       6.694   4.355  14.464  0.00  0.00    +0.000 C 
ATOM     18  C   UNL     1       7.192   4.265  15.902  0.00  0.00    +0.000 C 
ENDBRANCH  11  12
ENDBRANCH  10  11
ENDBRANCH   1   2
BRANCH   1  19
ATOM     19  C   UNL     1       1.414   8.644  18.146  0.00  0.00    +0.000 C 
BRANCH  19  21
ATOM     20  O   UNL     1       1.757   8.421  20.539  0.00  0.00    +0.000 OA
ATOM     21  C   UNL     1       1.251   9.061  19.614  0.00  0.00    +0.000 C 
ATOM     22  N   UNL     1       0.496  10.202  19.889  0.00  0.00    +0.000 N 
ATOM     23  C   UNL     1      -0.129  11.096  18.896  0.00  0.00    +0.000 C 
ATOM     24  C   UNL     1      -1.516  11.597  19.356  0.00  0.00    +0.000 C 
ATOM     25  N   UNL     1      -1.479  12.095  20.736  0.00  0.00    +0.000 N 
ATOM     26  C   UNL     1      -2.113  13.297  21.064  0.00  0.00    +0.000 C 
ATOM     27  O   UNL     1      -2.800  13.885  20.227  0.00  0.00    +0.000 OA
ATOM     28  C   UNL     1      -0.934  11.123  21.691  0.00  0.00    +0.000 C 
ATOM     29  C   UNL     1       0.477  10.709  21.271  0.00  0.00    +0.000 C 
BRANCH  26  30
ATOM     30  C   UNL     1      -1.953  13.839  22.406  0.00  0.00    +0.000 A 
ATOM     31  C   UNL     1      -0.852  14.415  23.017  0.00  0.00    +0.000 A 
ATOM     32  C   UNL     1      -1.246  14.770  24.330  0.00  0.00    +0.000 A 
ATOM     33  C   UNL     1      -2.545  14.343  24.466  0.00  0.00    +0.000 A 
ATOM     34  O   UNL     1      -2.970  13.751  23.322  0.00  0.00    +0.000 OA
ENDBRANCH  26  30
ENDBRANCH  19  21
ENDBRANCH   1  19
TORSDOF 6
ENDMDL
MODEL 9
REMARK VINA RESULT:      -7.8      2.996     10.704
REMARK  Name = 
REMARK  6 active torsions:
REMARK  status: ('A' for Active; 'I' for Inactive)
REMARK    1  A    between atoms: C_2  and  C_3
REMARK    2  A    between atoms: C_3  and  S_4
REMARK    3  A    between atoms: S_4  and  C_5
REMARK    4  A    between atoms: N_13  and  C_14
REMARK    5  A    between atoms: C_14  and  C_15
REMARK    6  A    between atoms: C_26  and  C_28
REMARK                            x       y       z     vdW  Elec       q    Type
REMARK                         _______ _______ _______ _____ _____    ______ ____
ROOT
ATOM      1  S   UNL     1       0.773  10.603  21.257  0.00  0.00    +0.000 S 
ENDROOT
BRANCH   1   2
ATOM      2  C   UNL     1       0.784  12.166  20.512  0.00  0.00    +0.000 A 
ATOM      3  N   UNL     1       1.840  12.725  19.967  0.00  0.00    +0.000 NA
ATOM      4  C   UNL     1       1.411  13.956  19.540  0.00  0.00    +0.000 A 
ATOM      5  C   UNL     1       2.137  14.975  18.901  0.00  0.00    +0.000 A 
ATOM      6  C   UNL     1       1.487  16.169  18.575  0.00  0.00    +0.000 A 
ATOM      7  C   UNL     1       0.136  16.348  18.875  0.00  0.00    +0.000 A 
ATOM      8  C   UNL     1      -0.611  15.339  19.499  0.00  0.00    +0.000 A 
ATOM      9  C   UNL     1       0.057  14.146  19.815  0.00  0.00    +0.000 A 
ATOM     10  N   UNL     1      -0.336  12.960  20.411  0.00  0.00    +0.000 N 
BRANCH  10  11
ATOM     11  C   UNL     1      -1.703  12.616  20.785  0.00  0.00    +0.000 C 
BRANCH  11  12
ATOM     12  C   UNL     1      -2.581  12.255  19.603  0.00  0.00    +0.000 C 
ATOM     13  O   UNL     1      -2.113  11.844  18.539  0.00  0.00    +0.000 OA
ATOM     14  N   UNL     1      -3.952  12.375  19.775  0.00  0.00    +0.000 N 
ATOM     15  C   UNL     1      -4.693  12.869  20.918  0.00  0.00    +0.000 C 
ATOM     16  C   UNL     1      -6.029  12.153  20.801  0.00  0.00    +0.000 C 
ATOM     17  C   UNL     1      -6.256  12.046  19.296  0.00  0.00    +0.000 C 
ATOM     18  C   UNL     1      -4.857  12.023  18.691  0.00  0.00    +0.000 C 
ENDBRANCH  11  12
ENDBRANCH  10  11
ENDBRANCH   1   2
BRANCH   1  19
ATOM     19  C   UNL     1       0.149   9.545  19.899  0.00  0.00    +0.000 C 
BRANCH  19  21
ATOM     20  O   UNL     1       1.436  10.034  17.900  0.00  0.00    +0.000 OA
ATOM     21  C   UNL     1       1.246   9.282  18.859  0.00  0.00    +0.000 C 
ATOM     22  N   UNL     1       2.041   8.146  19.020  0.00  0.00    +0.000 N 
ATOM     23  C   UNL     1       1.970   7.182  20.132  0.00  0.00    +0.000 C 
ATOM     24  C   UNL     1       2.185   5.727  19.657  0.00  0.00    +0.000 C 
ATOM     25  N   UNL     1       3.356   5.613  18.780  0.00  0.00    +0.000 N 
ATOM     26  C   UNL     1       4.264   4.566  18.958  0.00  0.00    +0.000 C 
ATOM     27  O   UNL     1       4.029   3.672  19.773  0.00  0.00    +0.000 OA
ATOM     28  C   UNL     1       3.319   6.534  17.639  0.00  0.00    +0.000 C 
ATOM     29  C   UNL     1       3.203   7.977  18.131  0.00  0.00    +0.000 C 
BRANCH  26  30
ATOM     30  C   UNL     1       5.486   4.545  18.166  0.00  0.00    +0.000 A 
ATOM     31  C   UNL     1       5.679   4.281  16.821  0.00  0.00    +0.000 A 
ATOM     32  C   UNL     1       7.069   4.398  16.572  0.00  0.00    +0.000 A 
ATOM     33  C   UNL     1       7.651   4.672  17.786  0.00  0.00    +0.000 A 
ATOM     34  O   UNL     1       6.709   4.731  18.760  0.00  0.00    +0.000 OA
ENDBRANCH  26  30
ENDBRANCH  19  21
ENDBRANCH   1  19
TORSDOF 6
ENDMDL
