MODEL 1
REMARK VINA RESULT:      -6.8      0.000      0.000
REMARK  Name = 
REMARK  12 active torsions:
REMARK  status: ('A' for Active; 'I' for Inactive)
REMARK    1  A    between atoms: C_1  and  C_2
REMARK    2  A    between atoms: C_2  and  C_3
REMARK    3  A    between atoms: C_3  and  C_4
REMARK    4  A    between atoms: C_4  and  C_5
REMARK    5  A    between atoms: C_5  and  C_6
REMARK    6  A    between atoms: C_6  and  C_7
REMARK    7  A    between atoms: C_7  and  C_8
REMARK    8  A    between atoms: C_8  and  N_9
REMARK    9  A    between atoms: C_12  and  C_13
REMARK   10  A    between atoms: C_13  and  O_15
REMARK   11  A    between atoms: O_15  and  C_16
REMARK   12  A    between atoms: C_17  and  N_18
REMARK                            x       y       z     vdW  Elec       q    Type
REMARK                         _______ _______ _______ _____ _____    ______ ____
ROOT
ATOM      1  N   UNL     1       3.382   6.154  18.445  0.00  0.00    +0.000 N 
ATOM      2  C   UNL     1       2.767   5.311  19.356  0.00  0.00    +0.000 A 
ATOM      3  O   UNL     1       1.999   5.756  20.215  0.00  0.00    +0.000 OA
ATOM      4  C   UNL     1       3.067   3.852  19.284  0.00  0.00    +0.000 A 
ATOM      5  C   UNL     1       3.899   3.357  18.336  0.00  0.00    +0.000 A 
ATOM      6  C   UNL     1       4.442   4.283  17.299  0.00  0.00    +0.000 A 
ATOM      7  C   UNL     1       5.159   3.812  16.178  0.00  0.00    +0.000 A 
ATOM      8  C   UNL     1       5.603   4.673  15.172  0.00  0.00    +0.000 A 
ATOM      9  C   UNL     1       5.436   6.039  15.319  0.00  0.00    +0.000 A 
ATOM     10  C   UNL     1       4.785   6.533  16.447  0.00  0.00    +0.000 A 
ATOM     11  C   UNL     1       4.222   5.666  17.404  0.00  0.00    +0.000 A 
ENDROOT
BRANCH   5  12
ATOM     12  N   UNL     1       4.311   2.024  18.267  0.00  0.00    +0.000 N 
ATOM     13  H   UNL     1       4.652   1.768  17.333  0.00  0.00    +0.000 HD
ATOM     14  H   UNL     1       4.990   1.748  18.965  0.00  0.00    +0.000 HD
ENDBRANCH   5  12
BRANCH   4  15
ATOM     15  C   UNL     1       2.430   2.895  20.240  0.00  0.00    +0.000 C 
ATOM     16  O   UNL     1       2.596   2.948  21.457  0.00  0.00    +0.000 OA
BRANCH  15  17
ATOM     17  O   UNL     1       1.650   1.977  19.626  0.00  0.00    +0.000 OA
ATOM     18  C   UNL     1       0.560   2.509  18.872  0.00  0.00    +0.000 C 
ENDBRANCH  15  17
ENDBRANCH   4  15
BRANCH   1  19
ATOM     19  C   UNL     1       3.154   7.587  18.616  0.00  0.00    +0.000 C 
BRANCH  19  20
ATOM     20  C   UNL     1       1.970   8.045  17.774  0.00  0.00    +0.000 C 
BRANCH  20  21
ATOM     21  C   UNL     1       1.703   9.529  17.977  0.00  0.00    +0.000 C 
BRANCH  21  22
ATOM     22  C   UNL     1       0.362   9.736  18.666  0.00  0.00    +0.000 C 
BRANCH  22  23
ATOM     23  C   UNL     1       0.568  10.167  20.112  0.00  0.00    +0.000 C 
BRANCH  23  24
ATOM     24  C   UNL     1       0.679   8.949  21.021  0.00  0.00    +0.000 C 
BRANCH  24  26
ATOM     25  C   UNL     1      -0.481  10.468  22.639  0.00  0.00    +0.000 C 
ATOM     26  C   UNL     1      -0.325   9.034  22.165  0.00  0.00    +0.000 C 
ENDBRANCH  24  26
ENDBRANCH  23  24
ENDBRANCH  22  23
ENDBRANCH  21  22
ENDBRANCH  20  21
ENDBRANCH  19  20
ENDBRANCH   1  19
TORSDOF 10
ENDMDL
MODEL 2
REMARK VINA RESULT:      -6.8      2.561      4.448
REMARK  Name = 
REMARK  12 active torsions:
REMARK  status: ('A' for Active; 'I' for Inactive)
REMARK    1  A    between atoms: C_1  and  C_2
REMARK    2  A    between atoms: C_2  and  C_3
REMARK    3  A    between atoms: C_3  and  C_4
REMARK    4  A    between atoms: C_4  and  C_5
REMARK    5  A    between atoms: C_5  and  C_6
REMARK    6  A    between atoms: C_6  and  C_7
REMARK    7  A    between atoms: C_7  and  C_8
REMARK    8  A    between atoms: C_8  and  N_9
REMARK    9  A    between atoms: C_12  and  C_13
REMARK   10  A    between atoms: C_13  and  O_15
REMARK   11  A    between atoms: O_15  and  C_16
REMARK   12  A    between atoms: C_17  and  N_18
REMARK                            x       y       z     vdW  Elec       q    Type
REMARK                         _______ _______ _______ _____ _____    ______ ____
ROOT
ATOM      1  N   UNL     1       3.396   6.013  18.602  0.00  0.00    +0.000 N 
ATOM      2  C   UNL     1       4.498   5.835  17.781  0.00  0.00    +0.000 A 
ATOM      3  O   UNL     1       5.168   6.801  17.398  0.00  0.00    +0.000 OA
ATOM      4  C   UNL     1       4.848   4.449  17.358  0.00  0.00    +0.000 A 
ATOM      5  C   UNL     1       4.125   3.386  17.784  0.00  0.00    +0.000 A 
ATOM      6  C   UNL     1       3.023   3.610  18.765  0.00  0.00    +0.000 A 
ATOM      7  C   UNL     1       2.352   2.540  19.395  0.00  0.00    +0.000 A 
ATOM      8  C   UNL     1       1.371   2.753  20.366  0.00  0.00    +0.000 A 
ATOM      9  C   UNL     1       0.961   4.044  20.651  0.00  0.00    +0.000 A 
ATOM     10  C   UNL     1       1.566   5.115  19.998  0.00  0.00    +0.000 A 
ATOM     11  C   UNL     1       2.642   4.918  19.111  0.00  0.00    +0.000 A 
ENDROOT
BRANCH   5  12
ATOM     12  N   UNL     1       4.323   2.073  17.352  0.00  0.00    +0.000 N 
ATOM     13  H   UNL     1       5.106   1.991  16.693  0.00  0.00    +0.000 HD
ATOM     14  H   UNL     1       4.427   1.388  18.091  0.00  0.00    +0.000 HD
ENDBRANCH   5  12
BRANCH   4  15
ATOM     15  C   UNL     1       6.028   4.197  16.475  0.00  0.00    +0.000 C 
ATOM     16  O   UNL     1       7.190   4.376  16.835  0.00  0.00    +0.000 OA
BRANCH  15  17
ATOM     17  O   UNL     1       5.682   3.747  15.248  0.00  0.00    +0.000 OA
ATOM     18  C   UNL     1       6.356   4.372  14.155  0.00  0.00    +0.000 C 
ENDBRANCH  15  17
ENDBRANCH   4  15
BRANCH   1  19
ATOM     19  C   UNL     1       3.016   7.391  18.905  0.00  0.00    +0.000 C 
BRANCH  19  20
ATOM     20  C   UNL     1       2.114   7.951  17.812  0.00  0.00    +0.000 C 
BRANCH  20  21
ATOM     21  C   UNL     1       1.559   9.309  18.212  0.00  0.00    +0.000 C 
BRANCH  21  22
ATOM     22  C   UNL     1       0.108   9.439  17.770  0.00  0.00    +0.000 C 
BRANCH  22  23
ATOM     23  C   UNL     1      -0.595  10.529  18.567  0.00  0.00    +0.000 C 
BRANCH  23  24
ATOM     24  C   UNL     1      -1.914  10.908  17.905  0.00  0.00    +0.000 C 
BRANCH  24  26
ATOM     25  C   UNL     1      -2.776  10.626  15.571  0.00  0.00    +0.000 C 
ATOM     26  C   UNL     1      -2.279   9.909  16.813  0.00  0.00    +0.000 C 
ENDBRANCH  24  26
ENDBRANCH  23  24
ENDBRANCH  22  23
ENDBRANCH  21  22
ENDBRANCH  20  21
ENDBRANCH  19  20
ENDBRANCH   1  19
TORSDOF 10
ENDMDL
MODEL 3
REMARK VINA RESULT:      -6.8      1.116      1.990
REMARK  Name = 
REMARK  12 active torsions:
REMARK  status: ('A' for Active; 'I' for Inactive)
REMARK    1  A    between atoms: C_1  and  C_2
REMARK    2  A    between atoms: C_2  and  C_3
REMARK    3  A    between atoms: C_3  and  C_4
REMARK    4  A    between atoms: C_4  and  C_5
REMARK    5  A    between atoms: C_5  and  C_6
REMARK    6  A    between atoms: C_6  and  C_7
REMARK    7  A    between atoms: C_7  and  C_8
REMARK    8  A    between atoms: C_8  and  N_9
REMARK    9  A    between atoms: C_12  and  C_13
REMARK   10  A    between atoms: C_13  and  O_15
REMARK   11  A    between atoms: O_15  and  C_16
REMARK   12  A    between atoms: C_17  and  N_18
REMARK                            x       y       z     vdW  Elec       q    Type
REMARK                         _______ _______ _______ _____ _____    ______ ____
ROOT
ATOM      1  N   UNL     1       3.125   6.118  18.327  0.00  0.00    +0.000 N 
ATOM      2  C   UNL     1       2.316   5.226  19.012  0.00  0.00    +0.000 A 
ATOM      3  O   UNL     1       1.454   5.626  19.801  0.00  0.00    +0.000 OA
ATOM      4  C   UNL     1       2.520   3.766  18.783  0.00  0.00    +0.000 A 
ATOM      5  C   UNL     1       3.455   3.321  17.909  0.00  0.00    +0.000 A 
ATOM      6  C   UNL     1       4.219   4.318  17.101  0.00  0.00    +0.000 A 
ATOM      7  C   UNL     1       5.069   3.929  16.044  0.00  0.00    +0.000 A 
ATOM      8  C   UNL     1       5.726   4.867  15.244  0.00  0.00    +0.000 A 
ATOM      9  C   UNL     1       5.634   6.213  15.552  0.00  0.00    +0.000 A 
ATOM     10  C   UNL     1       4.849   6.617  16.629  0.00  0.00    +0.000 A 
ATOM     11  C   UNL     1       4.082   5.692  17.363  0.00  0.00    +0.000 A 
ENDROOT
BRANCH   5  12
ATOM     12  N   UNL     1       3.779   1.977  17.717  0.00  0.00    +0.000 N 
ATOM     13  H   UNL     1       3.038   1.461  17.228  0.00  0.00    +0.000 HD
ATOM     14  H   UNL     1       4.668   1.810  17.260  0.00  0.00    +0.000 HD
ENDBRANCH   5  12
BRANCH   4  15
ATOM     15  C   UNL     1       1.675   2.758  19.492  0.00  0.00    +0.000 C 
ATOM     16  O   UNL     1       0.571   2.399  19.086  0.00  0.00    +0.000 OA
BRANCH  15  17
ATOM     17  O   UNL     1       2.255   2.281  20.617  0.00  0.00    +0.000 OA
ATOM     18  C   UNL     1       1.581   2.604  21.834  0.00  0.00    +0.000 C 
ENDBRANCH  15  17
ENDBRANCH   4  15
BRANCH   1  19
ATOM     19  C   UNL     1       2.973   7.533  18.659  0.00  0.00    +0.000 C 
BRANCH  19  20
ATOM     20  C   UNL     1       2.090   8.232  17.633  0.00  0.00    +0.000 C 
BRANCH  20  21
ATOM     21  C   UNL     1       1.582   9.560  18.173  0.00  0.00    +0.000 C 
BRANCH  21  22
ATOM     22  C   UNL     1       0.986   9.373  19.562  0.00  0.00    +0.000 C 
BRANCH  22  23
ATOM     23  C   UNL     1      -0.036  10.464  19.853  0.00  0.00    +0.000 C 
BRANCH  23  24
ATOM     24  C   UNL     1      -0.637  10.992  18.557  0.00  0.00    +0.000 C 
BRANCH  24  26
ATOM     25  C   UNL     1      -2.085   9.847  16.865  0.00  0.00    +0.000 C 
ATOM     26  C   UNL     1      -1.997  10.358  18.292  0.00  0.00    +0.000 C 
ENDBRANCH  24  26
ENDBRANCH  23  24
ENDBRANCH  22  23
ENDBRANCH  21  22
ENDBRANCH  20  21
ENDBRANCH  19  20
ENDBRANCH   1  19
TORSDOF 10
ENDMDL
MODEL 4
REMARK VINA RESULT:      -6.8      1.581      2.367
REMARK  Name = 
REMARK  12 active torsions:
REMARK  status: ('A' for Active; 'I' for Inactive)
REMARK    1  A    between atoms: C_1  and  C_2
REMARK    2  A    between atoms: C_2  and  C_3
REMARK    3  A    between atoms: C_3  and  C_4
REMARK    4  A    between atoms: C_4  and  C_5
REMARK    5  A    between atoms: C_5  and  C_6
REMARK    6  A    between atoms: C_6  and  C_7
REMARK    7  A    between atoms: C_7  and  C_8
REMARK    8  A    between atoms: C_8  and  N_9
REMARK    9  A    between atoms: C_12  and  C_13
REMARK   10  A    between atoms: C_13  and  O_15
REMARK   11  A    between atoms: O_15  and  C_16
REMARK   12  A    between atoms: C_17  and  N_18
REMARK                            x       y       z     vdW  Elec       q    Type
REMARK                         _______ _______ _______ _____ _____    ______ ____
ROOT
ATOM      1  N   UNL     1       2.975   6.339  19.033  0.00  0.00    +0.000 N 
ATOM      2  C   UNL     1       2.400   5.470  19.946  0.00  0.00    +0.000 A 
ATOM      3  O   UNL     1       1.546   5.864  20.748  0.00  0.00    +0.000 OA
ATOM      4  C   UNL     1       2.847   4.047  19.947  0.00  0.00    +0.000 A 
ATOM      5  C   UNL     1       3.773   3.607  19.062  0.00  0.00    +0.000 A 
ATOM      6  C   UNL     1       4.276   4.546  18.017  0.00  0.00    +0.000 A 
ATOM      7  C   UNL     1       5.095   4.112  16.952  0.00  0.00    +0.000 A 
ATOM      8  C   UNL     1       5.503   4.979  15.936  0.00  0.00    +0.000 A 
ATOM      9  C   UNL     1       5.193   6.325  16.019  0.00  0.00    +0.000 A 
ATOM     10  C   UNL     1       4.437   6.789  17.093  0.00  0.00    +0.000 A 
ATOM     11  C   UNL     1       3.913   5.903  18.055  0.00  0.00    +0.000 A 
ENDROOT
BRANCH   5  12
ATOM     12  N   UNL     1       4.320   2.322  19.066  0.00  0.00    +0.000 N 
ATOM     13  H   UNL     1       5.290   2.309  19.403  0.00  0.00    +0.000 HD
ATOM     14  H   UNL     1       3.778   1.626  19.563  0.00  0.00    +0.000 HD
ENDBRANCH   5  12
BRANCH   4  15
ATOM     15  C   UNL     1       2.259   3.064  20.908  0.00  0.00    +0.000 C 
ATOM     16  O   UNL     1       2.885   2.590  21.854  0.00  0.00    +0.000 OA
BRANCH  15  17
ATOM     17  O   UNL     1       0.971   2.762  20.631  0.00  0.00    +0.000 OA
ATOM     18  C   UNL     1       0.707   2.401  19.274  0.00  0.00    +0.000 C 
ENDBRANCH  15  17
ENDBRANCH   4  15
BRANCH   1  19
ATOM     19  C   UNL     1       2.596   7.747  19.135  0.00  0.00    +0.000 C 
BRANCH  19  20
ATOM     20  C   UNL     1       1.791   8.174  17.914  0.00  0.00    +0.000 C 
BRANCH  20  21
ATOM     21  C   UNL     1       1.182   9.552  18.124  0.00  0.00    +0.000 C 
BRANCH  21  22
ATOM     22  C   UNL     1      -0.265   9.568  17.652  0.00  0.00    +0.000 C 
BRANCH  22  23
ATOM     23  C   UNL     1      -1.128  10.378  18.611  0.00  0.00    +0.000 C 
BRANCH  23  24
ATOM     24  C   UNL     1      -2.369  10.902  17.899  0.00  0.00    +0.000 C 
BRANCH  24  26
ATOM     25  C   UNL     1      -2.912  10.758  15.459  0.00  0.00    +0.000 C 
ATOM     26  C   UNL     1      -2.768   9.979  16.754  0.00  0.00    +0.000 C 
ENDBRANCH  24  26
ENDBRANCH  23  24
ENDBRANCH  22  23
ENDBRANCH  21  22
ENDBRANCH  20  21
ENDBRANCH  19  20
ENDBRANCH   1  19
TORSDOF 10
ENDMDL
MODEL 5
REMARK VINA RESULT:      -6.8      2.237      3.934
REMARK  Name = 
REMARK  12 active torsions:
REMARK  status: ('A' for Active; 'I' for Inactive)
REMARK    1  A    between atoms: C_1  and  C_2
REMARK    2  A    between atoms: C_2  and  C_3
REMARK    3  A    between atoms: C_3  and  C_4
REMARK    4  A    between atoms: C_4  and  C_5
REMARK    5  A    between atoms: C_5  and  C_6
REMARK    6  A    between atoms: C_6  and  C_7
REMARK    7  A    between atoms: C_7  and  C_8
REMARK    8  A    between atoms: C_8  and  N_9
REMARK    9  A    between atoms: C_12  and  C_13
REMARK   10  A    between atoms: C_13  and  O_15
REMARK   11  A    between atoms: O_15  and  C_16
REMARK   12  A    between atoms: C_17  and  N_18
REMARK                            x       y       z     vdW  Elec       q    Type
REMARK                         _______ _______ _______ _____ _____    ______ ____
ROOT
ATOM      1  N   UNL     1       3.165   6.211  18.591  0.00  0.00    +0.000 N 
ATOM      2  C   UNL     1       4.214   6.166  17.686  0.00  0.00    +0.000 A 
ATOM      3  O   UNL     1       4.731   7.204  17.261  0.00  0.00    +0.000 OA
ATOM      4  C   UNL     1       4.693   4.831  17.226  0.00  0.00    +0.000 A 
ATOM      5  C   UNL     1       4.138   3.689  17.698  0.00  0.00    +0.000 A 
ATOM      6  C   UNL     1       3.096   3.781  18.763  0.00  0.00    +0.000 A 
ATOM      7  C   UNL     1       2.609   2.638  19.433  0.00  0.00    +0.000 A 
ATOM      8  C   UNL     1       1.687   2.734  20.478  0.00  0.00    +0.000 A 
ATOM      9  C   UNL     1       1.149   3.966  20.804  0.00  0.00    +0.000 A 
ATOM     10  C   UNL     1       1.569   5.102  20.116  0.00  0.00    +0.000 A 
ATOM     11  C   UNL     1       2.590   5.034  19.148  0.00  0.00    +0.000 A 
ENDROOT
BRANCH   5  12
ATOM     12  N   UNL     1       4.458   2.409  17.241  0.00  0.00    +0.000 N 
ATOM     13  H   UNL     1       4.107   2.233  16.292  0.00  0.00    +0.000 HD
ATOM     14  H   UNL     1       5.440   2.168  17.291  0.00  0.00    +0.000 HD
ENDBRANCH   5  12
BRANCH   4  15
ATOM     15  C   UNL     1       5.823   4.722  16.253  0.00  0.00    +0.000 C 
ATOM     16  O   UNL     1       7.006   4.760  16.587  0.00  0.00    +0.000 OA
BRANCH  15  17
ATOM     17  O   UNL     1       5.406   4.570  14.976  0.00  0.00    +0.000 OA
ATOM     18  C   UNL     1       6.316   3.884  14.115  0.00  0.00    +0.000 C 
ENDBRANCH  15  17
ENDBRANCH   4  15
BRANCH   1  19
ATOM     19  C   UNL     1       2.647   7.534  18.933  0.00  0.00    +0.000 C 
BRANCH  19  20
ATOM     20  C   UNL     1       1.743   8.058  17.825  0.00  0.00    +0.000 C 
BRANCH  20  21
ATOM     21  C   UNL     1       1.110   9.383  18.225  0.00  0.00    +0.000 C 
BRANCH  21  22
ATOM     22  C   UNL     1       1.301   9.631  19.715  0.00  0.00    +0.000 C 
BRANCH  22  23
ATOM     23  C   UNL     1      -0.029   9.516  20.447  0.00  0.00    +0.000 C 
BRANCH  23  24
ATOM     24  C   UNL     1       0.158   8.817  21.788  0.00  0.00    +0.000 C 
BRANCH  24  26
ATOM     25  C   UNL     1      -0.659  11.048  22.577  0.00  0.00    +0.000 C 
ATOM     26  C   UNL     1      -0.570   9.567  22.897  0.00  0.00    +0.000 C 
ENDBRANCH  24  26
ENDBRANCH  23  24
ENDBRANCH  22  23
ENDBRANCH  21  22
ENDBRANCH  20  21
ENDBRANCH  19  20
ENDBRANCH   1  19
TORSDOF 10
ENDMDL
MODEL 6
REMARK VINA RESULT:      -6.8      0.817      1.230
REMARK  Name = 
REMARK  12 active torsions:
REMARK  status: ('A' for Active; 'I' for Inactive)
REMARK    1  A    between atoms: C_1  and  C_2
REMARK    2  A    between atoms: C_2  and  C_3
REMARK    3  A    between atoms: C_3  and  C_4
REMARK    4  A    between atoms: C_4  and  C_5
REMARK    5  A    between atoms: C_5  and  C_6
REMARK    6  A    between atoms: C_6  and  C_7
REMARK    7  A    between atoms: C_7  and  C_8
REMARK    8  A    between atoms: C_8  and  N_9
REMARK    9  A    between atoms: C_12  and  C_13
REMARK   10  A    between atoms: C_13  and  O_15
REMARK   11  A    between atoms: O_15  and  C_16
REMARK   12  A    between atoms: C_17  and  N_18
REMARK                            x       y       z     vdW  Elec       q    Type
REMARK                         _______ _______ _______ _____ _____    ______ ____
ROOT
ATOM      1  N   UNL     1       2.893   6.041  18.445  0.00  0.00    +0.000 N 
ATOM      2  C   UNL     1       1.979   5.240  19.110  0.00  0.00    +0.000 A 
ATOM      3  O   UNL     1       1.141   5.732  19.874  0.00  0.00    +0.000 OA
ATOM      4  C   UNL     1       2.040   3.766  18.893  0.00  0.00    +0.000 A 
ATOM      5  C   UNL     1       2.948   3.223  18.047  0.00  0.00    +0.000 A 
ATOM      6  C   UNL     1       3.832   4.131  17.258  0.00  0.00    +0.000 A 
ATOM      7  C   UNL     1       4.667   3.650  16.226  0.00  0.00    +0.000 A 
ATOM      8  C   UNL     1       5.437   4.510  15.441  0.00  0.00    +0.000 A 
ATOM      9  C   UNL     1       5.475   5.861  15.742  0.00  0.00    +0.000 A 
ATOM     10  C   UNL     1       4.706   6.351  16.794  0.00  0.00    +0.000 A 
ATOM     11  C   UNL     1       3.829   5.513  17.511  0.00  0.00    +0.000 A 
ENDROOT
BRANCH   5  12
ATOM     12  N   UNL     1       3.139   1.851  17.870  0.00  0.00    +0.000 N 
ATOM     13  H   UNL     1       4.132   1.591  17.859  0.00  0.00    +0.000 HD
ATOM     14  H   UNL     1       2.640   1.260  18.524  0.00  0.00    +0.000 HD
ENDBRANCH   5  12
BRANCH   4  15
ATOM     15  C   UNL     1       1.077   2.854  19.583  0.00  0.00    +0.000 C 
ATOM     16  O   UNL     1       0.334   2.080  18.982  0.00  0.00    +0.000 OA
BRANCH  15  17
ATOM     17  O   UNL     1       1.117   2.966  20.930  0.00  0.00    +0.000 OA
ATOM     18  C   UNL     1       2.355   2.595  21.537  0.00  0.00    +0.000 C 
ENDBRANCH  15  17
ENDBRANCH   4  15
BRANCH   1  19
ATOM     19  C   UNL     1       2.877   7.466  18.767  0.00  0.00    +0.000 C 
BRANCH  19  20
ATOM     20  C   UNL     1       1.932   8.215  17.837  0.00  0.00    +0.000 C 
BRANCH  20  21
ATOM     21  C   UNL     1       1.847   9.684  18.220  0.00  0.00    +0.000 C 
BRANCH  21  22
ATOM     22  C   UNL     1       0.513   9.980  18.891  0.00  0.00    +0.000 C 
BRANCH  22  23
ATOM     23  C   UNL     1       0.711  10.238  20.379  0.00  0.00    +0.000 C 
BRANCH  23  24
ATOM     24  C   UNL     1       0.220   9.051  21.197  0.00  0.00    +0.000 C 
BRANCH  24  26
ATOM     25  C   UNL     1      -0.862  10.312  23.070  0.00  0.00    +0.000 C 
ATOM     26  C   UNL     1       0.262   9.365  22.687  0.00  0.00    +0.000 C 
ENDBRANCH  24  26
ENDBRANCH  23  24
ENDBRANCH  22  23
ENDBRANCH  21  22
ENDBRANCH  20  21
ENDBRANCH  19  20
ENDBRANCH   1  19
TORSDOF 10
ENDMDL
MODEL 7
REMARK VINA RESULT:      -6.7      2.392      3.983
REMARK  Name = 
REMARK  12 active torsions:
REMARK  status: ('A' for Active; 'I' for Inactive)
REMARK    1  A    between atoms: C_1  and  C_2
REMARK    2  A    between atoms: C_2  and  C_3
REMARK    3  A    between atoms: C_3  and  C_4
REMARK    4  A    between atoms: C_4  and  C_5
REMARK    5  A    between atoms: C_5  and  C_6
REMARK    6  A    between atoms: C_6  and  C_7
REMARK    7  A    between atoms: C_7  and  C_8
REMARK    8  A    between atoms: C_8  and  N_9
REMARK    9  A    between atoms: C_12  and  C_13
REMARK   10  A    between atoms: C_13  and  O_15
REMARK   11  A    between atoms: O_15  and  C_16
REMARK   12  A    between atoms: C_17  and  N_18
REMARK                            x       y       z     vdW  Elec       q    Type
REMARK                         _______ _______ _______ _____ _____    ______ ____
ROOT
ATOM      1  N   UNL     1       3.448   6.008  18.220  0.00  0.00    +0.000 N 
ATOM      2  C   UNL     1       4.674   6.205  17.605  0.00  0.00    +0.000 A 
ATOM      3  O   UNL     1       5.219   7.314  17.615  0.00  0.00    +0.000 OA
ATOM      4  C   UNL     1       5.315   5.047  16.918  0.00  0.00    +0.000 A 
ATOM      5  C   UNL     1       4.728   3.826  16.914  0.00  0.00    +0.000 A 
ATOM      6  C   UNL     1       3.470   3.629  17.692  0.00  0.00    +0.000 A 
ATOM      7  C   UNL     1       2.905   2.350  17.889  0.00  0.00    +0.000 A 
ATOM      8  C   UNL     1       1.768   2.160  18.678  0.00  0.00    +0.000 A 
ATOM      9  C   UNL     1       1.106   3.258  19.198  0.00  0.00    +0.000 A 
ATOM     10  C   UNL     1       1.610   4.536  18.967  0.00  0.00    +0.000 A 
ATOM     11  C   UNL     1       2.825   4.730  18.281  0.00  0.00    +0.000 A 
ENDROOT
BRANCH   5  12
ATOM     12  N   UNL     1       5.209   2.722  16.207  0.00  0.00    +0.000 N 
ATOM     13  H   UNL     1       4.667   2.535  15.356  0.00  0.00    +0.000 HD
ATOM     14  H   UNL     1       6.196   2.753  15.983  0.00  0.00    +0.000 HD
ENDBRANCH   5  12
BRANCH   4  15
ATOM     15  C   UNL     1       6.638   5.201  16.240  0.00  0.00    +0.000 C 
ATOM     16  O   UNL     1       7.708   4.927  16.781  0.00  0.00    +0.000 OA
BRANCH  15  17
ATOM     17  O   UNL     1       6.532   5.664  14.974  0.00  0.00    +0.000 OA
ATOM     18  C   UNL     1       7.017   4.783  13.960  0.00  0.00    +0.000 C 
ENDBRANCH  15  17
ENDBRANCH   4  15
BRANCH   1  19
ATOM     19  C   UNL     1       2.798   7.188  18.786  0.00  0.00    +0.000 C 
BRANCH  19  20
ATOM     20  C   UNL     1       2.055   7.961  17.703  0.00  0.00    +0.000 C 
BRANCH  20  21
ATOM     21  C   UNL     1       1.944   9.433  18.070  0.00  0.00    +0.000 C 
BRANCH  21  22
ATOM     22  C   UNL     1       0.507   9.782  18.430  0.00  0.00    +0.000 C 
BRANCH  22  23
ATOM     23  C   UNL     1       0.422  10.269  19.870  0.00  0.00    +0.000 C 
BRANCH  23  24
ATOM     24  C   UNL     1       0.467   9.092  20.836  0.00  0.00    +0.000 C 
BRANCH  24  26
ATOM     25  C   UNL     1      -0.507  10.880  22.294  0.00  0.00    +0.000 C 
ATOM     26  C   UNL     1       0.240   9.558  22.269  0.00  0.00    +0.000 C 
ENDBRANCH  24  26
ENDBRANCH  23  24
ENDBRANCH  22  23
ENDBRANCH  21  22
ENDBRANCH  20  21
ENDBRANCH  19  20
ENDBRANCH   1  19
TORSDOF 10
ENDMDL
MODEL 8
REMARK VINA RESULT:      -6.7      2.147      3.863
REMARK  Name = 
REMARK  12 active torsions:
REMARK  status: ('A' for Active; 'I' for Inactive)
REMARK    1  A    between atoms: C_1  and  C_2
REMARK    2  A    between atoms: C_2  and  C_3
REMARK    3  A    between atoms: C_3  and  C_4
REMARK    4  A    between atoms: C_4  and  C_5
REMARK    5  A    between atoms: C_5  and  C_6
REMARK    6  A    between atoms: C_6  and  C_7
REMARK    7  A    between atoms: C_7  and  C_8
REMARK    8  A    between atoms: C_8  and  N_9
REMARK    9  A    between atoms: C_12  and  C_13
REMARK   10  A    between atoms: C_13  and  O_15
REMARK   11  A    between atoms: O_15  and  C_16
REMARK   12  A    between atoms: C_17  and  N_18
REMARK                            x       y       z     vdW  Elec       q    Type
REMARK                         _______ _______ _______ _____ _____    ______ ____
ROOT
ATOM      1  N   UNL     1       3.332   6.035  18.629  0.00  0.00    +0.000 N 
ATOM      2  C   UNL     1       4.469   5.846  17.860  0.00  0.00    +0.000 A 
ATOM      3  O   UNL     1       5.148   6.807  17.482  0.00  0.00    +0.000 OA
ATOM      4  C   UNL     1       4.848   4.453  17.487  0.00  0.00    +0.000 A 
ATOM      5  C   UNL     1       4.115   3.394  17.908  0.00  0.00    +0.000 A 
ATOM      6  C   UNL     1       2.970   3.634  18.835  0.00  0.00    +0.000 A 
ATOM      7  C   UNL     1       2.280   2.573  19.462  0.00  0.00    +0.000 A 
ATOM      8  C   UNL     1       1.258   2.803  20.385  0.00  0.00    +0.000 A 
ATOM      9  C   UNL     1       0.826   4.097  20.620  0.00  0.00    +0.000 A 
ATOM     10  C   UNL     1       1.450   5.157  19.967  0.00  0.00    +0.000 A 
ATOM     11  C   UNL     1       2.566   4.946  19.133  0.00  0.00    +0.000 A 
ENDROOT
BRANCH   5  12
ATOM     12  N   UNL     1       4.340   2.073  17.517  0.00  0.00    +0.000 N 
ATOM     13  H   UNL     1       3.479   1.598  17.224  0.00  0.00    +0.000 HD
ATOM     14  H   UNL     1       5.055   1.950  16.810  0.00  0.00    +0.000 HD
ENDBRANCH   5  12
BRANCH   4  15
ATOM     15  C   UNL     1       6.066   4.190  16.661  0.00  0.00    +0.000 C 
ATOM     16  O   UNL     1       7.208   4.426  17.051  0.00  0.00    +0.000 OA
BRANCH  15  17
ATOM     17  O   UNL     1       5.778   3.659  15.451  0.00  0.00    +0.000 OA
ATOM     18  C   UNL     1       5.612   4.605  14.394  0.00  0.00    +0.000 C 
ENDBRANCH  15  17
ENDBRANCH   4  15
BRANCH   1  19
ATOM     19  C   UNL     1       2.930   7.417  18.881  0.00  0.00    +0.000 C 
BRANCH  19  20
ATOM     20  C   UNL     1       2.085   7.947  17.729  0.00  0.00    +0.000 C 
BRANCH  20  21
ATOM     21  C   UNL     1       1.931   9.457  17.822  0.00  0.00    +0.000 C 
BRANCH  21  22
ATOM     22  C   UNL     1       0.644   9.814  18.553  0.00  0.00    +0.000 C 
BRANCH  22  23
ATOM     23  C   UNL     1       0.833  11.083  19.374  0.00  0.00    +0.000 C 
BRANCH  23  24
ATOM     24  C   UNL     1       0.396  10.856  20.816  0.00  0.00    +0.000 C 
BRANCH  24  26
ATOM     25  C   UNL     1      -0.339   9.134  22.479  0.00  0.00    +0.000 C 
ATOM     26  C   UNL     1      -0.129   9.438  21.006  0.00  0.00    +0.000 C 
ENDBRANCH  24  26
ENDBRANCH  23  24
ENDBRANCH  22  23
ENDBRANCH  21  22
ENDBRANCH  20  21
ENDBRANCH  19  20
ENDBRANCH   1  19
TORSDOF 10
ENDMDL
MODEL 9
REMARK VINA RESULT:      -6.7      2.258      6.396
REMARK  Name = 
REMARK  12 active torsions:
REMARK  status: ('A' for Active; 'I' for Inactive)
REMARK    1  A    between atoms: C_1  and  C_2
REMARK    2  A    between atoms: C_2  and  C_3
REMARK    3  A    between atoms: C_3  and  C_4
REMARK    4  A    between atoms: C_4  and  C_5
REMARK    5  A    between atoms: C_5  and  C_6
REMARK    6  A    between atoms: C_6  and  C_7
REMARK    7  A    between atoms: C_7  and  C_8
REMARK    8  A    between atoms: C_8  and  N_9
REMARK    9  A    between atoms: C_12  and  C_13
REMARK   10  A    between atoms: C_13  and  O_15
REMARK   11  A    between atoms: O_15  and  C_16
REMARK   12  A    between atoms: C_17  and  N_18
REMARK                            x       y       z     vdW  Elec       q    Type
REMARK                         _______ _______ _______ _____ _____    ______ ____
ROOT
ATOM      1  N   UNL     1       4.658   4.766  18.524  0.00  0.00    +0.000 N 
ATOM      2  C   UNL     1       4.269   3.751  19.382  0.00  0.00    +0.000 A 
ATOM      3  O   UNL     1       5.006   2.782  19.597  0.00  0.00    +0.000 OA
ATOM      4  C   UNL     1       2.930   3.849  20.032  0.00  0.00    +0.000 A 
ATOM      5  C   UNL     1       2.124   4.914  19.811  0.00  0.00    +0.000 A 
ATOM      6  C   UNL     1       2.633   6.042  18.977  0.00  0.00    +0.000 A 
ATOM      7  C   UNL     1       1.929   7.260  18.857  0.00  0.00    +0.000 A 
ATOM      8  C   UNL     1       2.442   8.340  18.135  0.00  0.00    +0.000 A 
ATOM      9  C   UNL     1       3.621   8.189  17.426  0.00  0.00    +0.000 A 
ATOM     10  C   UNL     1       4.304   6.977  17.480  0.00  0.00    +0.000 A 
ATOM     11  C   UNL     1       3.861   5.925  18.305  0.00  0.00    +0.000 A 
ENDROOT
BRANCH   5  12
ATOM     12  N   UNL     1       0.819   5.030  20.296  0.00  0.00    +0.000 N 
ATOM     13  H   UNL     1       0.131   4.584  19.678  0.00  0.00    +0.000 HD
ATOM     14  H   UNL     1       0.684   4.707  21.246  0.00  0.00    +0.000 HD
ENDBRANCH   5  12
BRANCH   4  15
ATOM     15  C   UNL     1       2.459   2.784  20.970  0.00  0.00    +0.000 C 
ATOM     16  O   UNL     1       2.961   2.590  22.076  0.00  0.00    +0.000 OA
BRANCH  15  17
ATOM     17  O   UNL     1       1.424   2.068  20.477  0.00  0.00    +0.000 OA
ATOM     18  C   UNL     1       1.557   1.660  19.115  0.00  0.00    +0.000 C 
ENDBRANCH  15  17
ENDBRANCH   4  15
BRANCH   1  19
ATOM     19  C   UNL     1       5.925   4.582  17.819  0.00  0.00    +0.000 C 
BRANCH  19  20
ATOM     20  C   UNL     1       5.682   4.090  16.398  0.00  0.00    +0.000 C 
BRANCH  20  21
ATOM     21  C   UNL     1       6.903   4.332  15.525  0.00  0.00    +0.000 C 
BRANCH  21  22
ATOM     22  C   UNL     1       6.482   4.868  14.164  0.00  0.00    +0.000 C 
BRANCH  22  23
ATOM     23  C   UNL     1       5.568   3.875  13.460  0.00  0.00    +0.000 C 
BRANCH  23  24
ATOM     24  C   UNL     1       6.316   3.159  12.342  0.00  0.00    +0.000 C 
BRANCH  24  26
ATOM     25  C   UNL     1       4.049   3.264  11.284  0.00  0.00    +0.000 C 
ATOM     26  C   UNL     1       5.343   2.476  11.389  0.00  0.00    +0.000 C 
ENDBRANCH  24  26
ENDBRANCH  23  24
ENDBRANCH  22  23
ENDBRANCH  21  22
ENDBRANCH  20  21
ENDBRANCH  19  20
ENDBRANCH   1  19
TORSDOF 10
ENDMDL
