MODEL 1
REMARK VINA RESULT:      -5.8      0.000      0.000
REMARK  Name = 
REMARK  23 active torsions:
REMARK  status: ('A' for Active; 'I' for Inactive)
REMARK    1  A    between atoms: C_1  and  C_2
REMARK    2  A    between atoms: C_2  and  C_3
REMARK    3  A    between atoms: C_3  and  C_4
REMARK    4  A    between atoms: C_4  and  C_5
REMARK    5  A    between atoms: C_5  and  C_6
REMARK    6  A    between atoms: C_6  and  C_7
REMARK    7  A    between atoms: C_7  and  C_8
REMARK    8  A    between atoms: C_8  and  C_9
REMARK    9  A    between atoms: C_9  and  C_10
REMARK   10  A    between atoms: C_10  and  C_11
REMARK   11  A    between atoms: C_11  and  C_12
REMARK   12  A    between atoms: C_12  and  O_13
REMARK   13  A    between atoms: O_13  and  C_14
REMARK   14  A    between atoms: C_16  and  C_17
REMARK   15  A    between atoms: C_17  and  N_18
REMARK   16  A    between atoms: N_18  and  C_19
REMARK   17  A    between atoms: N_18  and  C_20
REMARK   18  A    between atoms: N_18  and  C_21
REMARK   19  A    between atoms: C_24  and  C_25
REMARK   20  A    between atoms: C_25  and  N_26
REMARK   21  A    between atoms: N_26  and  C_27
REMARK   22  A    between atoms: N_26  and  C_28
REMARK   23  A    between atoms: N_26  and  C_29
REMARK                            x       y       z     vdW  Elec       q    Type
REMARK                         _______ _______ _______ _____ _____    ______ ____
ROOT
ATOM      1  C   UNL     1       3.424   6.119  19.344  0.00  0.00    +0.000 A 
ATOM      2  C   UNL     1       2.917   7.441  19.499  0.00  0.00    +0.000 A 
ATOM      3  C   UNL     1       1.736   7.718  20.222  0.00  0.00    +0.000 A 
ATOM      4  C   UNL     1       1.016   6.653  20.736  0.00  0.00    +0.000 A 
ATOM      5  C   UNL     1       1.540   5.375  20.657  0.00  0.00    +0.000 A 
ATOM      6  C   UNL     1       2.718   5.053  19.938  0.00  0.00    +0.000 A 
ENDROOT
BRANCH   6   7
ATOM      7  C   UNL     1       3.081   3.585  20.029  0.00  0.00    +0.000 C 
BRANCH   7   8
ATOM      8  N   UNL     1       2.583   2.612  18.924  0.00  0.00    +0.000 N 
ATOM      9  C   UNL     1       1.257   1.991  19.339  0.00  0.00    +0.000 C 
ATOM     10  C   UNL     1       2.395   3.460  17.656  0.00  0.00    +0.000 C 
ATOM     11  C   UNL     1       3.528   1.480  18.550  0.00  0.00    +0.000 C 
ENDBRANCH   7   8
ENDBRANCH   6   7
BRANCH   3  12
ATOM     12  C   UNL     1       1.284   9.122  20.559  0.00  0.00    +0.000 C 
BRANCH  12  13
ATOM     13  N   UNL     1       0.719   9.952  19.369  0.00  0.00    +0.000 N 
ATOM     14  C   UNL     1       1.151   9.407  18.006  0.00  0.00    +0.000 C 
ATOM     15  C   UNL     1      -0.800   9.995  19.429  0.00  0.00    +0.000 C 
ATOM     16  C   UNL     1       1.262  11.372  19.483  0.00  0.00    +0.000 C 
ENDBRANCH  12  13
ENDBRANCH   3  12
BRANCH   1  17
ATOM     17  O   UNL     1       4.609   6.139  18.637  0.00  0.00    +0.000 OA
BRANCH  17  18
ATOM     18  C   UNL     1       4.818   7.070  17.583  0.00  0.00    +0.000 C 
BRANCH  18  19
ATOM     19  C   UNL     1       4.493   6.522  16.181  0.00  0.00    +0.000 C 
BRANCH  19  20
ATOM     20  C   UNL     1       5.178   5.151  16.009  0.00  0.00    +0.000 C 
BRANCH  20  21
ATOM     21  C   UNL     1       6.705   5.205  15.916  0.00  0.00    +0.000 C 
BRANCH  21  22
ATOM     22  C   UNL     1       7.230   4.312  14.774  0.00  0.00    +0.000 C 
BRANCH  22  23
ATOM     23  C   UNL     1       7.500   5.130  13.510  0.00  0.00    +0.000 C 
BRANCH  23  24
ATOM     24  C   UNL     1       7.127   4.394  12.218  0.00  0.00    +0.000 C 
BRANCH  24  25
ATOM     25  C   UNL     1       6.292   3.149  12.536  0.00  0.00    +0.000 C 
BRANCH  25  26
ATOM     26  C   UNL     1       5.381   2.725  11.381  0.00  0.00    +0.000 C 
BRANCH  26  27
ATOM     27  C   UNL     1       4.047   3.476  11.448  0.00  0.00    +0.000 C 
BRANCH  27  29
ATOM     28  C   UNL     1       2.832   4.270   9.390  0.00  0.00    +0.000 C 
ATOM     29  C   UNL     1       3.109   3.087  10.305  0.00  0.00    +0.000 C 
ENDBRANCH  27  29
ENDBRANCH  26  27
ENDBRANCH  25  26
ENDBRANCH  24  25
ENDBRANCH  23  24
ENDBRANCH  22  23
ENDBRANCH  21  22
ENDBRANCH  20  21
ENDBRANCH  19  20
ENDBRANCH  18  19
ENDBRANCH  17  18
ENDBRANCH   1  17
TORSDOF 16
ENDMDL
MODEL 2
REMARK VINA RESULT:      -5.5      3.817     10.779
REMARK  Name = 
REMARK  23 active torsions:
REMARK  status: ('A' for Active; 'I' for Inactive)
REMARK    1  A    between atoms: C_1  and  C_2
REMARK    2  A    between atoms: C_2  and  C_3
REMARK    3  A    between atoms: C_3  and  C_4
REMARK    4  A    between atoms: C_4  and  C_5
REMARK    5  A    between atoms: C_5  and  C_6
REMARK    6  A    between atoms: C_6  and  C_7
REMARK    7  A    between atoms: C_7  and  C_8
REMARK    8  A    between atoms: C_8  and  C_9
REMARK    9  A    between atoms: C_9  and  C_10
REMARK   10  A    between atoms: C_10  and  C_11
REMARK   11  A    between atoms: C_11  and  C_12
REMARK   12  A    between atoms: C_12  and  O_13
REMARK   13  A    between atoms: O_13  and  C_14
REMARK   14  A    between atoms: C_16  and  C_17
REMARK   15  A    between atoms: C_17  and  N_18
REMARK   16  A    between atoms: N_18  and  C_19
REMARK   17  A    between atoms: N_18  and  C_20
REMARK   18  A    between atoms: N_18  and  C_21
REMARK   19  A    between atoms: C_24  and  C_25
REMARK   20  A    between atoms: C_25  and  N_26
REMARK   21  A    between atoms: N_26  and  C_27
REMARK   22  A    between atoms: N_26  and  C_28
REMARK   23  A    between atoms: N_26  and  C_29
REMARK                            x       y       z     vdW  Elec       q    Type
REMARK                         _______ _______ _______ _____ _____    ______ ____
ROOT
ATOM      1  C   UNL     1       1.316   8.523  19.929  0.00  0.00    +0.000 A 
ATOM      2  C   UNL     1       2.050   7.304  19.871  0.00  0.00    +0.000 A 
ATOM      3  C   UNL     1       2.848   6.953  18.761  0.00  0.00    +0.000 A 
ATOM      4  C   UNL     1       2.857   7.800  17.666  0.00  0.00    +0.000 A 
ATOM      5  C   UNL     1       2.211   9.021  17.743  0.00  0.00    +0.000 A 
ATOM      6  C   UNL     1       1.396   9.409  18.835  0.00  0.00    +0.000 A 
ENDROOT
BRANCH   6   7
ATOM      7  C   UNL     1       0.822  10.802  18.676  0.00  0.00    +0.000 C 
BRANCH   7   8
ATOM      8  N   UNL     1      -0.709  10.971  18.470  0.00  0.00    +0.000 N 
ATOM      9  C   UNL     1      -1.015  12.386  17.999  0.00  0.00    +0.000 C 
ATOM     10  C   UNL     1      -1.114   9.956  17.390  0.00  0.00    +0.000 C 
ATOM     11  C   UNL     1      -1.585  10.686  19.680  0.00  0.00    +0.000 C 
ENDBRANCH   7   8
ENDBRANCH   6   7
BRANCH   3  12
ATOM     12  C   UNL     1       3.780   5.761  18.757  0.00  0.00    +0.000 C 
BRANCH  12  13
ATOM     13  N   UNL     1       3.105   4.380  18.512  0.00  0.00    +0.000 N 
ATOM     14  C   UNL     1       1.738   4.498  17.836  0.00  0.00    +0.000 C 
ATOM     15  C   UNL     1       4.005   3.496  17.662  0.00  0.00    +0.000 C 
ATOM     16  C   UNL     1       2.888   3.713  19.866  0.00  0.00    +0.000 C 
ENDBRANCH  12  13
ENDBRANCH   3  12
BRANCH   1  17
ATOM     17  O   UNL     1       0.663   8.633  21.139  0.00  0.00    +0.000 OA
BRANCH  17  18
ATOM     18  C   UNL     1       1.113   9.541  22.136  0.00  0.00    +0.000 C 
BRANCH  18  19
ATOM     19  C   UNL     1       0.285   9.520  23.434  0.00  0.00    +0.000 C 
BRANCH  19  20
ATOM     20  C   UNL     1      -1.114  10.103  23.143  0.00  0.00    +0.000 C 
BRANCH  20  21
ATOM     21  C   UNL     1      -1.164  11.630  23.046  0.00  0.00    +0.000 C 
BRANCH  21  22
ATOM     22  C   UNL     1      -2.598  12.158  23.252  0.00  0.00    +0.000 C 
BRANCH  22  23
ATOM     23  C   UNL     1      -2.742  13.589  22.731  0.00  0.00    +0.000 C 
BRANCH  23  24
ATOM     24  C   UNL     1      -3.155  13.661  21.257  0.00  0.00    +0.000 C 
BRANCH  24  25
ATOM     25  C   UNL     1      -4.371  12.764  21.000  0.00  0.00    +0.000 C 
BRANCH  25  26
ATOM     26  C   UNL     1      -5.665  13.317  21.600  0.00  0.00    +0.000 C 
BRANCH  26  27
ATOM     27  C   UNL     1      -6.870  12.906  20.747  0.00  0.00    +0.000 C 
BRANCH  27  29
ATOM     28  C   UNL     1      -7.365  10.477  20.307  0.00  0.00    +0.000 C 
ATOM     29  C   UNL     1      -7.542  11.639  21.274  0.00  0.00    +0.000 C 
ENDBRANCH  27  29
ENDBRANCH  26  27
ENDBRANCH  25  26
ENDBRANCH  24  25
ENDBRANCH  23  24
ENDBRANCH  22  23
ENDBRANCH  21  22
ENDBRANCH  20  21
ENDBRANCH  19  20
ENDBRANCH  18  19
ENDBRANCH  17  18
ENDBRANCH   1  17
TORSDOF 16
ENDMDL
MODEL 3
REMARK VINA RESULT:      -5.5      1.559      2.410
REMARK  Name = 
REMARK  23 active torsions:
REMARK  status: ('A' for Active; 'I' for Inactive)
REMARK    1  A    between atoms: C_1  and  C_2
REMARK    2  A    between atoms: C_2  and  C_3
REMARK    3  A    between atoms: C_3  and  C_4
REMARK    4  A    between atoms: C_4  and  C_5
REMARK    5  A    between atoms: C_5  and  C_6
REMARK    6  A    between atoms: C_6  and  C_7
REMARK    7  A    between atoms: C_7  and  C_8
REMARK    8  A    between atoms: C_8  and  C_9
REMARK    9  A    between atoms: C_9  and  C_10
REMARK   10  A    between atoms: C_10  and  C_11
REMARK   11  A    between atoms: C_11  and  C_12
REMARK   12  A    between atoms: C_12  and  O_13
REMARK   13  A    between atoms: O_13  and  C_14
REMARK   14  A    between atoms: C_16  and  C_17
REMARK   15  A    between atoms: C_17  and  N_18
REMARK   16  A    between atoms: N_18  and  C_19
REMARK   17  A    between atoms: N_18  and  C_20
REMARK   18  A    between atoms: N_18  and  C_21
REMARK   19  A    between atoms: C_24  and  C_25
REMARK   20  A    between atoms: C_25  and  N_26
REMARK   21  A    between atoms: N_26  and  C_27
REMARK   22  A    between atoms: N_26  and  C_28
REMARK   23  A    between atoms: N_26  and  C_29
REMARK                            x       y       z     vdW  Elec       q    Type
REMARK                         _______ _______ _______ _____ _____    ______ ____
ROOT
ATOM      1  C   UNL     1       2.304   6.633  18.497  0.00  0.00    +0.000 A 
ATOM      2  C   UNL     1       1.869   7.939  18.134  0.00  0.00    +0.000 A 
ATOM      3  C   UNL     1       1.488   8.904  19.091  0.00  0.00    +0.000 A 
ATOM      4  C   UNL     1       1.475   8.535  20.425  0.00  0.00    +0.000 A 
ATOM      5  C   UNL     1       1.969   7.296  20.795  0.00  0.00    +0.000 A 
ATOM      6  C   UNL     1       2.356   6.298  19.866  0.00  0.00    +0.000 A 
ENDROOT
BRANCH   6   7
ATOM      7  C   UNL     1       2.878   5.043  20.535  0.00  0.00    +0.000 C 
BRANCH   7   8
ATOM      8  N   UNL     1       2.043   3.735  20.448  0.00  0.00    +0.000 N 
ATOM      9  C   UNL     1       0.686   4.028  19.823  0.00  0.00    +0.000 C 
ATOM     10  C   UNL     1       2.840   2.774  19.552  0.00  0.00    +0.000 C 
ATOM     11  C   UNL     1       1.802   3.003  21.759  0.00  0.00    +0.000 C 
ENDBRANCH   7   8
ENDBRANCH   6   7
BRANCH   3  12
ATOM     12  C   UNL     1       1.206  10.349  18.741  0.00  0.00    +0.000 C 
BRANCH  12  13
ATOM     13  N   UNL     1      -0.254  10.830  18.990  0.00  0.00    +0.000 N 
ATOM     14  C   UNL     1      -0.707  10.626  20.437  0.00  0.00    +0.000 C 
ATOM     15  C   UNL     1      -0.395  12.299  18.626  0.00  0.00    +0.000 C 
ATOM     16  C   UNL     1      -1.181  10.005  18.103  0.00  0.00    +0.000 C 
ENDBRANCH  12  13
ENDBRANCH   3  12
BRANCH   1  17
ATOM     17  O   UNL     1       2.658   5.914  17.374  0.00  0.00    +0.000 OA
BRANCH  17  18
ATOM     18  C   UNL     1       4.007   5.530  17.145  0.00  0.00    +0.000 C 
BRANCH  18  19
ATOM     19  C   UNL     1       4.870   6.614  16.473  0.00  0.00    +0.000 C 
BRANCH  19  20
ATOM     20  C   UNL     1       5.975   7.053  17.456  0.00  0.00    +0.000 C 
BRANCH  20  21
ATOM     21  C   UNL     1       7.359   6.464  17.167  0.00  0.00    +0.000 C 
BRANCH  21  22
ATOM     22  C   UNL     1       7.369   4.934  17.362  0.00  0.00    +0.000 C 
BRANCH  22  23
ATOM     23  C   UNL     1       7.223   4.204  16.025  0.00  0.00    +0.000 C 
BRANCH  23  24
ATOM     24  C   UNL     1       7.604   5.067  14.816  0.00  0.00    +0.000 C 
BRANCH  24  25
ATOM     25  C   UNL     1       6.582   4.887  13.689  0.00  0.00    +0.000 C 
BRANCH  25  26
ATOM     26  C   UNL     1       6.334   3.421  13.329  0.00  0.00    +0.000 C 
BRANCH  26  27
ATOM     27  C   UNL     1       5.260   3.310  12.242  0.00  0.00    +0.000 C 
BRANCH  27  29
ATOM     28  C   UNL     1       6.967   1.783  11.196  0.00  0.00    +0.000 C 
ATOM     29  C   UNL     1       5.486   2.104  11.330  0.00  0.00    +0.000 C 
ENDBRANCH  27  29
ENDBRANCH  26  27
ENDBRANCH  25  26
ENDBRANCH  24  25
ENDBRANCH  23  24
ENDBRANCH  22  23
ENDBRANCH  21  22
ENDBRANCH  20  21
ENDBRANCH  19  20
ENDBRANCH  18  19
ENDBRANCH  17  18
ENDBRANCH   1  17
TORSDOF 16
ENDMDL
MODEL 4
REMARK VINA RESULT:      -5.4      2.538      8.527
REMARK  Name = 
REMARK  23 active torsions:
REMARK  status: ('A' for Active; 'I' for Inactive)
REMARK    1  A    between atoms: C_1  and  C_2
REMARK    2  A    between atoms: C_2  and  C_3
REMARK    3  A    between atoms: C_3  and  C_4
REMARK    4  A    between atoms: C_4  and  C_5
REMARK    5  A    between atoms: C_5  and  C_6
REMARK    6  A    between atoms: C_6  and  C_7
REMARK    7  A    between atoms: C_7  and  C_8
REMARK    8  A    between atoms: C_8  and  C_9
REMARK    9  A    between atoms: C_9  and  C_10
REMARK   10  A    between atoms: C_10  and  C_11
REMARK   11  A    between atoms: C_11  and  C_12
REMARK   12  A    between atoms: C_12  and  O_13
REMARK   13  A    between atoms: O_13  and  C_14
REMARK   14  A    between atoms: C_16  and  C_17
REMARK   15  A    between atoms: C_17  and  N_18
REMARK   16  A    between atoms: N_18  and  C_19
REMARK   17  A    between atoms: N_18  and  C_20
REMARK   18  A    between atoms: N_18  and  C_21
REMARK   19  A    between atoms: C_24  and  C_25
REMARK   20  A    between atoms: C_25  and  N_26
REMARK   21  A    between atoms: N_26  and  C_27
REMARK   22  A    between atoms: N_26  and  C_28
REMARK   23  A    between atoms: N_26  and  C_29
REMARK                            x       y       z     vdW  Elec       q    Type
REMARK                         _______ _______ _______ _____ _____    ______ ____
ROOT
ATOM      1  C   UNL     1       3.179   6.137  18.460  0.00  0.00    +0.000 A 
ATOM      2  C   UNL     1       4.131   6.463  17.453  0.00  0.00    +0.000 A 
ATOM      3  C   UNL     1       4.603   5.514  16.521  0.00  0.00    +0.000 A 
ATOM      4  C   UNL     1       4.170   4.205  16.641  0.00  0.00    +0.000 A 
ATOM      5  C   UNL     1       3.187   3.894  17.565  0.00  0.00    +0.000 A 
ATOM      6  C   UNL     1       2.691   4.815  18.521  0.00  0.00    +0.000 A 
ENDROOT
BRANCH   6   7
ATOM      7  C   UNL     1       1.607   4.224  19.400  0.00  0.00    +0.000 C 
BRANCH   7   8
ATOM      8  N   UNL     1       1.898   2.913  20.181  0.00  0.00    +0.000 N 
ATOM      9  C   UNL     1       1.432   1.711  19.370  0.00  0.00    +0.000 C 
ATOM     10  C   UNL     1       3.420   2.857  20.381  0.00  0.00    +0.000 C 
ATOM     11  C   UNL     1       1.277   2.805  21.566  0.00  0.00    +0.000 C 
ENDBRANCH   7   8
ENDBRANCH   6   7
BRANCH   3  12
ATOM     12  C   UNL     1       5.465   5.881  15.332  0.00  0.00    +0.000 C 
BRANCH  12  13
ATOM     13  N   UNL     1       6.606   4.877  14.993  0.00  0.00    +0.000 N 
ATOM     14  C   UNL     1       6.089   3.576  14.376  0.00  0.00    +0.000 C 
ATOM     15  C   UNL     1       7.606   5.516  14.043  0.00  0.00    +0.000 C 
ATOM     16  C   UNL     1       7.317   4.512  16.292  0.00  0.00    +0.000 C 
ENDBRANCH  12  13
ENDBRANCH   3  12
BRANCH   1  17
ATOM     17  O   UNL     1       2.860   7.255  19.201  0.00  0.00    +0.000 OA
BRANCH  17  18
ATOM     18  C   UNL     1       2.014   8.268  18.672  0.00  0.00    +0.000 C 
BRANCH  18  19
ATOM     19  C   UNL     1       1.437   9.228  19.729  0.00  0.00    +0.000 C 
BRANCH  19  20
ATOM     20  C   UNL     1       1.088   8.423  20.997  0.00  0.00    +0.000 C 
BRANCH  20  21
ATOM     21  C   UNL     1      -0.358   8.579  21.478  0.00  0.00    +0.000 C 
BRANCH  21  22
ATOM     22  C   UNL     1      -0.434   9.438  22.756  0.00  0.00    +0.000 C 
BRANCH  22  23
ATOM     23  C   UNL     1      -0.242  10.923  22.438  0.00  0.00    +0.000 C 
BRANCH  23  24
ATOM     24  C   UNL     1      -1.559  11.706  22.375  0.00  0.00    +0.000 C 
BRANCH  24  25
ATOM     25  C   UNL     1      -1.894  12.072  20.926  0.00  0.00    +0.000 C 
BRANCH  25  26
ATOM     26  C   UNL     1      -0.653  12.342  20.071  0.00  0.00    +0.000 C 
BRANCH  26  27
ATOM     27  C   UNL     1      -0.853  11.801  18.651  0.00  0.00    +0.000 C 
BRANCH  27  29
ATOM     28  C   UNL     1      -1.925  10.036  17.211  0.00  0.00    +0.000 C 
ATOM     29  C   UNL     1      -1.726  10.547  18.630  0.00  0.00    +0.000 C 
ENDBRANCH  27  29
ENDBRANCH  26  27
ENDBRANCH  25  26
ENDBRANCH  24  25
ENDBRANCH  23  24
ENDBRANCH  22  23
ENDBRANCH  21  22
ENDBRANCH  20  21
ENDBRANCH  19  20
ENDBRANCH  18  19
ENDBRANCH  17  18
ENDBRANCH   1  17
TORSDOF 16
ENDMDL
MODEL 5
REMARK VINA RESULT:      -5.4      7.430      9.817
REMARK  Name = 
REMARK  23 active torsions:
REMARK  status: ('A' for Active; 'I' for Inactive)
REMARK    1  A    between atoms: C_1  and  C_2
REMARK    2  A    between atoms: C_2  and  C_3
REMARK    3  A    between atoms: C_3  and  C_4
REMARK    4  A    between atoms: C_4  and  C_5
REMARK    5  A    between atoms: C_5  and  C_6
REMARK    6  A    between atoms: C_6  and  C_7
REMARK    7  A    between atoms: C_7  and  C_8
REMARK    8  A    between atoms: C_8  and  C_9
REMARK    9  A    between atoms: C_9  and  C_10
REMARK   10  A    between atoms: C_10  and  C_11
REMARK   11  A    between atoms: C_11  and  C_12
REMARK   12  A    between atoms: C_12  and  O_13
REMARK   13  A    between atoms: O_13  and  C_14
REMARK   14  A    between atoms: C_16  and  C_17
REMARK   15  A    between atoms: C_17  and  N_18
REMARK   16  A    between atoms: N_18  and  C_19
REMARK   17  A    between atoms: N_18  and  C_20
REMARK   18  A    between atoms: N_18  and  C_21
REMARK   19  A    between atoms: C_24  and  C_25
REMARK   20  A    between atoms: C_25  and  N_26
REMARK   21  A    between atoms: N_26  and  C_27
REMARK   22  A    between atoms: N_26  and  C_28
REMARK   23  A    between atoms: N_26  and  C_29
REMARK                            x       y       z     vdW  Elec       q    Type
REMARK                         _______ _______ _______ _____ _____    ______ ____
ROOT
ATOM      1  C   UNL     1       9.521  13.231  20.393  0.00  0.00    +0.000 A 
ATOM      2  C   UNL     1       8.558  13.193  21.442  0.00  0.00    +0.000 A 
ATOM      3  C   UNL     1       8.567  14.113  22.512  0.00  0.00    +0.000 A 
ATOM      4  C   UNL     1       9.595  15.039  22.573  0.00  0.00    +0.000 A 
ATOM      5  C   UNL     1      10.490  15.133  21.521  0.00  0.00    +0.000 A 
ATOM      6  C   UNL     1      10.517  14.228  20.431  0.00  0.00    +0.000 A 
ENDROOT
BRANCH   6   7
ATOM      7  C   UNL     1      11.582  14.569  19.409  0.00  0.00    +0.000 C 
BRANCH   7   8
ATOM      8  N   UNL     1      11.150  15.067  18.002  0.00  0.00    +0.000 N 
ATOM      9  C   UNL     1      12.139  16.105  17.492  0.00  0.00    +0.000 C 
ATOM     10  C   UNL     1      11.160  13.834  17.086  0.00  0.00    +0.000 C 
ATOM     11  C   UNL     1       9.756  15.668  17.902  0.00  0.00    +0.000 C 
ENDBRANCH   7   8
ENDBRANCH   6   7
BRANCH   3  12
ATOM     12  C   UNL     1       7.451  14.211  23.529  0.00  0.00    +0.000 C 
BRANCH  12  13
ATOM     13  N   UNL     1       7.609  13.313  24.791  0.00  0.00    +0.000 N 
ATOM     14  C   UNL     1       6.269  12.933  25.422  0.00  0.00    +0.000 C 
ATOM     15  C   UNL     1       8.373  12.045  24.444  0.00  0.00    +0.000 C 
ATOM     16  C   UNL     1       8.396  14.099  25.834  0.00  0.00    +0.000 C 
ENDBRANCH  12  13
ENDBRANCH   3  12
BRANCH   1  17
ATOM     17  O   UNL     1       9.252  12.253  19.458  0.00  0.00    +0.000 OA
BRANCH  17  18
ATOM     18  C   UNL     1       9.014  10.908  19.851  0.00  0.00    +0.000 C 
BRANCH  18  19
ATOM     19  C   UNL     1       9.491   9.856  18.832  0.00  0.00    +0.000 C 
BRANCH  19  20
ATOM     20  C   UNL     1       8.259   9.198  18.179  0.00  0.00    +0.000 C 
BRANCH  20  21
ATOM     21  C   UNL     1       8.163   7.682  18.374  0.00  0.00    +0.000 C 
BRANCH  21  22
ATOM     22  C   UNL     1       7.466   7.006  17.177  0.00  0.00    +0.000 C 
BRANCH  22  23
ATOM     23  C   UNL     1       5.969   7.322  17.157  0.00  0.00    +0.000 C 
BRANCH  23  24
ATOM     24  C   UNL     1       5.177   6.455  16.171  0.00  0.00    +0.000 C 
BRANCH  24  25
ATOM     25  C   UNL     1       5.916   5.138  15.907  0.00  0.00    +0.000 C 
BRANCH  25  26
ATOM     26  C   UNL     1       5.119   3.904  16.338  0.00  0.00    +0.000 C 
BRANCH  26  27
ATOM     27  C   UNL     1       4.057   4.287  17.374  0.00  0.00    +0.000 C 
BRANCH  27  29
ATOM     28  C   UNL     1       1.583   4.176  17.831  0.00  0.00    +0.000 C 
ATOM     29  C   UNL     1       2.780   3.461  17.221  0.00  0.00    +0.000 C 
ENDBRANCH  27  29
ENDBRANCH  26  27
ENDBRANCH  25  26
ENDBRANCH  24  25
ENDBRANCH  23  24
ENDBRANCH  22  23
ENDBRANCH  21  22
ENDBRANCH  20  21
ENDBRANCH  19  20
ENDBRANCH  18  19
ENDBRANCH  17  18
ENDBRANCH   1  17
TORSDOF 16
ENDMDL
MODEL 6
REMARK VINA RESULT:      -5.4      4.262      6.876
REMARK  Name = 
REMARK  23 active torsions:
REMARK  status: ('A' for Active; 'I' for Inactive)
REMARK    1  A    between atoms: C_1  and  C_2
REMARK    2  A    between atoms: C_2  and  C_3
REMARK    3  A    between atoms: C_3  and  C_4
REMARK    4  A    between atoms: C_4  and  C_5
REMARK    5  A    between atoms: C_5  and  C_6
REMARK    6  A    between atoms: C_6  and  C_7
REMARK    7  A    between atoms: C_7  and  C_8
REMARK    8  A    between atoms: C_8  and  C_9
REMARK    9  A    between atoms: C_9  and  C_10
REMARK   10  A    between atoms: C_10  and  C_11
REMARK   11  A    between atoms: C_11  and  C_12
REMARK   12  A    between atoms: C_12  and  O_13
REMARK   13  A    between atoms: O_13  and  C_14
REMARK   14  A    between atoms: C_16  and  C_17
REMARK   15  A    between atoms: C_17  and  N_18
REMARK   16  A    between atoms: N_18  and  C_19
REMARK   17  A    between atoms: N_18  and  C_20
REMARK   18  A    between atoms: N_18  and  C_21
REMARK   19  A    between atoms: C_24  and  C_25
REMARK   20  A    between atoms: C_25  and  N_26
REMARK   21  A    between atoms: N_26  and  C_27
REMARK   22  A    between atoms: N_26  and  C_28
REMARK   23  A    between atoms: N_26  and  C_29
REMARK                            x       y       z     vdW  Elec       q    Type
REMARK                         _______ _______ _______ _____ _____    ______ ____
ROOT
ATOM      1  C   UNL     1       2.937   6.809  18.180  0.00  0.00    +0.000 A 
ATOM      2  C   UNL     1       2.560   8.138  17.837  0.00  0.00    +0.000 A 
ATOM      3  C   UNL     1       1.836   8.972  18.718  0.00  0.00    +0.000 A 
ATOM      4  C   UNL     1       1.424   8.444  19.930  0.00  0.00    +0.000 A 
ATOM      5  C   UNL     1       1.851   7.182  20.304  0.00  0.00    +0.000 A 
ATOM      6  C   UNL     1       2.573   6.313  19.450  0.00  0.00    +0.000 A 
ENDROOT
BRANCH   6   7
ATOM      7  C   UNL     1       2.932   4.999  20.113  0.00  0.00    +0.000 C 
BRANCH   7   8
ATOM      8  N   UNL     1       2.170   3.709  19.700  0.00  0.00    +0.000 N 
ATOM      9  C   UNL     1       3.131   2.528  19.667  0.00  0.00    +0.000 C 
ATOM     10  C   UNL     1       1.093   3.483  20.772  0.00  0.00    +0.000 C 
ATOM     11  C   UNL     1       1.447   3.755  18.363  0.00  0.00    +0.000 C 
ENDBRANCH   7   8
ENDBRANCH   6   7
BRANCH   3  12
ATOM     12  C   UNL     1       1.592  10.441  18.452  0.00  0.00    +0.000 C 
BRANCH  12  13
ATOM     13  N   UNL     1       0.406  11.078  19.234  0.00  0.00    +0.000 N 
ATOM     14  C   UNL     1       0.560  10.956  20.750  0.00  0.00    +0.000 C 
ATOM     15  C   UNL     1       0.257  12.546  18.864  0.00  0.00    +0.000 C 
ATOM     16  C   UNL     1      -0.869  10.336  18.845  0.00  0.00    +0.000 C 
ENDBRANCH  12  13
ENDBRANCH   3  12
BRANCH   1  17
ATOM     17  O   UNL     1       3.672   6.239  17.162  0.00  0.00    +0.000 OA
BRANCH  17  18
ATOM     18  C   UNL     1       4.978   6.705  16.851  0.00  0.00    +0.000 C 
BRANCH  18  19
ATOM     19  C   UNL     1       6.100   5.693  17.150  0.00  0.00    +0.000 C 
BRANCH  19  20
ATOM     20  C   UNL     1       7.461   6.411  17.050  0.00  0.00    +0.000 C 
BRANCH  20  21
ATOM     21  C   UNL     1       7.814   7.287  18.256  0.00  0.00    +0.000 C 
BRANCH  21  22
ATOM     22  C   UNL     1       7.836   8.781  17.877  0.00  0.00    +0.000 C 
BRANCH  22  23
ATOM     23  C   UNL     1       9.172   9.427  18.251  0.00  0.00    +0.000 C 
BRANCH  23  24
ATOM     24  C   UNL     1       9.016  10.743  19.022  0.00  0.00    +0.000 C 
BRANCH  24  25
ATOM     25  C   UNL     1       9.750  11.876  18.297  0.00  0.00    +0.000 C 
BRANCH  25  26
ATOM     26  C   UNL     1      11.145  12.150  18.866  0.00  0.00    +0.000 C 
BRANCH  26  27
ATOM     27  C   UNL     1      11.041  12.818  20.241  0.00  0.00    +0.000 C 
BRANCH  27  29
ATOM     28  C   UNL     1      12.332  14.790  19.356  0.00  0.00    +0.000 C 
ATOM     29  C   UNL     1      11.113  14.342  20.148  0.00  0.00    +0.000 C 
ENDBRANCH  27  29
ENDBRANCH  26  27
ENDBRANCH  25  26
ENDBRANCH  24  25
ENDBRANCH  23  24
ENDBRANCH  22  23
ENDBRANCH  21  22
ENDBRANCH  20  21
ENDBRANCH  19  20
ENDBRANCH  18  19
ENDBRANCH  17  18
ENDBRANCH   1  17
TORSDOF 16
ENDMDL
MODEL 7
REMARK VINA RESULT:      -5.3      4.300      8.063
REMARK  Name = 
REMARK  23 active torsions:
REMARK  status: ('A' for Active; 'I' for Inactive)
REMARK    1  A    between atoms: C_1  and  C_2
REMARK    2  A    between atoms: C_2  and  C_3
REMARK    3  A    between atoms: C_3  and  C_4
REMARK    4  A    between atoms: C_4  and  C_5
REMARK    5  A    between atoms: C_5  and  C_6
REMARK    6  A    between atoms: C_6  and  C_7
REMARK    7  A    between atoms: C_7  and  C_8
REMARK    8  A    between atoms: C_8  and  C_9
REMARK    9  A    between atoms: C_9  and  C_10
REMARK   10  A    between atoms: C_10  and  C_11
REMARK   11  A    between atoms: C_11  and  C_12
REMARK   12  A    between atoms: C_12  and  O_13
REMARK   13  A    between atoms: O_13  and  C_14
REMARK   14  A    between atoms: C_16  and  C_17
REMARK   15  A    between atoms: C_17  and  N_18
REMARK   16  A    between atoms: N_18  and  C_19
REMARK   17  A    between atoms: N_18  and  C_20
REMARK   18  A    between atoms: N_18  and  C_21
REMARK   19  A    between atoms: C_24  and  C_25
REMARK   20  A    between atoms: C_25  and  N_26
REMARK   21  A    between atoms: N_26  and  C_27
REMARK   22  A    between atoms: N_26  and  C_28
REMARK   23  A    between atoms: N_26  and  C_29
REMARK                            x       y       z     vdW  Elec       q    Type
REMARK                         _______ _______ _______ _____ _____    ______ ____
ROOT
ATOM      1  C   UNL     1       0.707  11.992  19.901  0.00  0.00    +0.000 A 
ATOM      2  C   UNL     1       1.723  12.715  19.213  0.00  0.00    +0.000 A 
ATOM      3  C   UNL     1       1.521  14.022  18.720  0.00  0.00    +0.000 A 
ATOM      4  C   UNL     1       0.265  14.588  18.857  0.00  0.00    +0.000 A 
ATOM      5  C   UNL     1      -0.704  13.927  19.591  0.00  0.00    +0.000 A 
ATOM      6  C   UNL     1      -0.544  12.613  20.097  0.00  0.00    +0.000 A 
ENDROOT
BRANCH   6   7
ATOM      7  C   UNL     1      -1.750  12.133  20.879  0.00  0.00    +0.000 C 
BRANCH   7   8
ATOM      8  N   UNL     1      -1.711  12.178  22.432  0.00  0.00    +0.000 N 
ATOM      9  C   UNL     1      -1.021  10.932  22.970  0.00  0.00    +0.000 C 
ATOM     10  C   UNL     1      -0.905  13.431  22.808  0.00  0.00    +0.000 C 
ATOM     11  C   UNL     1      -3.054  12.303  23.134  0.00  0.00    +0.000 C 
ENDBRANCH   7   8
ENDBRANCH   6   7
BRANCH   3  12
ATOM     12  C   UNL     1       2.637  14.875  18.158  0.00  0.00    +0.000 C 
BRANCH  12  13
ATOM     13  N   UNL     1       3.174  15.990  19.104  0.00  0.00    +0.000 N 
ATOM     14  C   UNL     1       4.570  16.479  18.714  0.00  0.00    +0.000 C 
ATOM     15  C   UNL     1       2.219  17.173  19.121  0.00  0.00    +0.000 C 
ATOM     16  C   UNL     1       3.272  15.409  20.511  0.00  0.00    +0.000 C 
ENDBRANCH  12  13
ENDBRANCH   3  12
BRANCH   1  17
ATOM     17  O   UNL     1       1.184  10.765  20.311  0.00  0.00    +0.000 OA
BRANCH  17  18
ATOM     18  C   UNL     1       0.685   9.559  19.747  0.00  0.00    +0.000 C 
BRANCH  18  19
ATOM     19  C   UNL     1       0.804   9.480  18.214  0.00  0.00    +0.000 C 
BRANCH  19  20
ATOM     20  C   UNL     1       2.242   9.064  17.845  0.00  0.00    +0.000 C 
BRANCH  20  21
ATOM     21  C   UNL     1       2.554   7.580  18.054  0.00  0.00    +0.000 C 
BRANCH  21  22
ATOM     22  C   UNL     1       4.041   7.276  17.785  0.00  0.00    +0.000 C 
BRANCH  22  23
ATOM     23  C   UNL     1       4.208   5.958  17.025  0.00  0.00    +0.000 C 
BRANCH  23  24
ATOM     24  C   UNL     1       3.388   4.807  17.616  0.00  0.00    +0.000 C 
BRANCH  24  25
ATOM     25  C   UNL     1       4.293   3.859  18.410  0.00  0.00    +0.000 C 
BRANCH  25  26
ATOM     26  C   UNL     1       3.673   3.400  19.732  0.00  0.00    +0.000 C 
BRANCH  26  27
ATOM     27  C   UNL     1       2.653   4.430  20.231  0.00  0.00    +0.000 C 
BRANCH  27  29
ATOM     28  C   UNL     1       1.379   2.740  21.596  0.00  0.00    +0.000 C 
ATOM     29  C   UNL     1       1.288   3.800  20.508  0.00  0.00    +0.000 C 
ENDBRANCH  27  29
ENDBRANCH  26  27
ENDBRANCH  25  26
ENDBRANCH  24  25
ENDBRANCH  23  24
ENDBRANCH  22  23
ENDBRANCH  21  22
ENDBRANCH  20  21
ENDBRANCH  19  20
ENDBRANCH  18  19
ENDBRANCH  17  18
ENDBRANCH   1  17
TORSDOF 16
ENDMDL
MODEL 8
REMARK VINA RESULT:      -5.3      3.898      6.244
REMARK  Name = 
REMARK  23 active torsions:
REMARK  status: ('A' for Active; 'I' for Inactive)
REMARK    1  A    between atoms: C_1  and  C_2
REMARK    2  A    between atoms: C_2  and  C_3
REMARK    3  A    between atoms: C_3  and  C_4
REMARK    4  A    between atoms: C_4  and  C_5
REMARK    5  A    between atoms: C_5  and  C_6
REMARK    6  A    between atoms: C_6  and  C_7
REMARK    7  A    between atoms: C_7  and  C_8
REMARK    8  A    between atoms: C_8  and  C_9
REMARK    9  A    between atoms: C_9  and  C_10
REMARK   10  A    between atoms: C_10  and  C_11
REMARK   11  A    between atoms: C_11  and  C_12
REMARK   12  A    between atoms: C_12  and  O_13
REMARK   13  A    between atoms: O_13  and  C_14
REMARK   14  A    between atoms: C_16  and  C_17
REMARK   15  A    between atoms: C_17  and  N_18
REMARK   16  A    between atoms: N_18  and  C_19
REMARK   17  A    between atoms: N_18  and  C_20
REMARK   18  A    between atoms: N_18  and  C_21
REMARK   19  A    between atoms: C_24  and  C_25
REMARK   20  A    between atoms: C_25  and  N_26
REMARK   21  A    between atoms: N_26  and  C_27
REMARK   22  A    between atoms: N_26  and  C_28
REMARK   23  A    between atoms: N_26  and  C_29
REMARK                            x       y       z     vdW  Elec       q    Type
REMARK                         _______ _______ _______ _____ _____    ______ ____
ROOT
ATOM      1  C   UNL     1       2.868   7.407  18.848  0.00  0.00    +0.000 A 
ATOM      2  C   UNL     1       2.139   8.590  19.162  0.00  0.00    +0.000 A 
ATOM      3  C   UNL     1       1.212   8.649  20.225  0.00  0.00    +0.000 A 
ATOM      4  C   UNL     1       0.960   7.490  20.940  0.00  0.00    +0.000 A 
ATOM      5  C   UNL     1       1.718   6.359  20.694  0.00  0.00    +0.000 A 
ATOM      6  C   UNL     1       2.653   6.256  19.635  0.00  0.00    +0.000 A 
ENDROOT
BRANCH   6   7
ATOM      7  C   UNL     1       3.360   4.917  19.601  0.00  0.00    +0.000 C 
BRANCH   7   8
ATOM      8  N   UNL     1       2.649   3.702  18.943  0.00  0.00    +0.000 N 
ATOM      9  C   UNL     1       2.038   2.814  20.018  0.00  0.00    +0.000 C 
ATOM     10  C   UNL     1       1.544   4.282  18.046  0.00  0.00    +0.000 C 
ATOM     11  C   UNL     1       3.511   2.822  18.050  0.00  0.00    +0.000 C 
ENDBRANCH   7   8
ENDBRANCH   6   7
BRANCH   3  12
ATOM     12  C   UNL     1       0.572   9.937  20.693  0.00  0.00    +0.000 C 
BRANCH  12  13
ATOM     13  N   UNL     1      -0.032  10.834  19.573  0.00  0.00    +0.000 N 
ATOM     14  C   UNL     1      -1.057  11.837  20.103  0.00  0.00    +0.000 C 
ATOM     15  C   UNL     1       1.071  11.586  18.846  0.00  0.00    +0.000 C 
ATOM     16  C   UNL     1      -0.754   9.928  18.580  0.00  0.00    +0.000 C 
ENDBRANCH  12  13
ENDBRANCH   3  12
BRANCH   1  17
ATOM     17  O   UNL     1       3.733   7.640  17.800  0.00  0.00    +0.000 OA
BRANCH  17  18
ATOM     18  C   UNL     1       3.825   6.732  16.710  0.00  0.00    +0.000 C 
BRANCH  18  19
ATOM     19  C   UNL     1       5.250   6.215  16.433  0.00  0.00    +0.000 C 
BRANCH  19  20
ATOM     20  C   UNL     1       6.257   7.087  17.211  0.00  0.00    +0.000 C 
BRANCH  20  21
ATOM     21  C   UNL     1       7.343   6.304  17.953  0.00  0.00    +0.000 C 
BRANCH  21  22
ATOM     22  C   UNL     1       8.312   7.249  18.690  0.00  0.00    +0.000 C 
BRANCH  22  23
ATOM     23  C   UNL     1       8.301   8.648  18.069  0.00  0.00    +0.000 C 
BRANCH  23  24
ATOM     24  C   UNL     1       8.926   9.718  18.972  0.00  0.00    +0.000 C 
BRANCH  24  25
ATOM     25  C   UNL     1       9.178  11.004  18.178  0.00  0.00    +0.000 C 
BRANCH  25  26
ATOM     26  C   UNL     1      10.614  11.519  18.307  0.00  0.00    +0.000 C 
BRANCH  26  27
ATOM     27  C   UNL     1      10.913  12.551  17.213  0.00  0.00    +0.000 C 
BRANCH  27  29
ATOM     28  C   UNL     1      11.959  14.268  18.729  0.00  0.00    +0.000 C 
ATOM     29  C   UNL     1      12.168  13.368  17.520  0.00  0.00    +0.000 C 
ENDBRANCH  27  29
ENDBRANCH  26  27
ENDBRANCH  25  26
ENDBRANCH  24  25
ENDBRANCH  23  24
ENDBRANCH  22  23
ENDBRANCH  21  22
ENDBRANCH  20  21
ENDBRANCH  19  20
ENDBRANCH  18  19
ENDBRANCH  17  18
ENDBRANCH   1  17
TORSDOF 16
ENDMDL
MODEL 9
REMARK VINA RESULT:      -5.3      3.578      7.481
REMARK  Name = 
REMARK  23 active torsions:
REMARK  status: ('A' for Active; 'I' for Inactive)
REMARK    1  A    between atoms: C_1  and  C_2
REMARK    2  A    between atoms: C_2  and  C_3
REMARK    3  A    between atoms: C_3  and  C_4
REMARK    4  A    between atoms: C_4  and  C_5
REMARK    5  A    between atoms: C_5  and  C_6
REMARK    6  A    between atoms: C_6  and  C_7
REMARK    7  A    between atoms: C_7  and  C_8
REMARK    8  A    between atoms: C_8  and  C_9
REMARK    9  A    between atoms: C_9  and  C_10
REMARK   10  A    between atoms: C_10  and  C_11
REMARK   11  A    between atoms: C_11  and  C_12
REMARK   12  A    between atoms: C_12  and  O_13
REMARK   13  A    between atoms: O_13  and  C_14
REMARK   14  A    between atoms: C_16  and  C_17
REMARK   15  A    between atoms: C_17  and  N_18
REMARK   16  A    between atoms: N_18  and  C_19
REMARK   17  A    between atoms: N_18  and  C_20
REMARK   18  A    between atoms: N_18  and  C_21
REMARK   19  A    between atoms: C_24  and  C_25
REMARK   20  A    between atoms: C_25  and  N_26
REMARK   21  A    between atoms: N_26  and  C_27
REMARK   22  A    between atoms: N_26  and  C_28
REMARK   23  A    between atoms: N_26  and  C_29
REMARK                            x       y       z     vdW  Elec       q    Type
REMARK                         _______ _______ _______ _____ _____    ______ ____
ROOT
ATOM      1  C   UNL     1       0.390  10.675  19.672  0.00  0.00    +0.000 A 
ATOM      2  C   UNL     1      -0.615   9.955  18.964  0.00  0.00    +0.000 A 
ATOM      3  C   UNL     1      -1.911  10.474  18.752  0.00  0.00    +0.000 A 
ATOM      4  C   UNL     1      -2.228  11.698  19.316  0.00  0.00    +0.000 A 
ATOM      5  C   UNL     1      -1.238  12.439  19.938  0.00  0.00    +0.000 A 
ATOM      6  C   UNL     1       0.072  11.954  20.175  0.00  0.00    +0.000 A 
ENDROOT
BRANCH   6   7
ATOM      7  C   UNL     1       0.963  12.973  20.856  0.00  0.00    +0.000 C 
BRANCH   7   8
ATOM      8  N   UNL     1       1.884  13.873  19.987  0.00  0.00    +0.000 N 
ATOM      9  C   UNL     1       1.235  15.235  19.783  0.00  0.00    +0.000 C 
ATOM     10  C   UNL     1       3.199  14.027  20.768  0.00  0.00    +0.000 C 
ATOM     11  C   UNL     1       2.258  13.328  18.617  0.00  0.00    +0.000 C 
ENDBRANCH   7   8
ENDBRANCH   6   7
BRANCH   3  12
ATOM     12  C   UNL     1      -2.927   9.814  17.846  0.00  0.00    +0.000 C 
BRANCH  12  13
ATOM     13  N   UNL     1      -3.313  10.618  16.570  0.00  0.00    +0.000 N 
ATOM     14  C   UNL     1      -4.668  11.316  16.694  0.00  0.00    +0.000 C 
ATOM     15  C   UNL     1      -2.245  11.655  16.256  0.00  0.00    +0.000 C 
ATOM     16  C   UNL     1      -3.411   9.638  15.406  0.00  0.00    +0.000 C 
ENDBRANCH  12  13
ENDBRANCH   3  12
BRANCH   1  17
ATOM     17  O   UNL     1       1.569   9.960  19.692  0.00  0.00    +0.000 OA
BRANCH  17  18
ATOM     18  C   UNL     1       1.613   8.606  19.264  0.00  0.00    +0.000 C 
BRANCH  18  19
ATOM     19  C   UNL     1       1.867   7.591  20.395  0.00  0.00    +0.000 C 
BRANCH  19  20
ATOM     20  C   UNL     1       2.130   6.205  19.772  0.00  0.00    +0.000 C 
BRANCH  20  21
ATOM     21  C   UNL     1       2.011   5.031  20.748  0.00  0.00    +0.000 C 
BRANCH  21  22
ATOM     22  C   UNL     1       0.944   4.021  20.283  0.00  0.00    +0.000 C 
BRANCH  22  23
ATOM     23  C   UNL     1       1.506   2.597  20.252  0.00  0.00    +0.000 C 
BRANCH  23  24
ATOM     24  C   UNL     1       2.820   2.480  19.472  0.00  0.00    +0.000 C 
BRANCH  24  25
ATOM     25  C   UNL     1       2.539   2.189  17.994  0.00  0.00    +0.000 C 
BRANCH  25  26
ATOM     26  C   UNL     1       2.738   3.410  17.092  0.00  0.00    +0.000 C 
BRANCH  26  27
ATOM     27  C   UNL     1       4.055   4.117  17.430  0.00  0.00    +0.000 C 
BRANCH  27  29
ATOM     28  C   UNL     1       6.393   4.301  16.515  0.00  0.00    +0.000 C 
ATOM     29  C   UNL     1       4.908   4.370  16.188  0.00  0.00    +0.000 C 
ENDBRANCH  27  29
ENDBRANCH  26  27
ENDBRANCH  25  26
ENDBRANCH  24  25
ENDBRANCH  23  24
ENDBRANCH  22  23
ENDBRANCH  21  22
ENDBRANCH  20  21
ENDBRANCH  19  20
ENDBRANCH  18  19
ENDBRANCH  17  18
ENDBRANCH   1  17
TORSDOF 16
ENDMDL
