MODEL 1
REMARK VINA RESULT:      -7.7      0.000      0.000
REMARK  Name = 
REMARK  10 active torsions:
REMARK  status: ('A' for Active; 'I' for Inactive)
REMARK    1  A    between atoms: N_1  and  S_2
REMARK    2  A    between atoms: S_2  and  C_5
REMARK    3  A    between atoms: C_8  and  C_9
REMARK    4  A    between atoms: C_9  and  C_10
REMARK    5  A    between atoms: C_10  and  N_11
REMARK    6  A    between atoms: N_14  and  C_15
REMARK    7  A    between atoms: C_15  and  C_16
REMARK    8  A    between atoms: C_16  and  C_17
REMARK    9  A    between atoms: C_17  and  C_18
REMARK   10  A    between atoms: C_18  and  C_19
REMARK                            x       y       z     vdW  Elec       q    Type
REMARK                         _______ _______ _______ _____ _____    ______ ____
ROOT
ATOM      1  N   UNL     1       7.195   5.793  15.962  0.00  0.00    +0.000 N 
ATOM      2  C   UNL     1       7.449   6.341  17.196  0.00  0.00    +0.000 C 
ATOM      3  O   UNL     1       7.389   5.710  18.243  0.00  0.00    +0.000 OA
ATOM      4  N   UNL     1       7.755   7.674  17.124  0.00  0.00    +0.000 N 
ATOM      5  H   UNL     1       6.956   6.435  15.224  0.00  0.00    +0.000 HD
ATOM      6  H   UNL     1       8.069   8.028  16.234  0.00  0.00    +0.000 HD
ENDROOT
BRANCH   1   7
ATOM      7  C   UNL     1       6.669   4.438  15.909  0.00  0.00    +0.000 C 
BRANCH   7   8
ATOM      8  C   UNL     1       5.171   4.383  15.615  0.00  0.00    +0.000 C 
BRANCH   8  12
ATOM      9  C   UNL     1       2.804   4.304  19.216  0.00  0.00    +0.000 A 
ATOM     10  C   UNL     1       3.067   5.526  18.594  0.00  0.00    +0.000 A 
ATOM     11  C   UNL     1       3.838   5.554  17.430  0.00  0.00    +0.000 A 
ATOM     12  C   UNL     1       4.345   4.362  16.882  0.00  0.00    +0.000 A 
ATOM     13  C   UNL     1       4.097   3.150  17.539  0.00  0.00    +0.000 A 
ATOM     14  C   UNL     1       3.329   3.117  18.701  0.00  0.00    +0.000 A 
BRANCH   9  15
ATOM     15  S   UNL     1       1.750   4.229  20.632  0.00  0.00    +0.000 S 
ATOM     16  O   UNL     1       1.186   5.536  20.867  0.00  0.00    +0.000 OA
ATOM     17  O   UNL     1       2.387   3.461  21.668  0.00  0.00    +0.000 OA
BRANCH  15  18
ATOM     18  N   UNL     1       0.496   3.256  20.077  0.00  0.00    +0.000 NA
ATOM     19  H   UNL     1      -0.236   3.845  19.677  0.00  0.00    +0.000 HD
ATOM     20  H   UNL     1       0.166   2.646  20.823  0.00  0.00    +0.000 HD
ENDBRANCH  15  18
ENDBRANCH   9  15
ENDBRANCH   8  12
ENDBRANCH   7   8
ENDBRANCH   1   7
BRANCH   4  21
ATOM     21  C   UNL     1       8.138   8.399  18.323  0.00  0.00    +0.000 C 
BRANCH  21  22
ATOM     22  C   UNL     1       8.512   9.850  18.027  0.00  0.00    +0.000 C 
BRANCH  22  23
ATOM     23  C   UNL     1       9.555  10.373  19.017  0.00  0.00    +0.000 C 
BRANCH  23  24
ATOM     24  C   UNL     1      10.182  11.687  18.554  0.00  0.00    +0.000 C 
BRANCH  24  25
ATOM     25  C   UNL     1      10.207  12.698  19.675  0.00  0.00    +0.000 A 
ATOM     26  C   UNL     1       9.357  12.548  20.778  0.00  0.00    +0.000 A 
ATOM     27  C   UNL     1       9.351  13.497  21.802  0.00  0.00    +0.000 A 
ATOM     28  C   UNL     1      10.188  14.609  21.728  0.00  0.00    +0.000 A 
ATOM     29  C   UNL     1      11.035  14.770  20.632  0.00  0.00    +0.000 A 
ATOM     30  C   UNL     1      11.042  13.821  19.608  0.00  0.00    +0.000 A 
ENDBRANCH  24  25
ENDBRANCH  23  24
ENDBRANCH  22  23
ENDBRANCH  21  22
ENDBRANCH   4  21
TORSDOF 10
ENDMDL
MODEL 2
REMARK VINA RESULT:      -7.6      1.202      1.718
REMARK  Name = 
REMARK  10 active torsions:
REMARK  status: ('A' for Active; 'I' for Inactive)
REMARK    1  A    between atoms: N_1  and  S_2
REMARK    2  A    between atoms: S_2  and  C_5
REMARK    3  A    between atoms: C_8  and  C_9
REMARK    4  A    between atoms: C_9  and  C_10
REMARK    5  A    between atoms: C_10  and  N_11
REMARK    6  A    between atoms: N_14  and  C_15
REMARK    7  A    between atoms: C_15  and  C_16
REMARK    8  A    between atoms: C_16  and  C_17
REMARK    9  A    between atoms: C_17  and  C_18
REMARK   10  A    between atoms: C_18  and  C_19
REMARK                            x       y       z     vdW  Elec       q    Type
REMARK                         _______ _______ _______ _____ _____    ______ ____
ROOT
ATOM      1  N   UNL     1       7.501   6.182  16.130  0.00  0.00    +0.000 N 
ATOM      2  C   UNL     1       7.570   6.853  17.327  0.00  0.00    +0.000 C 
ATOM      3  O   UNL     1       7.291   6.345  18.405  0.00  0.00    +0.000 OA
ATOM      4  N   UNL     1       7.967   8.156  17.175  0.00  0.00    +0.000 N 
ATOM      5  H   UNL     1       7.434   6.748  15.299  0.00  0.00    +0.000 HD
ATOM      6  H   UNL     1       8.451   8.394  16.324  0.00  0.00    +0.000 HD
ENDROOT
BRANCH   1   7
ATOM      7  C   UNL     1       6.909   4.854  16.122  0.00  0.00    +0.000 C 
BRANCH   7   8
ATOM      8  C   UNL     1       5.450   4.845  15.668  0.00  0.00    +0.000 C 
BRANCH   8  12
ATOM      9  C   UNL     1       2.727   4.214  18.948  0.00  0.00    +0.000 A 
ATOM     10  C   UNL     1       2.998   5.516  18.522  0.00  0.00    +0.000 A 
ATOM     11  C   UNL     1       3.884   5.722  17.462  0.00  0.00    +0.000 A 
ATOM     12  C   UNL     1       4.498   4.630  16.824  0.00  0.00    +0.000 A 
ATOM     13  C   UNL     1       4.239   3.335  17.288  0.00  0.00    +0.000 A 
ATOM     14  C   UNL     1       3.355   3.123  18.345  0.00  0.00    +0.000 A 
BRANCH   9  15
ATOM     15  S   UNL     1       1.535   3.918  20.220  0.00  0.00    +0.000 S 
ATOM     16  O   UNL     1       0.565   2.963  19.741  0.00  0.00    +0.000 OA
ATOM     17  O   UNL     1       1.161   5.166  20.830  0.00  0.00    +0.000 OA
BRANCH  15  18
ATOM     18  N   UNL     1       2.459   3.126  21.379  0.00  0.00    +0.000 NA
ATOM     19  H   UNL     1       1.841   2.713  22.079  0.00  0.00    +0.000 HD
ATOM     20  H   UNL     1       3.152   3.761  21.774  0.00  0.00    +0.000 HD
ENDBRANCH  15  18
ENDBRANCH   9  15
ENDBRANCH   8  12
ENDBRANCH   7   8
ENDBRANCH   1   7
BRANCH   4  21
ATOM     21  C   UNL     1       8.180   8.993  18.343  0.00  0.00    +0.000 C 
BRANCH  21  22
ATOM     22  C   UNL     1       8.986  10.247  18.016  0.00  0.00    +0.000 C 
BRANCH  22  23
ATOM     23  C   UNL     1       9.477  10.945  19.286  0.00  0.00    +0.000 C 
BRANCH  23  24
ATOM     24  C   UNL     1      10.950  11.342  19.193  0.00  0.00    +0.000 C 
BRANCH  24  25
ATOM     25  C   UNL     1      11.094  12.793  18.802  0.00  0.00    +0.000 A 
ATOM     26  C   UNL     1      11.302  13.770  19.784  0.00  0.00    +0.000 A 
ATOM     27  C   UNL     1      11.402  15.118  19.432  0.00  0.00    +0.000 A 
ATOM     28  C   UNL     1      11.287  15.501  18.098  0.00  0.00    +0.000 A 
ATOM     29  C   UNL     1      11.076  14.537  17.113  0.00  0.00    +0.000 A 
ATOM     30  C   UNL     1      10.976  13.190  17.463  0.00  0.00    +0.000 A 
ENDBRANCH  24  25
ENDBRANCH  23  24
ENDBRANCH  22  23
ENDBRANCH  21  22
ENDBRANCH   4  21
TORSDOF 10
ENDMDL
MODEL 3
REMARK VINA RESULT:      -7.6      4.708     10.745
REMARK  Name = 
REMARK  10 active torsions:
REMARK  status: ('A' for Active; 'I' for Inactive)
REMARK    1  A    between atoms: N_1  and  S_2
REMARK    2  A    between atoms: S_2  and  C_5
REMARK    3  A    between atoms: C_8  and  C_9
REMARK    4  A    between atoms: C_9  and  C_10
REMARK    5  A    between atoms: C_10  and  N_11
REMARK    6  A    between atoms: N_14  and  C_15
REMARK    7  A    between atoms: C_15  and  C_16
REMARK    8  A    between atoms: C_16  and  C_17
REMARK    9  A    between atoms: C_17  and  C_18
REMARK   10  A    between atoms: C_18  and  C_19
REMARK                            x       y       z     vdW  Elec       q    Type
REMARK                         _______ _______ _______ _____ _____    ______ ____
ROOT
ATOM      1  N   UNL     1       7.861   7.800  18.447  0.00  0.00    +0.000 N 
ATOM      2  C   UNL     1       7.589   6.879  17.464  0.00  0.00    +0.000 C 
ATOM      3  O   UNL     1       7.888   7.035  16.288  0.00  0.00    +0.000 OA
ATOM      4  N   UNL     1       6.930   5.779  17.947  0.00  0.00    +0.000 N 
ATOM      5  H   UNL     1       7.310   7.738  19.288  0.00  0.00    +0.000 HD
ATOM      6  H   UNL     1       6.993   5.600  18.936  0.00  0.00    +0.000 HD
ENDROOT
BRANCH   1   7
ATOM      7  C   UNL     1       8.382   9.098  18.045  0.00  0.00    +0.000 C 
BRANCH   7   8
ATOM      8  C   UNL     1       9.245   9.760  19.117  0.00  0.00    +0.000 C 
BRANCH   8  12
ATOM      9  C   UNL     1      10.155  13.854  18.121  0.00  0.00    +0.000 A 
ATOM     10  C   UNL     1      11.039  13.130  18.922  0.00  0.00    +0.000 A 
ATOM     11  C   UNL     1      10.743  11.805  19.249  0.00  0.00    +0.000 A 
ATOM     12  C   UNL     1       9.566  11.199  18.776  0.00  0.00    +0.000 A 
ATOM     13  C   UNL     1       8.676  11.952  18.001  0.00  0.00    +0.000 A 
ATOM     14  C   UNL     1       8.966  13.275  17.671  0.00  0.00    +0.000 A 
BRANCH   9  15
ATOM     15  S   UNL     1      10.552  15.498  17.609  0.00  0.00    +0.000 S 
ATOM     16  O   UNL     1      11.666  15.977  18.390  0.00  0.00    +0.000 OA
ATOM     17  O   UNL     1       9.341  16.256  17.437  0.00  0.00    +0.000 OA
BRANCH  15  18
ATOM     18  N   UNL     1      11.131  15.243  16.051  0.00  0.00    +0.000 NA
ATOM     19  H   UNL     1      10.978  16.084  15.492  0.00  0.00    +0.000 HD
ATOM     20  H   UNL     1      10.709  14.406  15.650  0.00  0.00    +0.000 HD
ENDBRANCH  15  18
ENDBRANCH   9  15
ENDBRANCH   8  12
ENDBRANCH   7   8
ENDBRANCH   1   7
BRANCH   4  21
ATOM     21  C   UNL     1       6.638   4.661  17.066  0.00  0.00    +0.000 C 
BRANCH  21  22
ATOM     22  C   UNL     1       5.278   4.800  16.387  0.00  0.00    +0.000 C 
BRANCH  22  23
ATOM     23  C   UNL     1       4.133   4.659  17.392  0.00  0.00    +0.000 C 
BRANCH  23  24
ATOM     24  C   UNL     1       4.129   3.292  18.074  0.00  0.00    +0.000 C 
BRANCH  24  25
ATOM     25  C   UNL     1       3.125   3.252  19.200  0.00  0.00    +0.000 A 
ATOM     26  C   UNL     1       1.907   3.935  19.082  0.00  0.00    +0.000 A 
ATOM     27  C   UNL     1       0.988   3.931  20.133  0.00  0.00    +0.000 A 
ATOM     28  C   UNL     1       1.281   3.252  21.314  0.00  0.00    +0.000 A 
ATOM     29  C   UNL     1       2.492   2.573  21.443  0.00  0.00    +0.000 A 
ATOM     30  C   UNL     1       3.411   2.576  20.393  0.00  0.00    +0.000 A 
ENDBRANCH  24  25
ENDBRANCH  23  24
ENDBRANCH  22  23
ENDBRANCH  21  22
ENDBRANCH   4  21
TORSDOF 10
ENDMDL
MODEL 4
REMARK VINA RESULT:      -7.5      1.878      2.217
REMARK  Name = 
REMARK  10 active torsions:
REMARK  status: ('A' for Active; 'I' for Inactive)
REMARK    1  A    between atoms: N_1  and  S_2
REMARK    2  A    between atoms: S_2  and  C_5
REMARK    3  A    between atoms: C_8  and  C_9
REMARK    4  A    between atoms: C_9  and  C_10
REMARK    5  A    between atoms: C_10  and  N_11
REMARK    6  A    between atoms: N_14  and  C_15
REMARK    7  A    between atoms: C_15  and  C_16
REMARK    8  A    between atoms: C_16  and  C_17
REMARK    9  A    between atoms: C_17  and  C_18
REMARK   10  A    between atoms: C_18  and  C_19
REMARK                            x       y       z     vdW  Elec       q    Type
REMARK                         _______ _______ _______ _____ _____    ______ ____
ROOT
ATOM      1  N   UNL     1       7.216   5.727  15.984  0.00  0.00    +0.000 N 
ATOM      2  C   UNL     1       6.887   6.904  16.613  0.00  0.00    +0.000 C 
ATOM      3  O   UNL     1       5.736   7.287  16.776  0.00  0.00    +0.000 OA
ATOM      4  N   UNL     1       7.991   7.606  17.019  0.00  0.00    +0.000 N 
ATOM      5  H   UNL     1       8.152   5.657  15.619  0.00  0.00    +0.000 HD
ATOM      6  H   UNL     1       8.854   7.095  17.115  0.00  0.00    +0.000 HD
ENDROOT
BRANCH   1   7
ATOM      7  C   UNL     1       6.152   4.978  15.332  0.00  0.00    +0.000 C 
BRANCH   7   8
ATOM      8  C   UNL     1       5.819   3.665  16.038  0.00  0.00    +0.000 C 
BRANCH   8  12
ATOM      9  C   UNL     1       3.007   4.213  19.258  0.00  0.00    +0.000 A 
ATOM     10  C   UNL     1       2.535   3.927  17.976  0.00  0.00    +0.000 A 
ATOM     11  C   UNL     1       3.445   3.754  16.931  0.00  0.00    +0.000 A 
ATOM     12  C   UNL     1       4.827   3.863  17.163  0.00  0.00    +0.000 A 
ATOM     13  C   UNL     1       5.279   4.183  18.449  0.00  0.00    +0.000 A 
ATOM     14  C   UNL     1       4.376   4.356  19.496  0.00  0.00    +0.000 A 
BRANCH   9  15
ATOM     15  S   UNL     1       1.885   4.338  20.618  0.00  0.00    +0.000 S 
ATOM     16  O   UNL     1       2.454   3.662  21.759  0.00  0.00    +0.000 OA
ATOM     17  O   UNL     1       0.543   4.095  20.161  0.00  0.00    +0.000 OA
BRANCH  15  18
ATOM     18  N   UNL     1       1.939   5.984  20.958  0.00  0.00    +0.000 NA
ATOM     19  H   UNL     1       1.161   6.227  21.572  0.00  0.00    +0.000 HD
ATOM     20  H   UNL     1       1.960   6.522  20.093  0.00  0.00    +0.000 HD
ENDBRANCH  15  18
ENDBRANCH   9  15
ENDBRANCH   8  12
ENDBRANCH   7   8
ENDBRANCH   1   7
BRANCH   4  21
ATOM     21  C   UNL     1       7.834   8.834  17.779  0.00  0.00    +0.000 C 
BRANCH  21  22
ATOM     22  C   UNL     1       8.906   8.989  18.855  0.00  0.00    +0.000 C 
BRANCH  22  23
ATOM     23  C   UNL     1       9.188  10.463  19.157  0.00  0.00    +0.000 C 
BRANCH  23  24
ATOM     24  C   UNL     1       8.863  11.367  17.969  0.00  0.00    +0.000 C 
BRANCH  24  25
ATOM     25  C   UNL     1       9.908  12.445  17.809  0.00  0.00    +0.000 A 
ATOM     26  C   UNL     1       9.547  13.796  17.903  0.00  0.00    +0.000 A 
ATOM     27  C   UNL     1      10.502  14.798  17.721  0.00  0.00    +0.000 A 
ATOM     28  C   UNL     1      11.823  14.460  17.436  0.00  0.00    +0.000 A 
ATOM     29  C   UNL     1      12.191  13.119  17.336  0.00  0.00    +0.000 A 
ATOM     30  C   UNL     1      11.238  12.116  17.517  0.00  0.00    +0.000 A 
ENDBRANCH  24  25
ENDBRANCH  23  24
ENDBRANCH  22  23
ENDBRANCH  21  22
ENDBRANCH   4  21
TORSDOF 10
ENDMDL
MODEL 5
REMARK VINA RESULT:      -7.3      5.771      8.889
REMARK  Name = 
REMARK  10 active torsions:
REMARK  status: ('A' for Active; 'I' for Inactive)
REMARK    1  A    between atoms: N_1  and  S_2
REMARK    2  A    between atoms: S_2  and  C_5
REMARK    3  A    between atoms: C_8  and  C_9
REMARK    4  A    between atoms: C_9  and  C_10
REMARK    5  A    between atoms: C_10  and  N_11
REMARK    6  A    between atoms: N_14  and  C_15
REMARK    7  A    between atoms: C_15  and  C_16
REMARK    8  A    between atoms: C_16  and  C_17
REMARK    9  A    between atoms: C_17  and  C_18
REMARK   10  A    between atoms: C_18  and  C_19
REMARK                            x       y       z     vdW  Elec       q    Type
REMARK                         _______ _______ _______ _____ _____    ______ ____
ROOT
ATOM      1  N   UNL     1       1.858   7.914  21.216  0.00  0.00    +0.000 N 
ATOM      2  C   UNL     1       0.636   8.291  21.719  0.00  0.00    +0.000 C 
ATOM      3  O   UNL     1      -0.417   7.739  21.427  0.00  0.00    +0.000 OA
ATOM      4  N   UNL     1       0.728   9.364  22.566  0.00  0.00    +0.000 N 
ATOM      5  H   UNL     1       2.593   8.602  21.253  0.00  0.00    +0.000 HD
ATOM      6  H   UNL     1       1.630   9.555  22.973  0.00  0.00    +0.000 HD
ENDROOT
BRANCH   1   7
ATOM      7  C   UNL     1       1.885   6.916  20.158  0.00  0.00    +0.000 C 
BRANCH   7   8
ATOM      8  C   UNL     1       2.243   7.495  18.791  0.00  0.00    +0.000 C 
BRANCH   8  12
ATOM      9  C   UNL     1       5.665   5.548  17.037  0.00  0.00    +0.000 A 
ATOM     10  C   UNL     1       5.126   5.050  18.225  0.00  0.00    +0.000 A 
ATOM     11  C   UNL     1       4.020   5.683  18.797  0.00  0.00    +0.000 A 
ATOM     12  C   UNL     1       3.448   6.811  18.184  0.00  0.00    +0.000 A 
ATOM     13  C   UNL     1       4.024   7.315  17.010  0.00  0.00    +0.000 A 
ATOM     14  C   UNL     1       5.127   6.687  16.435  0.00  0.00    +0.000 A 
BRANCH   9  15
ATOM     15  S   UNL     1       7.000   4.709  16.240  0.00  0.00    +0.000 S 
ATOM     16  O   UNL     1       7.966   4.312  17.235  0.00  0.00    +0.000 OA
ATOM     17  O   UNL     1       7.366   5.414  15.040  0.00  0.00    +0.000 OA
BRANCH  15  18
ATOM     18  N   UNL     1       6.252   3.301  15.707  0.00  0.00    +0.000 NA
ATOM     19  H   UNL     1       5.499   3.054  16.350  0.00  0.00    +0.000 HD
ATOM     20  H   UNL     1       6.940   2.560  15.584  0.00  0.00    +0.000 HD
ENDBRANCH  15  18
ENDBRANCH   9  15
ENDBRANCH   8  12
ENDBRANCH   7   8
ENDBRANCH   1   7
BRANCH   4  21
ATOM     21  C   UNL     1      -0.453   9.847  23.260  0.00  0.00    +0.000 C 
BRANCH  21  22
ATOM     22  C   UNL     1      -1.038  11.096  22.605  0.00  0.00    +0.000 C 
BRANCH  22  23
ATOM     23  C   UNL     1      -0.076  11.694  21.578  0.00  0.00    +0.000 C 
BRANCH  23  24
ATOM     24  C   UNL     1      -0.807  12.490  20.498  0.00  0.00    +0.000 C 
BRANCH  24  25
ATOM     25  C   UNL     1      -1.198  11.601  19.342  0.00  0.00    +0.000 A 
ATOM     26  C   UNL     1      -0.334  10.586  18.911  0.00  0.00    +0.000 A 
ATOM     27  C   UNL     1      -0.674   9.782  17.821  0.00  0.00    +0.000 A 
ATOM     28  C   UNL     1      -1.876   9.991  17.148  0.00  0.00    +0.000 A 
ATOM     29  C   UNL     1      -2.741  11.001  17.567  0.00  0.00    +0.000 A 
ATOM     30  C   UNL     1      -2.402  11.806  18.656  0.00  0.00    +0.000 A 
ENDBRANCH  24  25
ENDBRANCH  23  24
ENDBRANCH  22  23
ENDBRANCH  21  22
ENDBRANCH   4  21
TORSDOF 10
ENDMDL
MODEL 6
REMARK VINA RESULT:      -7.3      5.713      8.580
REMARK  Name = 
REMARK  10 active torsions:
REMARK  status: ('A' for Active; 'I' for Inactive)
REMARK    1  A    between atoms: N_1  and  S_2
REMARK    2  A    between atoms: S_2  and  C_5
REMARK    3  A    between atoms: C_8  and  C_9
REMARK    4  A    between atoms: C_9  and  C_10
REMARK    5  A    between atoms: C_10  and  N_11
REMARK    6  A    between atoms: N_14  and  C_15
REMARK    7  A    between atoms: C_15  and  C_16
REMARK    8  A    between atoms: C_16  and  C_17
REMARK    9  A    between atoms: C_17  and  C_18
REMARK   10  A    between atoms: C_18  and  C_19
REMARK                            x       y       z     vdW  Elec       q    Type
REMARK                         _______ _______ _______ _____ _____    ______ ____
ROOT
ATOM      1  N   UNL     1       1.718   4.517  20.853  0.00  0.00    +0.000 N 
ATOM      2  C   UNL     1       1.811   5.694  20.150  0.00  0.00    +0.000 C 
ATOM      3  O   UNL     1       1.935   5.749  18.934  0.00  0.00    +0.000 OA
ATOM      4  N   UNL     1       1.770   6.795  20.965  0.00  0.00    +0.000 N 
ATOM      5  H   UNL     1       1.941   4.559  21.835  0.00  0.00    +0.000 HD
ATOM      6  H   UNL     1       1.375   6.674  21.884  0.00  0.00    +0.000 HD
ENDROOT
BRANCH   1   7
ATOM      7  C   UNL     1       1.943   3.271  20.137  0.00  0.00    +0.000 C 
BRANCH   7   8
ATOM      8  C   UNL     1       3.395   2.798  20.189  0.00  0.00    +0.000 C 
BRANCH   8  12
ATOM      9  C   UNL     1       5.791   4.622  17.106  0.00  0.00    +0.000 A 
ATOM     10  C   UNL     1       4.740   3.776  16.748  0.00  0.00    +0.000 A 
ATOM     11  C   UNL     1       3.966   3.180  17.746  0.00  0.00    +0.000 A 
ATOM     12  C   UNL     1       4.237   3.430  19.103  0.00  0.00    +0.000 A 
ATOM     13  C   UNL     1       5.315   4.257  19.442  0.00  0.00    +0.000 A 
ATOM     14  C   UNL     1       6.091   4.854  18.450  0.00  0.00    +0.000 A 
BRANCH   9  15
ATOM     15  S   UNL     1       6.723   5.467  15.864  0.00  0.00    +0.000 S 
ATOM     16  O   UNL     1       5.811   6.088  14.934  0.00  0.00    +0.000 OA
ATOM     17  O   UNL     1       7.822   4.641  15.440  0.00  0.00    +0.000 OA
BRANCH  15  18
ATOM     18  N   UNL     1       7.427   6.710  16.750  0.00  0.00    +0.000 NA
ATOM     19  H   UNL     1       7.238   7.602  16.290  0.00  0.00    +0.000 HD
ATOM     20  H   UNL     1       8.420   6.527  16.888  0.00  0.00    +0.000 HD
ENDBRANCH  15  18
ENDBRANCH   9  15
ENDBRANCH   8  12
ENDBRANCH   7   8
ENDBRANCH   1   7
BRANCH   4  21
ATOM     21  C   UNL     1       1.769   8.128  20.389  0.00  0.00    +0.000 C 
BRANCH  21  22
ATOM     22  C   UNL     1       0.512   8.915  20.755  0.00  0.00    +0.000 C 
BRANCH  22  23
ATOM     23  C   UNL     1       0.570  10.346  20.216  0.00  0.00    +0.000 C 
BRANCH  23  24
ATOM     24  C   UNL     1       0.403  10.398  18.699  0.00  0.00    +0.000 C 
BRANCH  24  25
ATOM     25  C   UNL     1      -1.047  10.585  18.322  0.00  0.00    +0.000 A 
ATOM     26  C   UNL     1      -1.828  11.546  18.977  0.00  0.00    +0.000 A 
ATOM     27  C   UNL     1      -3.178  11.700  18.658  0.00  0.00    +0.000 A 
ATOM     28  C   UNL     1      -3.762  10.890  17.686  0.00  0.00    +0.000 A 
ATOM     29  C   UNL     1      -2.996   9.928  17.030  0.00  0.00    +0.000 A 
ATOM     30  C   UNL     1      -1.645   9.773  17.349  0.00  0.00    +0.000 A 
ENDBRANCH  24  25
ENDBRANCH  23  24
ENDBRANCH  22  23
ENDBRANCH  21  22
ENDBRANCH   4  21
TORSDOF 10
ENDMDL
MODEL 7
REMARK VINA RESULT:      -7.2      1.586      2.150
REMARK  Name = 
REMARK  10 active torsions:
REMARK  status: ('A' for Active; 'I' for Inactive)
REMARK    1  A    between atoms: N_1  and  S_2
REMARK    2  A    between atoms: S_2  and  C_5
REMARK    3  A    between atoms: C_8  and  C_9
REMARK    4  A    between atoms: C_9  and  C_10
REMARK    5  A    between atoms: C_10  and  N_11
REMARK    6  A    between atoms: N_14  and  C_15
REMARK    7  A    between atoms: C_15  and  C_16
REMARK    8  A    between atoms: C_16  and  C_17
REMARK    9  A    between atoms: C_17  and  C_18
REMARK   10  A    between atoms: C_18  and  C_19
REMARK                            x       y       z     vdW  Elec       q    Type
REMARK                         _______ _______ _______ _____ _____    ______ ____
ROOT
ATOM      1  N   UNL     1       7.274   5.607  16.124  0.00  0.00    +0.000 N 
ATOM      2  C   UNL     1       6.909   6.852  16.576  0.00  0.00    +0.000 C 
ATOM      3  O   UNL     1       5.800   7.339  16.398  0.00  0.00    +0.000 OA
ATOM      4  N   UNL     1       7.929   7.491  17.230  0.00  0.00    +0.000 N 
ATOM      5  H   UNL     1       8.262   5.432  16.033  0.00  0.00    +0.000 HD
ATOM      6  H   UNL     1       8.679   6.920  17.585  0.00  0.00    +0.000 HD
ENDROOT
BRANCH   1   7
ATOM      7  C   UNL     1       6.354   4.899  15.247  0.00  0.00    +0.000 C 
BRANCH   7   8
ATOM      8  C   UNL     1       5.874   3.568  15.823  0.00  0.00    +0.000 C 
BRANCH   8  12
ATOM      9  C   UNL     1       3.167   4.142  19.127  0.00  0.00    +0.000 A 
ATOM     10  C   UNL     1       4.543   4.178  19.354  0.00  0.00    +0.000 A 
ATOM     11  C   UNL     1       5.422   3.987  18.285  0.00  0.00    +0.000 A 
ATOM     12  C   UNL     1       4.928   3.764  16.988  0.00  0.00    +0.000 A 
ATOM     13  C   UNL     1       3.544   3.699  16.787  0.00  0.00    +0.000 A 
ATOM     14  C   UNL     1       2.663   3.889  17.849  0.00  0.00    +0.000 A 
BRANCH   9  15
ATOM     15  S   UNL     1       2.034   4.479  20.441  0.00  0.00    +0.000 S 
ATOM     16  O   UNL     1       2.580   3.967  21.675  0.00  0.00    +0.000 OA
ATOM     17  O   UNL     1       0.692   4.191  20.008  0.00  0.00    +0.000 OA
BRANCH  15  18
ATOM     18  N   UNL     1       2.110   6.155  20.540  0.00  0.00    +0.000 NA
ATOM     19  H   UNL     1       3.077   6.440  20.701  0.00  0.00    +0.000 HD
ATOM     20  H   UNL     1       1.462   6.497  21.248  0.00  0.00    +0.000 HD
ENDBRANCH  15  18
ENDBRANCH   9  15
ENDBRANCH   8  12
ENDBRANCH   7   8
ENDBRANCH   1   7
BRANCH   4  21
ATOM     21  C   UNL     1       7.698   8.783  17.853  0.00  0.00    +0.000 C 
BRANCH  21  22
ATOM     22  C   UNL     1       8.888   9.241  18.692  0.00  0.00    +0.000 C 
BRANCH  22  23
ATOM     23  C   UNL     1       9.357  10.639  18.283  0.00  0.00    +0.000 C 
BRANCH  23  24
ATOM     24  C   UNL     1      10.291  11.260  19.320  0.00  0.00    +0.000 C 
BRANCH  24  25
ATOM     25  C   UNL     1      11.026  12.446  18.744  0.00  0.00    +0.000 A 
ATOM     26  C   UNL     1      11.511  13.454  19.588  0.00  0.00    +0.000 A 
ATOM     27  C   UNL     1      12.160  14.570  19.059  0.00  0.00    +0.000 A 
ATOM     28  C   UNL     1      12.325  14.693  17.680  0.00  0.00    +0.000 A 
ATOM     29  C   UNL     1      11.843  13.699  16.831  0.00  0.00    +0.000 A 
ATOM     30  C   UNL     1      11.193  12.582  17.359  0.00  0.00    +0.000 A 
ENDBRANCH  24  25
ENDBRANCH  23  24
ENDBRANCH  22  23
ENDBRANCH  21  22
ENDBRANCH   4  21
TORSDOF 10
ENDMDL
MODEL 8
REMARK VINA RESULT:      -7.2      5.762      8.228
REMARK  Name = 
REMARK  10 active torsions:
REMARK  status: ('A' for Active; 'I' for Inactive)
REMARK    1  A    between atoms: N_1  and  S_2
REMARK    2  A    between atoms: S_2  and  C_5
REMARK    3  A    between atoms: C_8  and  C_9
REMARK    4  A    between atoms: C_9  and  C_10
REMARK    5  A    between atoms: C_10  and  N_11
REMARK    6  A    between atoms: N_14  and  C_15
REMARK    7  A    between atoms: C_15  and  C_16
REMARK    8  A    between atoms: C_16  and  C_17
REMARK    9  A    between atoms: C_17  and  C_18
REMARK   10  A    between atoms: C_18  and  C_19
REMARK                            x       y       z     vdW  Elec       q    Type
REMARK                         _______ _______ _______ _____ _____    ______ ____
ROOT
ATOM      1  N   UNL     1       2.649   4.509  21.230  0.00  0.00    +0.000 N 
ATOM      2  C   UNL     1       1.966   5.389  20.426  0.00  0.00    +0.000 C 
ATOM      3  O   UNL     1       1.232   5.041  19.510  0.00  0.00    +0.000 OA
ATOM      4  N   UNL     1       2.214   6.696  20.751  0.00  0.00    +0.000 N 
ATOM      5  H   UNL     1       3.448   4.875  21.722  0.00  0.00    +0.000 HD
ATOM      6  H   UNL     1       2.574   6.882  21.674  0.00  0.00    +0.000 HD
ENDROOT
BRANCH   1   7
ATOM      7  C   UNL     1       2.630   3.099  20.874  0.00  0.00    +0.000 C 
BRANCH   7   8
ATOM      8  C   UNL     1       3.980   2.584  20.377  0.00  0.00    +0.000 C 
BRANCH   8  12
ATOM      9  C   UNL     1       5.347   4.710  16.886  0.00  0.00    +0.000 A 
ATOM     10  C   UNL     1       5.924   4.987  18.127  0.00  0.00    +0.000 A 
ATOM     11  C   UNL     1       5.478   4.302  19.260  0.00  0.00    +0.000 A 
ATOM     12  C   UNL     1       4.460   3.338  19.156  0.00  0.00    +0.000 A 
ATOM     13  C   UNL     1       3.872   3.099  17.908  0.00  0.00    +0.000 A 
ATOM     14  C   UNL     1       4.312   3.779  16.774  0.00  0.00    +0.000 A 
BRANCH   9  15
ATOM     15  S   UNL     1       5.959   5.489  15.422  0.00  0.00    +0.000 S 
ATOM     16  O   UNL     1       7.401   5.494  15.461  0.00  0.00    +0.000 OA
ATOM     17  O   UNL     1       5.185   6.669  15.143  0.00  0.00    +0.000 OA
BRANCH  15  18
ATOM     18  N   UNL     1       5.513   4.385  14.235  0.00  0.00    +0.000 NA
ATOM     19  H   UNL     1       4.792   4.799  13.642  0.00  0.00    +0.000 HD
ATOM     20  H   UNL     1       5.233   3.502  14.660  0.00  0.00    +0.000 HD
ENDBRANCH  15  18
ENDBRANCH   9  15
ENDBRANCH   8  12
ENDBRANCH   7   8
ENDBRANCH   1   7
BRANCH   4  21
ATOM     21  C   UNL     1       1.511   7.764  20.063  0.00  0.00    +0.000 C 
BRANCH  21  22
ATOM     22  C   UNL     1       2.241   8.218  18.801  0.00  0.00    +0.000 C 
BRANCH  22  23
ATOM     23  C   UNL     1       1.314   8.999  17.867  0.00  0.00    +0.000 C 
BRANCH  23  24
ATOM     24  C   UNL     1       0.945  10.369  18.434  0.00  0.00    +0.000 C 
BRANCH  24  25
ATOM     25  C   UNL     1      -0.538  10.622  18.311  0.00  0.00    +0.000 A 
ATOM     26  C   UNL     1      -1.141  11.652  19.046  0.00  0.00    +0.000 A 
ATOM     27  C   UNL     1      -2.517  11.869  18.963  0.00  0.00    +0.000 A 
ATOM     28  C   UNL     1      -3.305  11.056  18.150  0.00  0.00    +0.000 A 
ATOM     29  C   UNL     1      -2.716  10.026  17.418  0.00  0.00    +0.000 A 
ATOM     30  C   UNL     1      -1.339   9.807  17.500  0.00  0.00    +0.000 A 
ENDBRANCH  24  25
ENDBRANCH  23  24
ENDBRANCH  22  23
ENDBRANCH  21  22
ENDBRANCH   4  21
TORSDOF 10
ENDMDL
MODEL 9
REMARK VINA RESULT:      -7.2      4.437     10.353
REMARK  Name = 
REMARK  10 active torsions:
REMARK  status: ('A' for Active; 'I' for Inactive)
REMARK    1  A    between atoms: N_1  and  S_2
REMARK    2  A    between atoms: S_2  and  C_5
REMARK    3  A    between atoms: C_8  and  C_9
REMARK    4  A    between atoms: C_9  and  C_10
REMARK    5  A    between atoms: C_10  and  N_11
REMARK    6  A    between atoms: N_14  and  C_15
REMARK    7  A    between atoms: C_15  and  C_16
REMARK    8  A    between atoms: C_16  and  C_17
REMARK    9  A    between atoms: C_17  and  C_18
REMARK   10  A    between atoms: C_18  and  C_19
REMARK                            x       y       z     vdW  Elec       q    Type
REMARK                         _______ _______ _______ _____ _____    ______ ____
ROOT
ATOM      1  N   UNL     1       7.946   7.646  16.960  0.00  0.00    +0.000 N 
ATOM      2  C   UNL     1       7.088   6.628  17.300  0.00  0.00    +0.000 C 
ATOM      3  O   UNL     1       6.130   6.770  18.048  0.00  0.00    +0.000 OA
ATOM      4  N   UNL     1       7.437   5.436  16.722  0.00  0.00    +0.000 N 
ATOM      5  H   UNL     1       8.855   7.376  16.619  0.00  0.00    +0.000 HD
ATOM      6  H   UNL     1       8.034   5.473  15.911  0.00  0.00    +0.000 HD
ENDROOT
BRANCH   1   7
ATOM      7  C   UNL     1       7.809   8.918  17.654  0.00  0.00    +0.000 C 
BRANCH   7   8
ATOM      8  C   UNL     1       8.831   9.109  18.773  0.00  0.00    +0.000 C 
BRANCH   8  12
ATOM      9  C   UNL     1      10.037  13.225  19.189  0.00  0.00    +0.000 A 
ATOM     10  C   UNL     1       9.359  12.823  18.037  0.00  0.00    +0.000 A 
ATOM     11  C   UNL     1       8.972  11.487  17.899  0.00  0.00    +0.000 A 
ATOM     12  C   UNL     1       9.258  10.554  18.910  0.00  0.00    +0.000 A 
ATOM     13  C   UNL     1       9.967  10.971  20.043  0.00  0.00    +0.000 A 
ATOM     14  C   UNL     1      10.356  12.302  20.187  0.00  0.00    +0.000 A 
BRANCH   9  15
ATOM     15  S   UNL     1      10.450  14.926  19.435  0.00  0.00    +0.000 S 
ATOM     16  O   UNL     1      10.270  15.638  18.193  0.00  0.00    +0.000 OA
ATOM     17  O   UNL     1      11.653  15.023  20.218  0.00  0.00    +0.000 OA
BRANCH  15  18
ATOM     18  N   UNL     1       9.220  15.434  20.463  0.00  0.00    +0.000 NA
ATOM     19  H   UNL     1       8.324  15.093  20.111  0.00  0.00    +0.000 HD
ATOM     20  H   UNL     1       9.253  16.446  20.580  0.00  0.00    +0.000 HD
ENDBRANCH  15  18
ENDBRANCH   9  15
ENDBRANCH   8  12
ENDBRANCH   7   8
ENDBRANCH   1   7
BRANCH   4  21
ATOM     21  C   UNL     1       6.593   4.267  16.899  0.00  0.00    +0.000 C 
BRANCH  21  22
ATOM     22  C   UNL     1       5.401   4.265  15.946  0.00  0.00    +0.000 C 
BRANCH  22  23
ATOM     23  C   UNL     1       4.080   4.431  16.700  0.00  0.00    +0.000 C 
BRANCH  23  24
ATOM     24  C   UNL     1       3.587   3.113  17.294  0.00  0.00    +0.000 C 
BRANCH  24  25
ATOM     25  C   UNL     1       2.787   3.353  18.553  0.00  0.00    +0.000 A 
ATOM     26  C   UNL     1       2.339   2.271  19.321  0.00  0.00    +0.000 A 
ATOM     27  C   UNL     1       1.570   2.485  20.466  0.00  0.00    +0.000 A 
ATOM     28  C   UNL     1       1.236   3.783  20.850  0.00  0.00    +0.000 A 
ATOM     29  C   UNL     1       1.673   4.867  20.090  0.00  0.00    +0.000 A 
ATOM     30  C   UNL     1       2.442   4.654  18.944  0.00  0.00    +0.000 A 
ENDBRANCH  24  25
ENDBRANCH  23  24
ENDBRANCH  22  23
ENDBRANCH  21  22
ENDBRANCH   4  21
TORSDOF 10
ENDMDL
