MODEL 1
REMARK VINA RESULT:      -7.4      0.000      0.000
REMARK  Name = 
REMARK  4 active torsions:
REMARK  status: ('A' for Active; 'I' for Inactive)
REMARK    1  A    between atoms: C_2  and  C_10
REMARK    2  A    between atoms: N_3  and  C_4
REMARK    3  A    between atoms: C_13  and  S_14
REMARK    4  A    between atoms: S_14  and  N_17
REMARK                            x       y       z     vdW  Elec       q    Type
REMARK                         _______ _______ _______ _____ _____    ______ ____
ROOT
ATOM      1  C   UNL     1       2.285   7.500  18.700  0.00  0.00    +0.000 A 
ATOM      2  C   UNL     1       1.877   7.603  20.039  0.00  0.00    +0.000 A 
ATOM      3  C   UNL     1       1.258   8.772  20.490  0.00  0.00    +0.000 A 
ATOM      4  C   UNL     1       1.046   9.835  19.602  0.00  0.00    +0.000 A 
ATOM      5  C   UNL     1       1.417   9.726  18.260  0.00  0.00    +0.000 A 
ATOM      6  C   UNL     1       2.028   8.551  17.810  0.00  0.00    +0.000 A 
ENDROOT
BRANCH   1   8
ATOM      7  O   UNL     1       2.408   5.228  18.085  0.00  0.00    +0.000 OA
ATOM      8  C   UNL     1       2.997   6.297  18.188  0.00  0.00    +0.000 C 
ATOM      9  N   UNL     1       4.306   6.497  17.805  0.00  0.00    +0.000 N 
ATOM     10  H   UNL     1       4.719   7.413  17.924  0.00  0.00    +0.000 HD
BRANCH   9  11
ATOM     11  C   UNL     1       5.162   5.416  17.324  0.00  0.00    +0.000 C 
ATOM     12  C   UNL     1       6.333   5.970  16.500  0.00  0.00    +0.000 C 
ATOM     13  C   UNL     1       7.359   6.728  17.346  0.00  0.00    +0.000 C 
ATOM     14  C   UNL     1       7.794   5.962  18.595  0.00  0.00    +0.000 C 
ATOM     15  C   UNL     1       6.617   5.401  19.387  0.00  0.00    +0.000 C 
ATOM     16  C   UNL     1       5.697   4.575  18.489  0.00  0.00    +0.000 C 
ENDBRANCH   9  11
ENDBRANCH   1   8
BRANCH   4  17
ATOM     17  S   UNL     1       0.258  11.322  20.180  0.00  0.00    +0.000 S 
ATOM     18  O   UNL     1      -1.172  11.118  20.070  0.00  0.00    +0.000 OA
ATOM     19  O   UNL     1       0.869  11.694  21.434  0.00  0.00    +0.000 OA
BRANCH  17  20
ATOM     20  N   UNL     1       0.707  12.506  19.032  0.00  0.00    +0.000 NA
ATOM     21  C   UNL     1       1.755  13.477  19.429  0.00  0.00    +0.000 C 
ATOM     22  C   UNL     1       1.011  14.746  19.789  0.00  0.00    +0.000 C 
ATOM     23  C   UNL     1      -0.162  14.763  18.831  0.00  0.00    +0.000 C 
ATOM     24  C   UNL     1      -0.449  13.300  18.512  0.00  0.00    +0.000 C 
ENDBRANCH  17  20
ENDBRANCH   4  17
TORSDOF 4
ENDMDL
MODEL 2
REMARK VINA RESULT:      -7.3      1.685      2.648
REMARK  Name = 
REMARK  4 active torsions:
REMARK  status: ('A' for Active; 'I' for Inactive)
REMARK    1  A    between atoms: C_2  and  C_10
REMARK    2  A    between atoms: N_3  and  C_4
REMARK    3  A    between atoms: C_13  and  S_14
REMARK    4  A    between atoms: S_14  and  N_17
REMARK                            x       y       z     vdW  Elec       q    Type
REMARK                         _______ _______ _______ _____ _____    ______ ____
ROOT
ATOM      1  C   UNL     1       2.469   7.223  18.807  0.00  0.00    +0.000 A 
ATOM      2  C   UNL     1       2.458   8.191  17.790  0.00  0.00    +0.000 A 
ATOM      3  C   UNL     1       1.873   9.438  18.022  0.00  0.00    +0.000 A 
ATOM      4  C   UNL     1       1.300   9.717  19.270  0.00  0.00    +0.000 A 
ATOM      5  C   UNL     1       1.339   8.772  20.298  0.00  0.00    +0.000 A 
ATOM      6  C   UNL     1       1.934   7.529  20.065  0.00  0.00    +0.000 A 
ENDROOT
BRANCH   1   8
ATOM      7  O   UNL     1       2.344   4.869  18.795  0.00  0.00    +0.000 OA
ATOM      8  C   UNL     1       3.031   5.863  18.588  0.00  0.00    +0.000 C 
ATOM      9  N   UNL     1       4.321   5.821  18.104  0.00  0.00    +0.000 N 
ATOM     10  H   UNL     1       4.821   6.689  17.962  0.00  0.00    +0.000 HD
BRANCH   9  11
ATOM     11  C   UNL     1       5.040   4.570  17.878  0.00  0.00    +0.000 C 
ATOM     12  C   UNL     1       4.791   4.045  16.457  0.00  0.00    +0.000 C 
ATOM     13  C   UNL     1       5.454   4.900  15.375  0.00  0.00    +0.000 C 
ATOM     14  C   UNL     1       6.922   5.210  15.667  0.00  0.00    +0.000 C 
ATOM     15  C   UNL     1       7.150   5.708  17.091  0.00  0.00    +0.000 C 
ATOM     16  C   UNL     1       6.544   4.747  18.111  0.00  0.00    +0.000 C 
ENDBRANCH   9  11
ENDBRANCH   1   8
BRANCH   4  17
ATOM     17  S   UNL     1       0.556  11.307  19.562  0.00  0.00    +0.000 S 
ATOM     18  O   UNL     1       0.722  11.604  20.970  0.00  0.00    +0.000 OA
ATOM     19  O   UNL     1       1.025  12.215  18.542  0.00  0.00    +0.000 OA
BRANCH  17  20
ATOM     20  N   UNL     1      -1.109  11.047  19.274  0.00  0.00    +0.000 NA
ATOM     21  C   UNL     1      -1.499   9.767  18.636  0.00  0.00    +0.000 C 
ATOM     22  C   UNL     1      -1.753  10.104  17.182  0.00  0.00    +0.000 C 
ATOM     23  C   UNL     1      -2.336  11.501  17.230  0.00  0.00    +0.000 C 
ATOM     24  C   UNL     1      -1.754  12.142  18.486  0.00  0.00    +0.000 C 
ENDBRANCH  17  20
ENDBRANCH   4  17
TORSDOF 4
ENDMDL
MODEL 3
REMARK VINA RESULT:      -7.3      0.219      1.036
REMARK  Name = 
REMARK  4 active torsions:
REMARK  status: ('A' for Active; 'I' for Inactive)
REMARK    1  A    between atoms: C_2  and  C_10
REMARK    2  A    between atoms: N_3  and  C_4
REMARK    3  A    between atoms: C_13  and  S_14
REMARK    4  A    between atoms: S_14  and  N_17
REMARK                            x       y       z     vdW  Elec       q    Type
REMARK                         _______ _______ _______ _____ _____    ______ ____
ROOT
ATOM      1  C   UNL     1       2.312   7.677  18.608  0.00  0.00    +0.000 A 
ATOM      2  C   UNL     1       2.106   8.786  17.772  0.00  0.00    +0.000 A 
ATOM      3  C   UNL     1       1.443   9.914  18.264  0.00  0.00    +0.000 A 
ATOM      4  C   UNL     1       0.987   9.932  19.588  0.00  0.00    +0.000 A 
ATOM      5  C   UNL     1       1.220   8.846  20.436  0.00  0.00    +0.000 A 
ATOM      6  C   UNL     1       1.893   7.724  19.944  0.00  0.00    +0.000 A 
ENDROOT
BRANCH   1   8
ATOM      7  O   UNL     1       2.321   5.396  18.015  0.00  0.00    +0.000 OA
ATOM      8  C   UNL     1       2.964   6.434  18.114  0.00  0.00    +0.000 C 
ATOM      9  N   UNL     1       4.286   6.561  17.743  0.00  0.00    +0.000 N 
ATOM     10  H   UNL     1       4.745   7.455  17.857  0.00  0.00    +0.000 HD
BRANCH   9  11
ATOM     11  C   UNL     1       5.089   5.431  17.280  0.00  0.00    +0.000 C 
ATOM     12  C   UNL     1       6.288   5.914  16.453  0.00  0.00    +0.000 C 
ATOM     13  C   UNL     1       7.348   6.632  17.293  0.00  0.00    +0.000 C 
ATOM     14  C   UNL     1       7.740   5.863  18.554  0.00  0.00    +0.000 C 
ATOM     15  C   UNL     1       6.533   5.372  19.349  0.00  0.00    +0.000 C 
ATOM     16  C   UNL     1       5.577   4.581  18.458  0.00  0.00    +0.000 C 
ENDBRANCH   9  11
ENDBRANCH   1   8
BRANCH   4  17
ATOM     17  S   UNL     1       0.142  11.370  20.210  0.00  0.00    +0.000 S 
ATOM     18  O   UNL     1      -1.266  11.196  19.922  0.00  0.00    +0.000 OA
ATOM     19  O   UNL     1       0.609  11.616  21.555  0.00  0.00    +0.000 OA
BRANCH  17  20
ATOM     20  N   UNL     1       0.723  12.648  19.237  0.00  0.00    +0.000 NA
ATOM     21  C   UNL     1       1.578  13.669  19.890  0.00  0.00    +0.000 C 
ATOM     22  C   UNL     1       0.671  14.856  20.134  0.00  0.00    +0.000 C 
ATOM     23  C   UNL     1      -0.271  14.844  18.948  0.00  0.00    +0.000 C 
ATOM     24  C   UNL     1      -0.360  13.385  18.514  0.00  0.00    +0.000 C 
ENDBRANCH  17  20
ENDBRANCH   4  17
TORSDOF 4
ENDMDL
MODEL 4
REMARK VINA RESULT:      -7.3      1.709      2.665
REMARK  Name = 
REMARK  4 active torsions:
REMARK  status: ('A' for Active; 'I' for Inactive)
REMARK    1  A    between atoms: C_2  and  C_10
REMARK    2  A    between atoms: N_3  and  C_4
REMARK    3  A    between atoms: C_13  and  S_14
REMARK    4  A    between atoms: S_14  and  N_17
REMARK                            x       y       z     vdW  Elec       q    Type
REMARK                         _______ _______ _______ _____ _____    ______ ____
ROOT
ATOM      1  C   UNL     1       2.613   6.991  19.034  0.00  0.00    +0.000 A 
ATOM      2  C   UNL     1       2.583   7.933  17.994  0.00  0.00    +0.000 A 
ATOM      3  C   UNL     1       1.878   9.128  18.157  0.00  0.00    +0.000 A 
ATOM      4  C   UNL     1       1.205   9.381  19.360  0.00  0.00    +0.000 A 
ATOM      5  C   UNL     1       1.260   8.464  20.413  0.00  0.00    +0.000 A 
ATOM      6  C   UNL     1       1.975   7.274  20.249  0.00  0.00    +0.000 A 
ENDROOT
BRANCH   1   8
ATOM      7  O   UNL     1       2.816   4.666  19.369  0.00  0.00    +0.000 OA
ATOM      8  C   UNL     1       3.305   5.681  18.886  0.00  0.00    +0.000 C 
ATOM      9  N   UNL     1       4.467   5.701  18.145  0.00  0.00    +0.000 N 
ATOM     10  H   UNL     1       4.804   6.582  17.782  0.00  0.00    +0.000 HD
BRANCH   9  11
ATOM     11  C   UNL     1       5.294   4.513  17.941  0.00  0.00    +0.000 C 
ATOM     12  C   UNL     1       4.954   3.833  16.608  0.00  0.00    +0.000 C 
ATOM     13  C   UNL     1       5.397   4.645  15.388  0.00  0.00    +0.000 C 
ATOM     14  C   UNL     1       6.843   5.130  15.480  0.00  0.00    +0.000 C 
ATOM     15  C   UNL     1       7.166   5.782  16.821  0.00  0.00    +0.000 C 
ATOM     16  C   UNL     1       6.785   4.865  17.982  0.00  0.00    +0.000 C 
ENDBRANCH   9  11
ENDBRANCH   1   8
BRANCH   4  17
ATOM     17  S   UNL     1       0.308  10.904  19.564  0.00  0.00    +0.000 S 
ATOM     18  O   UNL     1      -0.592  10.723  20.685  0.00  0.00    +0.000 OA
ATOM     19  O   UNL     1       1.259  11.991  19.532  0.00  0.00    +0.000 OA
BRANCH  17  20
ATOM     20  N   UNL     1      -0.639  11.024  18.147  0.00  0.00    +0.000 NA
ATOM     21  C   UNL     1      -1.556  12.184  18.035  0.00  0.00    +0.000 C 
ATOM     22  C   UNL     1      -2.929  11.644  18.375  0.00  0.00    +0.000 C 
ATOM     23  C   UNL     1      -2.911  10.233  17.824  0.00  0.00    +0.000 C 
ATOM     24  C   UNL     1      -1.450   9.799  17.867  0.00  0.00    +0.000 C 
ENDBRANCH  17  20
ENDBRANCH   4  17
TORSDOF 4
ENDMDL
MODEL 5
REMARK VINA RESULT:      -7.3      2.693      3.986
REMARK  Name = 
REMARK  4 active torsions:
REMARK  status: ('A' for Active; 'I' for Inactive)
REMARK    1  A    between atoms: C_2  and  C_10
REMARK    2  A    between atoms: N_3  and  C_4
REMARK    3  A    between atoms: C_13  and  S_14
REMARK    4  A    between atoms: S_14  and  N_17
REMARK                            x       y       z     vdW  Elec       q    Type
REMARK                         _______ _______ _______ _____ _____    ______ ____
ROOT
ATOM      1  C   UNL     1       2.415   7.612  18.945  0.00  0.00    +0.000 A 
ATOM      2  C   UNL     1       2.315   8.525  17.883  0.00  0.00    +0.000 A 
ATOM      3  C   UNL     1       1.529   9.671  18.023  0.00  0.00    +0.000 A 
ATOM      4  C   UNL     1       0.845   9.904  19.224  0.00  0.00    +0.000 A 
ATOM      5  C   UNL     1       0.968   9.018  20.297  0.00  0.00    +0.000 A 
ATOM      6  C   UNL     1       1.764   7.877  20.156  0.00  0.00    +0.000 A 
ENDROOT
BRANCH   1   8
ATOM      7  O   UNL     1       4.181   6.301  18.096  0.00  0.00    +0.000 OA
ATOM      8  C   UNL     1       3.196   6.350  18.823  0.00  0.00    +0.000 C 
ATOM      9  N   UNL     1       2.763   5.303  19.608  0.00  0.00    +0.000 N 
ATOM     10  H   UNL     1       1.939   5.425  20.180  0.00  0.00    +0.000 HD
BRANCH   9  11
ATOM     11  C   UNL     1       3.386   3.982  19.575  0.00  0.00    +0.000 C 
ATOM     12  C   UNL     1       2.844   3.094  20.704  0.00  0.00    +0.000 C 
ATOM     13  C   UNL     1       1.387   2.676  20.493  0.00  0.00    +0.000 C 
ATOM     14  C   UNL     1       1.114   2.126  19.093  0.00  0.00    +0.000 C 
ATOM     15  C   UNL     1       1.681   3.012  17.988  0.00  0.00    +0.000 C 
ATOM     16  C   UNL     1       3.163   3.299  18.222  0.00  0.00    +0.000 C 
ENDBRANCH   9  11
ENDBRANCH   1   8
BRANCH   4  17
ATOM     17  S   UNL     1      -0.156  11.366  19.399  0.00  0.00    +0.000 S 
ATOM     18  O   UNL     1      -0.055  11.789  20.780  0.00  0.00    +0.000 OA
ATOM     19  O   UNL     1       0.167  12.262  18.313  0.00  0.00    +0.000 OA
BRANCH  17  20
ATOM     20  N   UNL     1      -1.751  10.813  19.135  0.00  0.00    +0.000 NA
ATOM     21  C   UNL     1      -1.945   9.748  18.121  0.00  0.00    +0.000 C 
ATOM     22  C   UNL     1      -2.460  10.459  16.887  0.00  0.00    +0.000 C 
ATOM     23  C   UNL     1      -3.312  11.580  17.442  0.00  0.00    +0.000 C 
ATOM     24  C   UNL     1      -2.714  11.909  18.806  0.00  0.00    +0.000 C 
ENDBRANCH  17  20
ENDBRANCH   4  17
TORSDOF 4
ENDMDL
MODEL 6
REMARK VINA RESULT:      -7.3      2.988      7.990
REMARK  Name = 
REMARK  4 active torsions:
REMARK  status: ('A' for Active; 'I' for Inactive)
REMARK    1  A    between atoms: C_2  and  C_10
REMARK    2  A    between atoms: N_3  and  C_4
REMARK    3  A    between atoms: C_13  and  S_14
REMARK    4  A    between atoms: S_14  and  N_17
REMARK                            x       y       z     vdW  Elec       q    Type
REMARK                         _______ _______ _______ _____ _____    ______ ____
ROOT
ATOM      1  C   UNL     1       2.787   7.089  18.848  0.00  0.00    +0.000 A 
ATOM      2  C   UNL     1       3.281   7.791  17.737  0.00  0.00    +0.000 A 
ATOM      3  C   UNL     1       4.184   7.172  16.868  0.00  0.00    +0.000 A 
ATOM      4  C   UNL     1       4.592   5.854  17.111  0.00  0.00    +0.000 A 
ATOM      5  C   UNL     1       4.078   5.138  18.195  0.00  0.00    +0.000 A 
ATOM      6  C   UNL     1       3.167   5.757  19.056  0.00  0.00    +0.000 A 
ENDROOT
BRANCH   1   8
ATOM      7  O   UNL     1       1.542   7.126  20.849  0.00  0.00    +0.000 OA
ATOM      8  C   UNL     1       1.867   7.724  19.830  0.00  0.00    +0.000 C 
ATOM      9  N   UNL     1       1.471   9.011  19.531  0.00  0.00    +0.000 N 
ATOM     10  H   UNL     1       1.783   9.433  18.667  0.00  0.00    +0.000 HD
BRANCH   9  11
ATOM     11  C   UNL     1       0.534   9.762  20.363  0.00  0.00    +0.000 C 
ATOM     12  C   UNL     1       1.083  11.160  20.679  0.00  0.00    +0.000 C 
ATOM     13  C   UNL     1       1.114  12.084  19.459  0.00  0.00    +0.000 C 
ATOM     14  C   UNL     1      -0.203  12.102  18.683  0.00  0.00    +0.000 C 
ATOM     15  C   UNL     1      -0.742  10.703  18.400  0.00  0.00    +0.000 C 
ATOM     16  C   UNL     1      -0.835   9.881  19.684  0.00  0.00    +0.000 C 
ENDBRANCH   9  11
ENDBRANCH   1   8
BRANCH   4  17
ATOM     17  S   UNL     1       5.743   5.069  16.003  0.00  0.00    +0.000 S 
ATOM     18  O   UNL     1       5.532   3.640  16.110  0.00  0.00    +0.000 OA
ATOM     19  O   UNL     1       5.670   5.746  14.729  0.00  0.00    +0.000 OA
BRANCH  17  20
ATOM     20  N   UNL     1       7.274   5.424  16.673  0.00  0.00    +0.000 NA
ATOM     21  C   UNL     1       7.689   4.657  17.873  0.00  0.00    +0.000 C 
ATOM     22  C   UNL     1       7.453   5.586  19.044  0.00  0.00    +0.000 C 
ATOM     23  C   UNL     1       7.766   6.959  18.487  0.00  0.00    +0.000 C 
ATOM     24  C   UNL     1       7.462   6.872  16.995  0.00  0.00    +0.000 C 
ENDBRANCH  17  20
ENDBRANCH   4  17
TORSDOF 4
ENDMDL
MODEL 7
REMARK VINA RESULT:      -7.3      1.593      2.374
REMARK  Name = 
REMARK  4 active torsions:
REMARK  status: ('A' for Active; 'I' for Inactive)
REMARK    1  A    between atoms: C_2  and  C_10
REMARK    2  A    between atoms: N_3  and  C_4
REMARK    3  A    between atoms: C_13  and  S_14
REMARK    4  A    between atoms: S_14  and  N_17
REMARK                            x       y       z     vdW  Elec       q    Type
REMARK                         _______ _______ _______ _____ _____    ______ ____
ROOT
ATOM      1  C   UNL     1       2.401   7.134  18.827  0.00  0.00    +0.000 A 
ATOM      2  C   UNL     1       1.905   7.464  20.098  0.00  0.00    +0.000 A 
ATOM      3  C   UNL     1       1.430   8.754  20.346  0.00  0.00    +0.000 A 
ATOM      4  C   UNL     1       1.451   9.712  19.324  0.00  0.00    +0.000 A 
ATOM      5  C   UNL     1       1.910   9.381  18.047  0.00  0.00    +0.000 A 
ATOM      6  C   UNL     1       2.376   8.086  17.800  0.00  0.00    +0.000 A 
ENDROOT
BRANCH   1   8
ATOM      7  O   UNL     1       2.258   4.792  18.594  0.00  0.00    +0.000 OA
ATOM      8  C   UNL     1       2.968   5.789  18.531  0.00  0.00    +0.000 C 
ATOM      9  N   UNL     1       4.292   5.772  18.146  0.00  0.00    +0.000 N 
ATOM     10  H   UNL     1       4.808   6.641  18.121  0.00  0.00    +0.000 HD
BRANCH   9  11
ATOM     11  C   UNL     1       5.016   4.534  17.864  0.00  0.00    +0.000 C 
ATOM     12  C   UNL     1       4.777   4.078  16.418  0.00  0.00    +0.000 C 
ATOM     13  C   UNL     1       5.445   4.987  15.383  0.00  0.00    +0.000 C 
ATOM     14  C   UNL     1       6.910   5.286  15.700  0.00  0.00    +0.000 C 
ATOM     15  C   UNL     1       7.128   5.715  17.148  0.00  0.00    +0.000 C 
ATOM     16  C   UNL     1       6.517   4.704  18.116  0.00  0.00    +0.000 C 
ENDBRANCH   9  11
ENDBRANCH   1   8
BRANCH   4  17
ATOM     17  S   UNL     1       0.845  11.355  19.643  0.00  0.00    +0.000 S 
ATOM     18  O   UNL     1       1.108  11.643  21.038  0.00  0.00    +0.000 OA
ATOM     19  O   UNL     1       1.327  12.222  18.593  0.00  0.00    +0.000 OA
BRANCH  17  20
ATOM     20  N   UNL     1      -0.847  11.222  19.446  0.00  0.00    +0.000 NA
ATOM     21  C   UNL     1      -1.374   9.936  18.928  0.00  0.00    +0.000 C 
ATOM     22  C   UNL     1      -1.668  10.183  17.464  0.00  0.00    +0.000 C 
ATOM     23  C   UNL     1      -2.128  11.626  17.424  0.00  0.00    +0.000 C 
ATOM     24  C   UNL     1      -1.435  12.306  18.600  0.00  0.00    +0.000 C 
ENDBRANCH  17  20
ENDBRANCH   4  17
TORSDOF 4
ENDMDL
MODEL 8
REMARK VINA RESULT:      -7.2      1.991      3.127
REMARK  Name = 
REMARK  4 active torsions:
REMARK  status: ('A' for Active; 'I' for Inactive)
REMARK    1  A    between atoms: C_2  and  C_10
REMARK    2  A    between atoms: N_3  and  C_4
REMARK    3  A    between atoms: C_13  and  S_14
REMARK    4  A    between atoms: S_14  and  N_17
REMARK                            x       y       z     vdW  Elec       q    Type
REMARK                         _______ _______ _______ _____ _____    ______ ____
ROOT
ATOM      1  C   UNL     1       2.440   7.633  18.624  0.00  0.00    +0.000 A 
ATOM      2  C   UNL     1       2.274   8.738  17.774  0.00  0.00    +0.000 A 
ATOM      3  C   UNL     1       1.589   9.868  18.227  0.00  0.00    +0.000 A 
ATOM      4  C   UNL     1       1.071   9.893  19.529  0.00  0.00    +0.000 A 
ATOM      5  C   UNL     1       1.264   8.811  20.392  0.00  0.00    +0.000 A 
ATOM      6  C   UNL     1       1.958   7.687  19.938  0.00  0.00    +0.000 A 
ENDROOT
BRANCH   1   8
ATOM      7  O   UNL     1       3.915   6.423  17.240  0.00  0.00    +0.000 OA
ATOM      8  C   UNL     1       3.115   6.388  18.168  0.00  0.00    +0.000 C 
ATOM      9  N   UNL     1       2.814   5.249  18.885  0.00  0.00    +0.000 N 
ATOM     10  H   UNL     1       2.141   5.306  19.637  0.00  0.00    +0.000 HD
BRANCH   9  11
ATOM     11  C   UNL     1       3.352   3.935  18.542  0.00  0.00    +0.000 C 
ATOM     12  C   UNL     1       3.749   3.160  19.806  0.00  0.00    +0.000 C 
ATOM     13  C   UNL     1       2.546   2.715  20.642  0.00  0.00    +0.000 C 
ATOM     14  C   UNL     1       1.459   2.028  19.816  0.00  0.00    +0.000 C 
ATOM     15  C   UNL     1       1.096   2.804  18.552  0.00  0.00    +0.000 C 
ATOM     16  C   UNL     1       2.342   3.120  17.727  0.00  0.00    +0.000 C 
ENDBRANCH   9  11
ENDBRANCH   1   8
BRANCH   4  17
ATOM     17  S   UNL     1       0.198  11.334  20.103  0.00  0.00    +0.000 S 
ATOM     18  O   UNL     1      -1.211  11.105  19.858  0.00  0.00    +0.000 OA
ATOM     19  O   UNL     1       0.689  11.658  21.423  0.00  0.00    +0.000 OA
BRANCH  17  20
ATOM     20  N   UNL     1       0.716  12.580  19.055  0.00  0.00    +0.000 NA
ATOM     21  C   UNL     1       1.691  13.561  19.592  0.00  0.00    +0.000 C 
ATOM     22  C   UNL     1       0.876  14.791  19.933  0.00  0.00    +0.000 C 
ATOM     23  C   UNL     1      -0.201  14.820  18.869  0.00  0.00    +0.000 C 
ATOM     24  C   UNL     1      -0.410  13.365  18.462  0.00  0.00    +0.000 C 
ENDBRANCH  17  20
ENDBRANCH   4  17
TORSDOF 4
ENDMDL
MODEL 9
REMARK VINA RESULT:      -7.2      2.989      7.914
REMARK  Name = 
REMARK  4 active torsions:
REMARK  status: ('A' for Active; 'I' for Inactive)
REMARK    1  A    between atoms: C_2  and  C_10
REMARK    2  A    between atoms: N_3  and  C_4
REMARK    3  A    between atoms: C_13  and  S_14
REMARK    4  A    between atoms: S_14  and  N_17
REMARK                            x       y       z     vdW  Elec       q    Type
REMARK                         _______ _______ _______ _____ _____    ______ ____
ROOT
ATOM      1  C   UNL     1       2.823   7.024  19.046  0.00  0.00    +0.000 A 
ATOM      2  C   UNL     1       3.355   5.751  19.305  0.00  0.00    +0.000 A 
ATOM      3  C   UNL     1       4.232   5.164  18.390  0.00  0.00    +0.000 A 
ATOM      4  C   UNL     1       4.577   5.850  17.217  0.00  0.00    +0.000 A 
ATOM      5  C   UNL     1       4.079   7.131  16.969  0.00  0.00    +0.000 A 
ATOM      6  C   UNL     1       3.209   7.720  17.892  0.00  0.00    +0.000 A 
ENDROOT
BRANCH   1   8
ATOM      7  O   UNL     1       1.399   7.048  20.924  0.00  0.00    +0.000 OA
ATOM      8  C   UNL     1       1.843   7.666  19.964  0.00  0.00    +0.000 C 
ATOM      9  N   UNL     1       1.533   8.980  19.681  0.00  0.00    +0.000 N 
ATOM     10  H   UNL     1       1.943   9.418  18.867  0.00  0.00    +0.000 HD
BRANCH   9  11
ATOM     11  C   UNL     1       0.555   9.744  20.453  0.00  0.00    +0.000 C 
ATOM     12  C   UNL     1       1.088  11.148  20.772  0.00  0.00    +0.000 C 
ATOM     13  C   UNL     1       1.179  12.051  19.540  0.00  0.00    +0.000 C 
ATOM     14  C   UNL     1      -0.098  12.054  18.699  0.00  0.00    +0.000 C 
ATOM     15  C   UNL     1      -0.622  10.650  18.413  0.00  0.00    +0.000 C 
ATOM     16  C   UNL     1      -0.778   9.850  19.705  0.00  0.00    +0.000 C 
ENDBRANCH   9  11
ENDBRANCH   1   8
BRANCH   4  17
ATOM     17  S   UNL     1       5.695   5.099  16.053  0.00  0.00    +0.000 S 
ATOM     18  O   UNL     1       5.505   3.666  16.144  0.00  0.00    +0.000 OA
ATOM     19  O   UNL     1       5.565   5.796  14.795  0.00  0.00    +0.000 OA
BRANCH  17  20
ATOM     20  N   UNL     1       7.246   5.462  16.671  0.00  0.00    +0.000 NA
ATOM     21  C   UNL     1       7.739   4.641  17.803  0.00  0.00    +0.000 C 
ATOM     22  C   UNL     1       7.534   5.495  19.037  0.00  0.00    +0.000 C 
ATOM     23  C   UNL     1       7.781   6.907  18.546  0.00  0.00    +0.000 C 
ATOM     24  C   UNL     1       7.408   6.895  17.068  0.00  0.00    +0.000 C 
ENDBRANCH  17  20
ENDBRANCH   4  17
TORSDOF 4
ENDMDL
