MODEL 1
REMARK VINA RESULT:      -6.9      0.000      0.000
REMARK  Name = 
REMARK  5 active torsions:
REMARK  status: ('A' for Active; 'I' for Inactive)
REMARK    1  A    between atoms: C_1  and  O_2
REMARK    2  A    between atoms: O_2  and  C_3
REMARK    3  A    between atoms: C_8  and  N_9
REMARK    4  A    between atoms: C_10  and  C_12
REMARK    5  A    between atoms: C_15  and  C_16
REMARK                            x       y       z     vdW  Elec       q    Type
REMARK                         _______ _______ _______ _____ _____    ______ ____
ROOT
ATOM      1  N   UNL     1       4.156   3.080  18.210  0.00  0.00    +0.000 N 
ATOM      2  C   UNL     1       4.887   4.240  17.961  0.00  0.00    +0.000 C 
ATOM      3  O   UNL     1       4.938   5.208  18.715  0.00  0.00    +0.000 OA
ATOM      4  H   UNL     1       4.301   2.252  17.651  0.00  0.00    +0.000 HD
ENDROOT
BRANCH   2   5
ATOM      5  C   UNL     1       5.692   4.346  16.715  0.00  0.00    +0.000 A 
ATOM      6  C   UNL     1       5.024   4.044  15.515  0.00  0.00    +0.000 A 
ATOM      7  C   UNL     1       5.639   4.230  14.278  0.00  0.00    +0.000 A 
ATOM      8  C   UNL     1       6.942   4.724  14.217  0.00  0.00    +0.000 A 
ATOM      9  C   UNL     1       7.576   5.023  12.890  0.00  0.00    +0.000 C 
ATOM     10  C   UNL     1       7.628   4.990  15.413  0.00  0.00    +0.000 A 
ATOM     11  C   UNL     1       7.011   4.800  16.661  0.00  0.00    +0.000 A 
ENDBRANCH   2   5
BRANCH   1  17
ATOM     12  C   UNL     1       1.843   3.123  19.050  0.00  0.00    +0.000 A 
ATOM     13  C   UNL     1       0.940   2.987  20.117  0.00  0.00    +0.000 A 
ATOM     14  C   UNL     1       1.382   2.643  21.396  0.00  0.00    +0.000 A 
ATOM     15  C   UNL     1       2.735   2.453  21.623  0.00  0.00    +0.000 A 
ATOM     16  C   UNL     1       3.646   2.608  20.580  0.00  0.00    +0.000 A 
ATOM     17  C   UNL     1       3.223   2.929  19.278  0.00  0.00    +0.000 A 
BRANCH  12  19
ATOM     18  C   UNL     1       1.283   4.842  17.516  0.00  0.00    +0.000 C 
ATOM     19  O   UNL     1       1.452   3.447  17.769  0.00  0.00    +0.000 OA
ENDBRANCH  12  19
ENDBRANCH   1  17
TORSDOF 3
ENDMDL
MODEL 2
REMARK VINA RESULT:      -6.9      3.435      7.031
REMARK  Name = 
REMARK  5 active torsions:
REMARK  status: ('A' for Active; 'I' for Inactive)
REMARK    1  A    between atoms: C_1  and  O_2
REMARK    2  A    between atoms: O_2  and  C_3
REMARK    3  A    between atoms: C_8  and  N_9
REMARK    4  A    between atoms: C_10  and  C_12
REMARK    5  A    between atoms: C_15  and  C_16
REMARK                            x       y       z     vdW  Elec       q    Type
REMARK                         _______ _______ _______ _____ _____    ______ ____
ROOT
ATOM      1  N   UNL     1       4.459   6.962  17.536  0.00  0.00    +0.000 N 
ATOM      2  C   UNL     1       3.197   6.605  18.004  0.00  0.00    +0.000 C 
ATOM      3  O   UNL     1       2.747   5.462  17.998  0.00  0.00    +0.000 OA
ATOM      4  H   UNL     1       4.842   7.874  17.738  0.00  0.00    +0.000 HD
ENDROOT
BRANCH   2   5
ATOM      5  C   UNL     1       2.305   7.647  18.579  0.00  0.00    +0.000 A 
ATOM      6  C   UNL     1       2.009   7.526  19.949  0.00  0.00    +0.000 A 
ATOM      7  C   UNL     1       1.288   8.510  20.623  0.00  0.00    +0.000 A 
ATOM      8  C   UNL     1       0.849   9.643  19.937  0.00  0.00    +0.000 A 
ATOM      9  C   UNL     1       0.162  10.754  20.675  0.00  0.00    +0.000 C 
ATOM     10  C   UNL     1       1.108   9.750  18.561  0.00  0.00    +0.000 A 
ATOM     11  C   UNL     1       1.831   8.757  17.879  0.00  0.00    +0.000 A 
ENDBRANCH   2   5
BRANCH   1  17
ATOM     12  C   UNL     1       6.346   5.383  17.496  0.00  0.00    +0.000 A 
ATOM     13  C   UNL     1       7.204   4.540  16.770  0.00  0.00    +0.000 A 
ATOM     14  C   UNL     1       7.055   4.373  15.393  0.00  0.00    +0.000 A 
ATOM     15  C   UNL     1       6.059   5.065  14.724  0.00  0.00    +0.000 A 
ATOM     16  C   UNL     1       5.214   5.923  15.426  0.00  0.00    +0.000 A 
ATOM     17  C   UNL     1       5.329   6.089  16.818  0.00  0.00    +0.000 A 
BRANCH  12  19
ATOM     18  C   UNL     1       7.769   5.790  19.349  0.00  0.00    +0.000 C 
ATOM     19  O   UNL     1       6.447   5.568  18.858  0.00  0.00    +0.000 OA
ENDBRANCH  12  19
ENDBRANCH   1  17
TORSDOF 3
ENDMDL
MODEL 3
REMARK VINA RESULT:      -6.9      3.402      6.991
REMARK  Name = 
REMARK  5 active torsions:
REMARK  status: ('A' for Active; 'I' for Inactive)
REMARK    1  A    between atoms: C_1  and  O_2
REMARK    2  A    between atoms: O_2  and  C_3
REMARK    3  A    between atoms: C_8  and  N_9
REMARK    4  A    between atoms: C_10  and  C_12
REMARK    5  A    between atoms: C_15  and  C_16
REMARK                            x       y       z     vdW  Elec       q    Type
REMARK                         _______ _______ _______ _____ _____    ______ ____
ROOT
ATOM      1  N   UNL     1       4.524   6.902  17.664  0.00  0.00    +0.000 N 
ATOM      2  C   UNL     1       3.214   6.614  18.042  0.00  0.00    +0.000 C 
ATOM      3  O   UNL     1       2.665   5.527  17.884  0.00  0.00    +0.000 OA
ATOM      4  H   UNL     1       4.978   7.744  17.986  0.00  0.00    +0.000 HD
ENDROOT
BRANCH   2   5
ATOM      5  C   UNL     1       2.395   7.663  18.706  0.00  0.00    +0.000 A 
ATOM      6  C   UNL     1       1.920   8.697  17.878  0.00  0.00    +0.000 A 
ATOM      7  C   UNL     1       1.041   9.664  18.362  0.00  0.00    +0.000 A 
ATOM      8  C   UNL     1       0.616   9.616  19.690  0.00  0.00    +0.000 A 
ATOM      9  C   UNL     1      -0.408  10.591  20.191  0.00  0.00    +0.000 C 
ATOM     10  C   UNL     1       1.117   8.609  20.530  0.00  0.00    +0.000 A 
ATOM     11  C   UNL     1       2.006   7.635  20.046  0.00  0.00    +0.000 A 
ENDBRANCH   2   5
BRANCH   1  17
ATOM     12  C   UNL     1       6.352   5.264  17.491  0.00  0.00    +0.000 A 
ATOM     13  C   UNL     1       7.161   4.431  16.700  0.00  0.00    +0.000 A 
ATOM     14  C   UNL     1       6.972   4.343  15.320  0.00  0.00    +0.000 A 
ATOM     15  C   UNL     1       5.985   5.104  14.715  0.00  0.00    +0.000 A 
ATOM     16  C   UNL     1       5.189   5.952  15.484  0.00  0.00    +0.000 A 
ATOM     17  C   UNL     1       5.344   6.039  16.879  0.00  0.00    +0.000 A 
BRANCH  12  19
ATOM     18  C   UNL     1       7.772   5.817  19.308  0.00  0.00    +0.000 C 
ATOM     19  O   UNL     1       6.492   5.372  18.858  0.00  0.00    +0.000 OA
ENDBRANCH  12  19
ENDBRANCH   1  17
TORSDOF 3
ENDMDL
MODEL 4
REMARK VINA RESULT:      -6.8      1.160      1.160
REMARK  Name = 
REMARK  5 active torsions:
REMARK  status: ('A' for Active; 'I' for Inactive)
REMARK    1  A    between atoms: C_1  and  O_2
REMARK    2  A    between atoms: O_2  and  C_3
REMARK    3  A    between atoms: C_8  and  N_9
REMARK    4  A    between atoms: C_10  and  C_12
REMARK    5  A    between atoms: C_15  and  C_16
REMARK                            x       y       z     vdW  Elec       q    Type
REMARK                         _______ _______ _______ _____ _____    ______ ____
ROOT
ATOM      1  N   UNL     1       3.907   3.662  17.961  0.00  0.00    +0.000 N 
ATOM      2  C   UNL     1       5.237   4.076  17.970  0.00  0.00    +0.000 C 
ATOM      3  O   UNL     1       5.897   4.284  18.985  0.00  0.00    +0.000 OA
ATOM      4  H   UNL     1       3.479   3.329  17.109  0.00  0.00    +0.000 HD
ENDROOT
BRANCH   2   5
ATOM      5  C   UNL     1       5.952   4.275  16.681  0.00  0.00    +0.000 A 
ATOM      6  C   UNL     1       5.300   3.801  15.528  0.00  0.00    +0.000 A 
ATOM      7  C   UNL     1       5.815   4.043  14.255  0.00  0.00    +0.000 A 
ATOM      8  C   UNL     1       6.998   4.768  14.110  0.00  0.00    +0.000 A 
ATOM      9  C   UNL     1       7.505   5.120  12.742  0.00  0.00    +0.000 C 
ATOM     10  C   UNL     1       7.673   5.209  15.259  0.00  0.00    +0.000 A 
ATOM     11  C   UNL     1       7.158   4.964  16.543  0.00  0.00    +0.000 A 
ENDBRANCH   2   5
BRANCH   1  17
ATOM     12  C   UNL     1       2.146   4.629  19.382  0.00  0.00    +0.000 A 
ATOM     13  C   UNL     1       1.346   4.560  20.534  0.00  0.00    +0.000 A 
ATOM     14  C   UNL     1       1.438   3.478  21.411  0.00  0.00    +0.000 A 
ATOM     15  C   UNL     1       2.349   2.466  21.155  0.00  0.00    +0.000 A 
ATOM     16  C   UNL     1       3.166   2.533  20.029  0.00  0.00    +0.000 A 
ATOM     17  C   UNL     1       3.074   3.599  19.117  0.00  0.00    +0.000 A 
BRANCH  12  19
ATOM     18  C   UNL     1       2.571   6.923  18.955  0.00  0.00    +0.000 C 
ATOM     19  O   UNL     1       2.079   5.669  18.480  0.00  0.00    +0.000 OA
ENDBRANCH  12  19
ENDBRANCH   1  17
TORSDOF 3
ENDMDL
MODEL 5
REMARK VINA RESULT:      -6.7      1.174      2.198
REMARK  Name = 
REMARK  5 active torsions:
REMARK  status: ('A' for Active; 'I' for Inactive)
REMARK    1  A    between atoms: C_1  and  O_2
REMARK    2  A    between atoms: O_2  and  C_3
REMARK    3  A    between atoms: C_8  and  N_9
REMARK    4  A    between atoms: C_10  and  C_12
REMARK    5  A    between atoms: C_15  and  C_16
REMARK                            x       y       z     vdW  Elec       q    Type
REMARK                         _______ _______ _______ _____ _____    ______ ____
ROOT
ATOM      1  N   UNL     1       4.066   3.324  17.737  0.00  0.00    +0.000 N 
ATOM      2  C   UNL     1       4.818   4.456  17.428  0.00  0.00    +0.000 C 
ATOM      3  O   UNL     1       4.883   5.463  18.128  0.00  0.00    +0.000 OA
ATOM      4  H   UNL     1       4.199   2.465  17.224  0.00  0.00    +0.000 HD
ENDROOT
BRANCH   2   5
ATOM      5  C   UNL     1       5.629   4.480  16.181  0.00  0.00    +0.000 A 
ATOM      6  C   UNL     1       5.032   3.916  15.040  0.00  0.00    +0.000 A 
ATOM      7  C   UNL     1       5.644   3.993  13.790  0.00  0.00    +0.000 A 
ATOM      8  C   UNL     1       6.873   4.642  13.657  0.00  0.00    +0.000 A 
ATOM      9  C   UNL     1       7.490   4.819  12.301  0.00  0.00    +0.000 C 
ATOM     10  C   UNL     1       7.492   5.172  14.800  0.00  0.00    +0.000 A 
ATOM     11  C   UNL     1       6.878   5.092  16.061  0.00  0.00    +0.000 A 
ENDBRANCH   2   5
BRANCH   1  17
ATOM     12  C   UNL     1       3.540   2.813  20.085  0.00  0.00    +0.000 A 
ATOM     13  C   UNL     1       2.599   2.729  21.125  0.00  0.00    +0.000 A 
ATOM     14  C   UNL     1       1.266   3.087  20.920  0.00  0.00    +0.000 A 
ATOM     15  C   UNL     1       0.857   3.513  19.667  0.00  0.00    +0.000 A 
ATOM     16  C   UNL     1       1.774   3.580  18.620  0.00  0.00    +0.000 A 
ATOM     17  C   UNL     1       3.127   3.248  18.808  0.00  0.00    +0.000 A 
BRANCH  12  19
ATOM     18  C   UNL     1       5.117   1.276  20.965  0.00  0.00    +0.000 C 
ATOM     19  O   UNL     1       4.869   2.484  20.245  0.00  0.00    +0.000 OA
ENDBRANCH  12  19
ENDBRANCH   1  17
TORSDOF 3
ENDMDL
MODEL 6
REMARK VINA RESULT:      -6.6      1.298      1.799
REMARK  Name = 
REMARK  5 active torsions:
REMARK  status: ('A' for Active; 'I' for Inactive)
REMARK    1  A    between atoms: C_1  and  O_2
REMARK    2  A    between atoms: O_2  and  C_3
REMARK    3  A    between atoms: C_8  and  N_9
REMARK    4  A    between atoms: C_10  and  C_12
REMARK    5  A    between atoms: C_15  and  C_16
REMARK                            x       y       z     vdW  Elec       q    Type
REMARK                         _______ _______ _______ _____ _____    ______ ____
ROOT
ATOM      1  N   UNL     1       3.714   4.224  17.446  0.00  0.00    +0.000 N 
ATOM      2  C   UNL     1       5.105   4.218  17.525  0.00  0.00    +0.000 C 
ATOM      3  O   UNL     1       5.745   4.040  18.558  0.00  0.00    +0.000 OA
ATOM      4  H   UNL     1       3.251   4.187  16.549  0.00  0.00    +0.000 HD
ENDROOT
BRANCH   2   5
ATOM      5  C   UNL     1       5.911   4.417  16.291  0.00  0.00    +0.000 A 
ATOM      6  C   UNL     1       5.437   3.780  15.129  0.00  0.00    +0.000 A 
ATOM      7  C   UNL     1       6.038   3.996  13.890  0.00  0.00    +0.000 A 
ATOM      8  C   UNL     1       7.129   4.858  13.787  0.00  0.00    +0.000 A 
ATOM      9  C   UNL     1       7.718   5.176  12.444  0.00  0.00    +0.000 C 
ATOM     10  C   UNL     1       7.630   5.466  14.950  0.00  0.00    +0.000 A 
ATOM     11  C   UNL     1       7.029   5.247  16.201  0.00  0.00    +0.000 A 
ENDBRANCH   2   5
BRANCH   1  17
ATOM     12  C   UNL     1       2.222   3.009  18.980  0.00  0.00    +0.000 A 
ATOM     13  C   UNL     1       1.354   3.017  20.085  0.00  0.00    +0.000 A 
ATOM     14  C   UNL     1       1.111   4.190  20.801  0.00  0.00    +0.000 A 
ATOM     15  C   UNL     1       1.716   5.371  20.405  0.00  0.00    +0.000 A 
ATOM     16  C   UNL     1       2.562   5.384  19.297  0.00  0.00    +0.000 A 
ATOM     17  C   UNL     1       2.842   4.211  18.575  0.00  0.00    +0.000 A 
BRANCH  12  19
ATOM     18  C   UNL     1       3.631   1.121  18.705  0.00  0.00    +0.000 C 
ATOM     19  O   UNL     1       2.504   1.873  18.252  0.00  0.00    +0.000 OA
ENDBRANCH  12  19
ENDBRANCH   1  17
TORSDOF 3
ENDMDL
MODEL 7
REMARK VINA RESULT:      -6.5      1.431      6.734
REMARK  Name = 
REMARK  5 active torsions:
REMARK  status: ('A' for Active; 'I' for Inactive)
REMARK    1  A    between atoms: C_1  and  O_2
REMARK    2  A    between atoms: O_2  and  C_3
REMARK    3  A    between atoms: C_8  and  N_9
REMARK    4  A    between atoms: C_10  and  C_12
REMARK    5  A    between atoms: C_15  and  C_16
REMARK                            x       y       z     vdW  Elec       q    Type
REMARK                         _______ _______ _______ _____ _____    ______ ____
ROOT
ATOM      1  N   UNL     1       5.128   3.667  16.531  0.00  0.00    +0.000 N 
ATOM      2  C   UNL     1       4.296   4.526  17.247  0.00  0.00    +0.000 C 
ATOM      3  O   UNL     1       4.007   5.668  16.900  0.00  0.00    +0.000 OA
ATOM      4  H   UNL     1       5.177   2.686  16.767  0.00  0.00    +0.000 HD
ENDROOT
BRANCH   2   5
ATOM      5  C   UNL     1       3.678   4.059  18.517  0.00  0.00    +0.000 A 
ATOM      6  C   UNL     1       2.407   4.582  18.818  0.00  0.00    +0.000 A 
ATOM      7  C   UNL     1       1.678   4.123  19.915  0.00  0.00    +0.000 A 
ATOM      8  C   UNL     1       2.209   3.126  20.735  0.00  0.00    +0.000 A 
ATOM      9  C   UNL     1       1.391   2.555  21.855  0.00  0.00    +0.000 C 
ATOM     10  C   UNL     1       3.493   2.630  20.461  0.00  0.00    +0.000 A 
ATOM     11  C   UNL     1       4.231   3.093  19.358  0.00  0.00    +0.000 A 
ENDBRANCH   2   5
BRANCH   1  17
ATOM     12  C   UNL     1       7.085   4.807  15.570  0.00  0.00    +0.000 A 
ATOM     13  C   UNL     1       7.828   5.195  14.443  0.00  0.00    +0.000 A 
ATOM     14  C   UNL     1       7.428   4.830  13.156  0.00  0.00    +0.000 A 
ATOM     15  C   UNL     1       6.268   4.092  12.984  0.00  0.00    +0.000 A 
ATOM     16  C   UNL     1       5.508   3.721  14.092  0.00  0.00    +0.000 A 
ATOM     17  C   UNL     1       5.903   4.054  15.399  0.00  0.00    +0.000 A 
BRANCH  12  19
ATOM     18  C   UNL     1       7.358   6.518  17.190  0.00  0.00    +0.000 C 
ATOM     19  O   UNL     1       7.449   5.132  16.860  0.00  0.00    +0.000 OA
ENDBRANCH  12  19
ENDBRANCH   1  17
TORSDOF 3
ENDMDL
MODEL 8
REMARK VINA RESULT:      -6.5      1.341      2.364
REMARK  Name = 
REMARK  5 active torsions:
REMARK  status: ('A' for Active; 'I' for Inactive)
REMARK    1  A    between atoms: C_1  and  O_2
REMARK    2  A    between atoms: O_2  and  C_3
REMARK    3  A    between atoms: C_8  and  N_9
REMARK    4  A    between atoms: C_10  and  C_12
REMARK    5  A    between atoms: C_15  and  C_16
REMARK                            x       y       z     vdW  Elec       q    Type
REMARK                         _______ _______ _______ _____ _____    ______ ____
ROOT
ATOM      1  N   UNL     1       4.289   4.316  18.469  0.00  0.00    +0.000 N 
ATOM      2  C   UNL     1       4.154   3.953  17.131  0.00  0.00    +0.000 C 
ATOM      3  O   UNL     1       3.159   3.415  16.650  0.00  0.00    +0.000 OA
ATOM      4  H   UNL     1       5.044   4.919  18.763  0.00  0.00    +0.000 HD
ENDROOT
BRANCH   2   5
ATOM      5  C   UNL     1       5.260   4.237  16.178  0.00  0.00    +0.000 A 
ATOM      6  C   UNL     1       5.038   3.866  14.839  0.00  0.00    +0.000 A 
ATOM      7  C   UNL     1       5.950   4.195  13.837  0.00  0.00    +0.000 A 
ATOM      8  C   UNL     1       7.107   4.906  14.156  0.00  0.00    +0.000 A 
ATOM      9  C   UNL     1       8.042   5.353  13.071  0.00  0.00    +0.000 C 
ATOM     10  C   UNL     1       7.352   5.244  15.496  0.00  0.00    +0.000 A 
ATOM     11  C   UNL     1       6.436   4.911  16.509  0.00  0.00    +0.000 A 
ENDBRANCH   2   5
BRANCH   1  17
ATOM     12  C   UNL     1       3.648   2.842  20.332  0.00  0.00    +0.000 A 
ATOM     13  C   UNL     1       2.728   2.485  21.332  0.00  0.00    +0.000 A 
ATOM     14  C   UNL     1       1.558   3.219  21.530  0.00  0.00    +0.000 A 
ATOM     15  C   UNL     1       1.286   4.305  20.715  0.00  0.00    +0.000 A 
ATOM     16  C   UNL     1       2.178   4.658  19.703  0.00  0.00    +0.000 A 
ATOM     17  C   UNL     1       3.375   3.949  19.500  0.00  0.00    +0.000 A 
BRANCH  12  19
ATOM     18  C   UNL     1       5.201   1.242  21.138  0.00  0.00    +0.000 C 
ATOM     19  O   UNL     1       4.823   2.156  20.109  0.00  0.00    +0.000 OA
ENDBRANCH  12  19
ENDBRANCH   1  17
TORSDOF 3
ENDMDL
MODEL 9
REMARK VINA RESULT:      -6.5      2.716      3.250
REMARK  Name = 
REMARK  5 active torsions:
REMARK  status: ('A' for Active; 'I' for Inactive)
REMARK    1  A    between atoms: C_1  and  O_2
REMARK    2  A    between atoms: O_2  and  C_3
REMARK    3  A    between atoms: C_8  and  N_9
REMARK    4  A    between atoms: C_10  and  C_12
REMARK    5  A    between atoms: C_15  and  C_16
REMARK                            x       y       z     vdW  Elec       q    Type
REMARK                         _______ _______ _______ _____ _____    ______ ____
ROOT
ATOM      1  N   UNL     1       3.757   4.893  18.463  0.00  0.00    +0.000 N 
ATOM      2  C   UNL     1       5.095   4.634  18.751  0.00  0.00    +0.000 C 
ATOM      3  O   UNL     1       5.515   3.585  19.233  0.00  0.00    +0.000 OA
ATOM      4  H   UNL     1       3.498   5.691  17.900  0.00  0.00    +0.000 HD
ENDROOT
BRANCH   2   5
ATOM      5  C   UNL     1       6.123   5.667  18.453  0.00  0.00    +0.000 A 
ATOM      6  C   UNL     1       5.763   6.650  17.513  0.00  0.00    +0.000 A 
ATOM      7  C   UNL     1       6.595   7.736  17.248  0.00  0.00    +0.000 A 
ATOM      8  C   UNL     1       7.810   7.862  17.922  0.00  0.00    +0.000 A 
ATOM      9  C   UNL     1       8.665   9.078  17.719  0.00  0.00    +0.000 C 
ATOM     10  C   UNL     1       8.192   6.863  18.832  0.00  0.00    +0.000 A 
ATOM     11  C   UNL     1       7.356   5.765  19.098  0.00  0.00    +0.000 A 
ENDBRANCH   2   5
BRANCH   1  17
ATOM     12  C   UNL     1       1.991   4.294  20.068  0.00  0.00    +0.000 A 
ATOM     13  C   UNL     1       0.934   3.448  20.446  0.00  0.00    +0.000 A 
ATOM     14  C   UNL     1       0.533   2.389  19.631  0.00  0.00    +0.000 A 
ATOM     15  C   UNL     1       1.199   2.151  18.440  0.00  0.00    +0.000 A 
ATOM     16  C   UNL     1       2.264   2.967  18.063  0.00  0.00    +0.000 A 
ATOM     17  C   UNL     1       2.671   4.055  18.854  0.00  0.00    +0.000 A 
BRANCH  12  19
ATOM     18  C   UNL     1       1.641   6.554  20.693  0.00  0.00    +0.000 C 
ATOM     19  O   UNL     1       2.412   5.360  20.832  0.00  0.00    +0.000 OA
ENDBRANCH  12  19
ENDBRANCH   1  17
TORSDOF 3
ENDMDL
