MODEL 1
REMARK VINA RESULT:      -8.4      0.000      0.000
REMARK  Name = 
REMARK  11 active torsions:
REMARK  status: ('A' for Active; 'I' for Inactive)
REMARK    1  A    between atoms: C_1  and  N_2
REMARK    2  A    between atoms: C_3  and  C_4
REMARK    3  A    between atoms: C_3  and  C_5
REMARK    4  A    between atoms: C_7  and  N_8
REMARK    5  A    between atoms: N_8  and  S_9
REMARK    6  A    between atoms: S_9  and  C_12
REMARK    7  A    between atoms: C_17  and  C_18
REMARK    8  A    between atoms: C_21  and  C_22
REMARK    9  A    between atoms: C_25  and  N_26
REMARK   10  A    between atoms: C_33  and  C_34
REMARK   11  A    between atoms: C_33  and  C_35
REMARK                            x       y       z     vdW  Elec       q    Type
REMARK                         _______ _______ _______ _____ _____    ______ ____
ROOT
ATOM      1  C   UNL     1      -0.827  11.340  20.186  0.00  0.00    +0.000 A 
ATOM      2  C   UNL     1      -1.996  12.142  20.159  0.00  0.00    +0.000 A 
ATOM      3  C   UNL     1      -2.952  12.002  19.158  0.00  0.00    +0.000 A 
ATOM      4  C   UNL     1      -2.760  11.057  18.169  0.00  0.00    +0.000 A 
ATOM      5  C   UNL     1      -1.620  10.248  18.195  0.00  0.00    +0.000 A 
ATOM      6  C   UNL     1      -0.605  10.356  19.186  0.00  0.00    +0.000 A 
ENDROOT
BRANCH   6   7
ATOM      7  C   UNL     1       0.550   9.416  19.049  0.00  0.00    +0.000 A 
ATOM      8  C   UNL     1       1.365   9.426  17.897  0.00  0.00    +0.000 A 
ATOM      9  C   UNL     1       2.408   8.504  17.705  0.00  0.00    +0.000 A 
ATOM     10  C   UNL     1       2.731   7.542  18.674  0.00  0.00    +0.000 A 
ATOM     11  C   UNL     1       1.921   7.535  19.814  0.00  0.00    +0.000 A 
ATOM     12  F   UNL     1       2.152   6.661  20.807  0.00  0.00    +0.000 F 
ATOM     13  C   UNL     1       0.844   8.418  19.983  0.00  0.00    +0.000 A 
BRANCH  10  14
ATOM     14  C   UNL     1       3.869   6.627  18.475  0.00  0.00    +0.000 A 
ATOM     15  C   UNL     1       4.143   5.514  19.273  0.00  0.00    +0.000 A 
ATOM     16  N   UNL     1       5.187   4.665  19.062  0.00  0.00    +0.000 NA
ATOM     17  C   UNL     1       5.981   4.958  18.018  0.00  0.00    +0.000 A 
ATOM     18  C   UNL     1       5.718   6.059  17.214  0.00  0.00    +0.000 A 
ATOM     19  N   UNL     1       4.676   6.903  17.417  0.00  0.00    +0.000 NA
BRANCH  17  20
ATOM     20  N   UNL     1       7.027   4.079  17.757  0.00  0.00    +0.000 N 
ATOM     21  H   UNL     1       7.873   4.636  17.660  0.00  0.00    +0.000 HD
ATOM     22  H   UNL     1       6.852   3.510  16.936  0.00  0.00    +0.000 HD
ENDBRANCH  17  20
ENDBRANCH  10  14
ENDBRANCH   6   7
BRANCH   1  23
ATOM     23  S   UNL     1       0.373  11.866  21.418  0.00  0.00    +0.000 S 
ATOM     24  O   UNL     1       0.901  10.673  22.028  0.00  0.00    +0.000 OA
ATOM     25  O   UNL     1      -0.233  12.884  22.248  0.00  0.00    +0.000 OA
BRANCH  23  26
ATOM     26  N   UNL     1       1.594  12.639  20.514  0.00  0.00    +0.000 NA
ATOM     27  H   UNL     1       2.001  13.406  21.050  0.00  0.00    +0.000 HD
BRANCH  26  34
ATOM     28  C   UNL     1       2.860  17.164  18.906  0.00  0.00    +0.000 C 
ATOM     29  N   UNL     1       2.323  15.826  18.619  0.00  0.00    +0.000 NA
ATOM     30  C   UNL     1       0.968  15.573  19.185  0.00  0.00    +0.000 C 
ATOM     31  C   UNL     1      -0.037  16.535  18.478  0.00  0.00    +0.000 C 
ATOM     32  C   UNL     1       0.838  15.861  20.696  0.00  0.00    +0.000 C 
ATOM     33  C   UNL     1       0.449  14.129  18.877  0.00  0.00    +0.000 C 
ATOM     34  C   UNL     1       1.453  12.980  19.070  0.00  0.00    +0.000 C 
ATOM     35  C   UNL     1       2.726  13.386  18.343  0.00  0.00    +0.000 C 
ATOM     36  C   UNL     1       3.338  14.743  18.764  0.00  0.00    +0.000 C 
ATOM     37  C   UNL     1       4.504  14.985  17.762  0.00  0.00    +0.000 C 
ATOM     38  C   UNL     1       3.993  14.663  20.159  0.00  0.00    +0.000 C 
ENDBRANCH  26  34
ENDBRANCH  23  26
ENDBRANCH   1  23
TORSDOF 6
ENDMDL
MODEL 2
REMARK VINA RESULT:      -8.2      2.807      4.732
REMARK  Name = 
REMARK  11 active torsions:
REMARK  status: ('A' for Active; 'I' for Inactive)
REMARK    1  A    between atoms: C_1  and  N_2
REMARK    2  A    between atoms: C_3  and  C_4
REMARK    3  A    between atoms: C_3  and  C_5
REMARK    4  A    between atoms: C_7  and  N_8
REMARK    5  A    between atoms: N_8  and  S_9
REMARK    6  A    between atoms: S_9  and  C_12
REMARK    7  A    between atoms: C_17  and  C_18
REMARK    8  A    between atoms: C_21  and  C_22
REMARK    9  A    between atoms: C_25  and  N_26
REMARK   10  A    between atoms: C_33  and  C_34
REMARK   11  A    between atoms: C_33  and  C_35
REMARK                            x       y       z     vdW  Elec       q    Type
REMARK                         _______ _______ _______ _____ _____    ______ ____
ROOT
ATOM      1  C   UNL     1       0.521  11.508  19.835  0.00  0.00    +0.000 A 
ATOM      2  C   UNL     1       0.300  12.906  19.755  0.00  0.00    +0.000 A 
ATOM      3  C   UNL     1       1.029  13.710  18.885  0.00  0.00    +0.000 A 
ATOM      4  C   UNL     1       1.990  13.132  18.077  0.00  0.00    +0.000 A 
ATOM      5  C   UNL     1       2.205  11.752  18.135  0.00  0.00    +0.000 A 
ATOM      6  C   UNL     1       1.498  10.884  19.014  0.00  0.00    +0.000 A 
ENDROOT
BRANCH   6   7
ATOM      7  C   UNL     1       1.869   9.437  18.948  0.00  0.00    +0.000 A 
ATOM      8  C   UNL     1       2.360   8.865  17.755  0.00  0.00    +0.000 A 
ATOM      9  C   UNL     1       2.643   7.493  17.639  0.00  0.00    +0.000 A 
ATOM     10  C   UNL     1       2.495   6.615  18.723  0.00  0.00    +0.000 A 
ATOM     11  C   UNL     1       2.008   7.185  19.903  0.00  0.00    +0.000 A 
ATOM     12  F   UNL     1       1.841   6.434  21.003  0.00  0.00    +0.000 F 
ATOM     13  C   UNL     1       1.673   8.544  20.005  0.00  0.00    +0.000 A 
BRANCH  10  14
ATOM     14  C   UNL     1       2.857   5.192  18.593  0.00  0.00    +0.000 A 
ATOM     15  C   UNL     1       3.975   4.599  19.182  0.00  0.00    +0.000 A 
ATOM     16  N   UNL     1       4.284   3.277  19.071  0.00  0.00    +0.000 NA
ATOM     17  C   UNL     1       3.439   2.537  18.333  0.00  0.00    +0.000 A 
ATOM     18  C   UNL     1       2.320   3.112  17.744  0.00  0.00    +0.000 A 
ATOM     19  N   UNL     1       2.007   4.427  17.859  0.00  0.00    +0.000 NA
BRANCH  17  20
ATOM     20  N   UNL     1       3.710   1.175  18.243  0.00  0.00    +0.000 N 
ATOM     21  H   UNL     1       4.439   0.967  18.922  0.00  0.00    +0.000 HD
ATOM     22  H   UNL     1       3.976   0.899  17.304  0.00  0.00    +0.000 HD
ENDBRANCH  17  20
ENDBRANCH  10  14
ENDBRANCH   6   7
BRANCH   1  23
ATOM     23  S   UNL     1      -0.355  10.721  21.195  0.00  0.00    +0.000 S 
ATOM     24  O   UNL     1       0.594  10.550  22.265  0.00  0.00    +0.000 OA
ATOM     25  O   UNL     1      -1.068   9.572  20.682  0.00  0.00    +0.000 OA
BRANCH  23  26
ATOM     26  N   UNL     1      -1.536  11.862  21.651  0.00  0.00    +0.000 NA
ATOM     27  H   UNL     1      -1.549  12.642  20.993  0.00  0.00    +0.000 HD
BRANCH  26  34
ATOM     28  C   UNL     1      -4.702  15.563  22.625  0.00  0.00    +0.000 C 
ATOM     29  N   UNL     1      -3.722  14.579  23.107  0.00  0.00    +0.000 NA
ATOM     30  C   UNL     1      -2.315  14.867  22.712  0.00  0.00    +0.000 C 
ATOM     31  C   UNL     1      -1.881  16.195  23.410  0.00  0.00    +0.000 C 
ATOM     32  C   UNL     1      -2.105  15.097  21.199  0.00  0.00    +0.000 C 
ATOM     33  C   UNL     1      -1.312  13.781  23.225  0.00  0.00    +0.000 C 
ATOM     34  C   UNL     1      -1.741  12.314  23.057  0.00  0.00    +0.000 C 
ATOM     35  C   UNL     1      -3.156  12.207  23.602  0.00  0.00    +0.000 C 
ATOM     36  C   UNL     1      -4.193  13.170  22.978  0.00  0.00    +0.000 C 
ATOM     37  C   UNL     1      -5.485  12.973  23.824  0.00  0.00    +0.000 C 
ATOM     38  C   UNL     1      -4.566  12.750  21.540  0.00  0.00    +0.000 C 
ENDBRANCH  26  34
ENDBRANCH  23  26
ENDBRANCH   1  23
TORSDOF 6
ENDMDL
MODEL 3
REMARK VINA RESULT:      -8.0      0.708      1.959
REMARK  Name = 
REMARK  11 active torsions:
REMARK  status: ('A' for Active; 'I' for Inactive)
REMARK    1  A    between atoms: C_1  and  N_2
REMARK    2  A    between atoms: C_3  and  C_4
REMARK    3  A    between atoms: C_3  and  C_5
REMARK    4  A    between atoms: C_7  and  N_8
REMARK    5  A    between atoms: N_8  and  S_9
REMARK    6  A    between atoms: S_9  and  C_12
REMARK    7  A    between atoms: C_17  and  C_18
REMARK    8  A    between atoms: C_21  and  C_22
REMARK    9  A    between atoms: C_25  and  N_26
REMARK   10  A    between atoms: C_33  and  C_34
REMARK   11  A    between atoms: C_33  and  C_35
REMARK                            x       y       z     vdW  Elec       q    Type
REMARK                         _______ _______ _______ _____ _____    ______ ____
ROOT
ATOM      1  C   UNL     1      -0.674  11.268  20.080  0.00  0.00    +0.000 A 
ATOM      2  C   UNL     1      -1.837  12.077  20.035  0.00  0.00    +0.000 A 
ATOM      3  C   UNL     1      -2.751  11.979  18.990  0.00  0.00    +0.000 A 
ATOM      4  C   UNL     1      -2.522  11.071  17.976  0.00  0.00    +0.000 A 
ATOM      5  C   UNL     1      -1.387  10.256  18.018  0.00  0.00    +0.000 A 
ATOM      6  C   UNL     1      -0.414  10.322  19.054  0.00  0.00    +0.000 A 
ENDROOT
BRANCH   6   7
ATOM      7  C   UNL     1       0.743   9.381  18.930  0.00  0.00    +0.000 A 
ATOM      8  C   UNL     1       1.624   9.451  17.831  0.00  0.00    +0.000 A 
ATOM      9  C   UNL     1       2.672   8.533  17.646  0.00  0.00    +0.000 A 
ATOM     10  C   UNL     1       2.932   7.514  18.574  0.00  0.00    +0.000 A 
ATOM     11  C   UNL     1       2.056   7.447  19.662  0.00  0.00    +0.000 A 
ATOM     12  F   UNL     1       2.224   6.515  20.614  0.00  0.00    +0.000 F 
ATOM     13  C   UNL     1       0.976   8.328  19.819  0.00  0.00    +0.000 A 
BRANCH  10  14
ATOM     14  C   UNL     1       4.075   6.601  18.389  0.00  0.00    +0.000 A 
ATOM     15  C   UNL     1       4.310   5.456  19.152  0.00  0.00    +0.000 A 
ATOM     16  N   UNL     1       5.360   4.611  18.954  0.00  0.00    +0.000 NA
ATOM     17  C   UNL     1       6.200   4.942  17.959  0.00  0.00    +0.000 A 
ATOM     18  C   UNL     1       5.977   6.077  17.189  0.00  0.00    +0.000 A 
ATOM     19  N   UNL     1       4.929   6.917  17.380  0.00  0.00    +0.000 NA
BRANCH  17  20
ATOM     20  N   UNL     1       7.254   4.069  17.709  0.00  0.00    +0.000 N 
ATOM     21  H   UNL     1       8.060   4.412  18.227  0.00  0.00    +0.000 HD
ATOM     22  H   UNL     1       7.451   3.981  16.718  0.00  0.00    +0.000 HD
ENDBRANCH  17  20
ENDBRANCH  10  14
ENDBRANCH   6   7
BRANCH   1  23
ATOM     23  S   UNL     1       0.476  11.741  21.380  0.00  0.00    +0.000 S 
ATOM     24  O   UNL     1       1.145  10.541  21.809  0.00  0.00    +0.000 OA
ATOM     25  O   UNL     1      -0.230  12.551  22.350  0.00  0.00    +0.000 OA
BRANCH  23  26
ATOM     26  N   UNL     1       1.588  12.774  20.603  0.00  0.00    +0.000 NA
ATOM     27  H   UNL     1       2.309  12.228  20.131  0.00  0.00    +0.000 HD
BRANCH  26  34
ATOM     28  C   UNL     1       2.456  16.801  17.830  0.00  0.00    +0.000 C 
ATOM     29  N   UNL     1       2.505  16.134  19.139  0.00  0.00    +0.000 NA
ATOM     30  C   UNL     1       3.519  15.047  19.238  0.00  0.00    +0.000 C 
ATOM     31  C   UNL     1       4.934  15.692  19.097  0.00  0.00    +0.000 C 
ATOM     32  C   UNL     1       3.430  13.980  18.125  0.00  0.00    +0.000 C 
ATOM     33  C   UNL     1       3.518  14.350  20.638  0.00  0.00    +0.000 C 
ATOM     34  C   UNL     1       2.143  14.005  21.235  0.00  0.00    +0.000 C 
ATOM     35  C   UNL     1       1.293  15.261  21.129  0.00  0.00    +0.000 C 
ATOM     36  C   UNL     1       1.156  15.864  19.711  0.00  0.00    +0.000 C 
ATOM     37  C   UNL     1       0.398  17.208  19.918  0.00  0.00    +0.000 C 
ATOM     38  C   UNL     1       0.242  15.002  18.814  0.00  0.00    +0.000 C 
ENDBRANCH  26  34
ENDBRANCH  23  26
ENDBRANCH   1  23
TORSDOF 6
ENDMDL
MODEL 4
REMARK VINA RESULT:      -7.9      2.770      4.660
REMARK  Name = 
REMARK  11 active torsions:
REMARK  status: ('A' for Active; 'I' for Inactive)
REMARK    1  A    between atoms: C_1  and  N_2
REMARK    2  A    between atoms: C_3  and  C_4
REMARK    3  A    between atoms: C_3  and  C_5
REMARK    4  A    between atoms: C_7  and  N_8
REMARK    5  A    between atoms: N_8  and  S_9
REMARK    6  A    between atoms: S_9  and  C_12
REMARK    7  A    between atoms: C_17  and  C_18
REMARK    8  A    between atoms: C_21  and  C_22
REMARK    9  A    between atoms: C_25  and  N_26
REMARK   10  A    between atoms: C_33  and  C_34
REMARK   11  A    between atoms: C_33  and  C_35
REMARK                            x       y       z     vdW  Elec       q    Type
REMARK                         _______ _______ _______ _____ _____    ______ ____
ROOT
ATOM      1  C   UNL     1      -0.090  12.305  18.777  0.00  0.00    +0.000 A 
ATOM      2  C   UNL     1      -0.273  13.708  18.696  0.00  0.00    +0.000 A 
ATOM      3  C   UNL     1       0.808  14.582  18.641  0.00  0.00    +0.000 A 
ATOM      4  C   UNL     1       2.091  14.070  18.662  0.00  0.00    +0.000 A 
ATOM      5  C   UNL     1       2.285  12.687  18.725  0.00  0.00    +0.000 A 
ATOM      6  C   UNL     1       1.217  11.749  18.796  0.00  0.00    +0.000 A 
ENDROOT
BRANCH   6   7
ATOM      7  C   UNL     1       1.612  10.308  18.869  0.00  0.00    +0.000 A 
ATOM      8  C   UNL     1       2.151   9.643  17.747  0.00  0.00    +0.000 A 
ATOM      9  C   UNL     1       2.458   8.272  17.761  0.00  0.00    +0.000 A 
ATOM     10  C   UNL     1       2.288   7.489  18.913  0.00  0.00    +0.000 A 
ATOM     11  C   UNL     1       1.754   8.151  20.023  0.00  0.00    +0.000 A 
ATOM     12  F   UNL     1       1.562   7.496  21.179  0.00  0.00    +0.000 F 
ATOM     13  C   UNL     1       1.394   9.507  19.993  0.00  0.00    +0.000 A 
BRANCH  10  14
ATOM     14  C   UNL     1       2.677   6.067  18.920  0.00  0.00    +0.000 A 
ATOM     15  C   UNL     1       1.810   5.005  18.657  0.00  0.00    +0.000 A 
ATOM     16  N   UNL     1       2.190   3.697  18.645  0.00  0.00    +0.000 NA
ATOM     17  C   UNL     1       3.484   3.459  18.919  0.00  0.00    +0.000 A 
ATOM     18  C   UNL     1       4.359   4.506  19.179  0.00  0.00    +0.000 A 
ATOM     19  N   UNL     1       3.985   5.810  19.185  0.00  0.00    +0.000 NA
BRANCH  17  20
ATOM     20  N   UNL     1       3.905   2.134  18.868  0.00  0.00    +0.000 N 
ATOM     21  H   UNL     1       4.138   1.854  19.818  0.00  0.00    +0.000 HD
ATOM     22  H   UNL     1       4.685   2.004  18.233  0.00  0.00    +0.000 HD
ENDBRANCH  17  20
ENDBRANCH  10  14
ENDBRANCH   6   7
BRANCH   1  23
ATOM     23  S   UNL     1      -1.613  11.401  19.088  0.00  0.00    +0.000 S 
ATOM     24  O   UNL     1      -1.245  10.038  19.373  0.00  0.00    +0.000 OA
ATOM     25  O   UNL     1      -2.543  11.680  18.015  0.00  0.00    +0.000 OA
BRANCH  23  26
ATOM     26  N   UNL     1      -2.256  12.128  20.489  0.00  0.00    +0.000 NA
ATOM     27  H   UNL     1      -2.563  13.080  20.287  0.00  0.00    +0.000 HD
BRANCH  26  34
ATOM     28  C   UNL     1      -3.529  15.305  24.089  0.00  0.00    +0.000 C 
ATOM     29  N   UNL     1      -2.709  14.173  23.635  0.00  0.00    +0.000 NA
ATOM     30  C   UNL     1      -1.660  14.534  22.639  0.00  0.00    +0.000 C 
ATOM     31  C   UNL     1      -0.634  15.478  23.340  0.00  0.00    +0.000 C 
ATOM     32  C   UNL     1      -2.179  15.312  21.411  0.00  0.00    +0.000 C 
ATOM     33  C   UNL     1      -0.829  13.295  22.166  0.00  0.00    +0.000 C 
ATOM     34  C   UNL     1      -1.623  12.020  21.834  0.00  0.00    +0.000 C 
ATOM     35  C   UNL     1      -2.559  11.770  23.006  0.00  0.00    +0.000 C 
ATOM     36  C   UNL     1      -3.503  12.939  23.374  0.00  0.00    +0.000 C 
ATOM     37  C   UNL     1      -4.210  12.487  24.685  0.00  0.00    +0.000 C 
ATOM     38  C   UNL     1      -4.628  13.111  22.331  0.00  0.00    +0.000 C 
ENDBRANCH  26  34
ENDBRANCH  23  26
ENDBRANCH   1  23
TORSDOF 6
ENDMDL
MODEL 5
REMARK VINA RESULT:      -7.9      0.939      2.172
REMARK  Name = 
REMARK  11 active torsions:
REMARK  status: ('A' for Active; 'I' for Inactive)
REMARK    1  A    between atoms: C_1  and  N_2
REMARK    2  A    between atoms: C_3  and  C_4
REMARK    3  A    between atoms: C_3  and  C_5
REMARK    4  A    between atoms: C_7  and  N_8
REMARK    5  A    between atoms: N_8  and  S_9
REMARK    6  A    between atoms: S_9  and  C_12
REMARK    7  A    between atoms: C_17  and  C_18
REMARK    8  A    between atoms: C_21  and  C_22
REMARK    9  A    between atoms: C_25  and  N_26
REMARK   10  A    between atoms: C_33  and  C_34
REMARK   11  A    between atoms: C_33  and  C_35
REMARK                            x       y       z     vdW  Elec       q    Type
REMARK                         _______ _______ _______ _____ _____    ______ ____
ROOT
ATOM      1  C   UNL     1      -1.225  11.686  20.461  0.00  0.00    +0.000 A 
ATOM      2  C   UNL     1      -2.366  12.527  20.448  0.00  0.00    +0.000 A 
ATOM      3  C   UNL     1      -3.295  12.477  19.414  0.00  0.00    +0.000 A 
ATOM      4  C   UNL     1      -3.104  11.584  18.378  0.00  0.00    +0.000 A 
ATOM      5  C   UNL     1      -1.992  10.737  18.388  0.00  0.00    +0.000 A 
ATOM      6  C   UNL     1      -1.004  10.754  19.413  0.00  0.00    +0.000 A 
ENDROOT
BRANCH   6   7
ATOM      7  C   UNL     1       0.124   9.784  19.254  0.00  0.00    +0.000 A 
ATOM      8  C   UNL     1       0.835   9.688  18.040  0.00  0.00    +0.000 A 
ATOM      9  C   UNL     1       1.847   8.734  17.834  0.00  0.00    +0.000 A 
ATOM     10  C   UNL     1       2.241   7.847  18.847  0.00  0.00    +0.000 A 
ATOM     11  C   UNL     1       1.533   7.945  20.049  0.00  0.00    +0.000 A 
ATOM     12  F   UNL     1       1.839   7.149  21.085  0.00  0.00    +0.000 F 
ATOM     13  C   UNL     1       0.486   8.859  20.237  0.00  0.00    +0.000 A 
BRANCH  10  14
ATOM     14  C   UNL     1       3.347   6.897  18.626  0.00  0.00    +0.000 A 
ATOM     15  C   UNL     1       4.271   6.981  17.583  0.00  0.00    +0.000 A 
ATOM     16  N   UNL     1       5.301   6.108  17.406  0.00  0.00    +0.000 NA
ATOM     17  C   UNL     1       5.391   5.115  18.308  0.00  0.00    +0.000 A 
ATOM     18  C   UNL     1       4.482   5.022  19.354  0.00  0.00    +0.000 A 
ATOM     19  N   UNL     1       3.459   5.894  19.537  0.00  0.00    +0.000 NA
BRANCH  17  20
ATOM     20  N   UNL     1       6.463   4.239  18.174  0.00  0.00    +0.000 N 
ATOM     21  H   UNL     1       6.716   3.926  19.109  0.00  0.00    +0.000 HD
ATOM     22  H   UNL     1       7.247   4.664  17.692  0.00  0.00    +0.000 HD
ENDBRANCH  17  20
ENDBRANCH  10  14
ENDBRANCH   6   7
BRANCH   1  23
ATOM     23  S   UNL     1      -0.046  12.099  21.756  0.00  0.00    +0.000 S 
ATOM     24  O   UNL     1       0.373  10.859  22.356  0.00  0.00    +0.000 OA
ATOM     25  O   UNL     1      -0.618  13.137  22.587  0.00  0.00    +0.000 OA
BRANCH  23  26
ATOM     26  N   UNL     1       1.262  12.808  20.924  0.00  0.00    +0.000 NA
ATOM     27  H   UNL     1       1.889  12.087  20.568  0.00  0.00    +0.000 HD
BRANCH  26  34
ATOM     28  C   UNL     1       2.537  16.440  17.785  0.00  0.00    +0.000 C 
ATOM     29  N   UNL     1       2.555  15.880  19.144  0.00  0.00    +0.000 NA
ATOM     30  C   UNL     1       3.417  14.675  19.301  0.00  0.00    +0.000 C 
ATOM     31  C   UNL     1       4.897  15.105  19.057  0.00  0.00    +0.000 C 
ATOM     32  C   UNL     1       3.133  13.544  18.289  0.00  0.00    +0.000 C 
ATOM     33  C   UNL     1       3.386  14.100  20.756  0.00  0.00    +0.000 C 
ATOM     34  C   UNL     1       2.006  13.998  21.427  0.00  0.00    +0.000 C 
ATOM     35  C   UNL     1       1.329  15.347  21.243  0.00  0.00    +0.000 C 
ATOM     36  C   UNL     1       1.209  15.846  19.783  0.00  0.00    +0.000 C 
ATOM     37  C   UNL     1       0.650  17.294  19.899  0.00  0.00    +0.000 C 
ATOM     38  C   UNL     1       0.147  15.049  18.996  0.00  0.00    +0.000 C 
ENDBRANCH  26  34
ENDBRANCH  23  26
ENDBRANCH   1  23
TORSDOF 6
ENDMDL
MODEL 6
REMARK VINA RESULT:      -7.9      2.968      4.947
REMARK  Name = 
REMARK  11 active torsions:
REMARK  status: ('A' for Active; 'I' for Inactive)
REMARK    1  A    between atoms: C_1  and  N_2
REMARK    2  A    between atoms: C_3  and  C_4
REMARK    3  A    between atoms: C_3  and  C_5
REMARK    4  A    between atoms: C_7  and  N_8
REMARK    5  A    between atoms: N_8  and  S_9
REMARK    6  A    between atoms: S_9  and  C_12
REMARK    7  A    between atoms: C_17  and  C_18
REMARK    8  A    between atoms: C_21  and  C_22
REMARK    9  A    between atoms: C_25  and  N_26
REMARK   10  A    between atoms: C_33  and  C_34
REMARK   11  A    between atoms: C_33  and  C_35
REMARK                            x       y       z     vdW  Elec       q    Type
REMARK                         _______ _______ _______ _____ _____    ______ ____
ROOT
ATOM      1  C   UNL     1      -0.289  12.460  18.760  0.00  0.00    +0.000 A 
ATOM      2  C   UNL     1      -0.415  13.860  18.577  0.00  0.00    +0.000 A 
ATOM      3  C   UNL     1       0.698  14.693  18.549  0.00  0.00    +0.000 A 
ATOM      4  C   UNL     1       1.957  14.144  18.699  0.00  0.00    +0.000 A 
ATOM      5  C   UNL     1       2.095  12.762  18.862  0.00  0.00    +0.000 A 
ATOM      6  C   UNL     1       0.991  11.865  18.912  0.00  0.00    +0.000 A 
ENDROOT
BRANCH   6   7
ATOM      7  C   UNL     1       1.327  10.420  19.104  0.00  0.00    +0.000 A 
ATOM      8  C   UNL     1       1.175   9.799  20.362  0.00  0.00    +0.000 A 
ATOM      9  C   UNL     1       1.555   8.465  20.593  0.00  0.00    +0.000 A 
ATOM     10  C   UNL     1       2.070   7.656  19.568  0.00  0.00    +0.000 A 
ATOM     11  C   UNL     1       2.219   8.276  18.324  0.00  0.00    +0.000 A 
ATOM     12  F   UNL     1       2.693   7.586  17.273  0.00  0.00    +0.000 F 
ATOM     13  C   UNL     1       1.892   9.622  18.105  0.00  0.00    +0.000 A 
BRANCH  10  14
ATOM     14  C   UNL     1       2.403   6.242  19.822  0.00  0.00    +0.000 A 
ATOM     15  C   UNL     1       3.540   5.595  19.337  0.00  0.00    +0.000 A 
ATOM     16  N   UNL     1       3.845   4.293  19.599  0.00  0.00    +0.000 NA
ATOM     17  C   UNL     1       2.966   3.627  20.367  0.00  0.00    +0.000 A 
ATOM     18  C   UNL     1       1.833   4.260  20.861  0.00  0.00    +0.000 A 
ATOM     19  N   UNL     1       1.530   5.558  20.607  0.00  0.00    +0.000 NA
BRANCH  17  20
ATOM     20  N   UNL     1       3.281   2.310  20.686  0.00  0.00    +0.000 N 
ATOM     21  H   UNL     1       2.494   1.733  20.394  0.00  0.00    +0.000 HD
ATOM     22  H   UNL     1       3.490   2.194  21.671  0.00  0.00    +0.000 HD
ENDBRANCH  17  20
ENDBRANCH  10  14
ENDBRANCH   6   7
BRANCH   1  23
ATOM     23  S   UNL     1      -1.863  11.626  19.011  0.00  0.00    +0.000 S 
ATOM     24  O   UNL     1      -1.576  10.227  19.190  0.00  0.00    +0.000 OA
ATOM     25  O   UNL     1      -2.777  12.040  17.968  0.00  0.00    +0.000 OA
BRANCH  23  26
ATOM     26  N   UNL     1      -2.460  12.282  20.468  0.00  0.00    +0.000 NA
ATOM     27  H   UNL     1      -2.790  13.236  20.319  0.00  0.00    +0.000 HD
BRANCH  26  34
ATOM     28  C   UNL     1      -3.575  15.334  24.223  0.00  0.00    +0.000 C 
ATOM     29  N   UNL     1      -2.775  14.219  23.697  0.00  0.00    +0.000 NA
ATOM     30  C   UNL     1      -1.771  14.614  22.670  0.00  0.00    +0.000 C 
ATOM     31  C   UNL     1      -0.715  15.536  23.357  0.00  0.00    +0.000 C 
ATOM     32  C   UNL     1      -2.342  15.433  21.492  0.00  0.00    +0.000 C 
ATOM     33  C   UNL     1      -0.961  13.393  22.120  0.00  0.00    +0.000 C 
ATOM     34  C   UNL     1      -1.768  12.129  21.779  0.00  0.00    +0.000 C 
ATOM     35  C   UNL     1      -2.654  11.839  22.981  0.00  0.00    +0.000 C 
ATOM     36  C   UNL     1      -3.581  12.994  23.429  0.00  0.00    +0.000 C 
ATOM     37  C   UNL     1      -4.230  12.497  24.753  0.00  0.00    +0.000 C 
ATOM     38  C   UNL     1      -4.749  13.200  22.441  0.00  0.00    +0.000 C 
ENDBRANCH  26  34
ENDBRANCH  23  26
ENDBRANCH   1  23
TORSDOF 6
ENDMDL
MODEL 7
REMARK VINA RESULT:      -7.9      2.175      2.821
REMARK  Name = 
REMARK  11 active torsions:
REMARK  status: ('A' for Active; 'I' for Inactive)
REMARK    1  A    between atoms: C_1  and  N_2
REMARK    2  A    between atoms: C_3  and  C_4
REMARK    3  A    between atoms: C_3  and  C_5
REMARK    4  A    between atoms: C_7  and  N_8
REMARK    5  A    between atoms: N_8  and  S_9
REMARK    6  A    between atoms: S_9  and  C_12
REMARK    7  A    between atoms: C_17  and  C_18
REMARK    8  A    between atoms: C_21  and  C_22
REMARK    9  A    between atoms: C_25  and  N_26
REMARK   10  A    between atoms: C_33  and  C_34
REMARK   11  A    between atoms: C_33  and  C_35
REMARK                            x       y       z     vdW  Elec       q    Type
REMARK                         _______ _______ _______ _____ _____    ______ ____
ROOT
ATOM      1  C   UNL     1      -0.008  11.364  20.834  0.00  0.00    +0.000 A 
ATOM      2  C   UNL     1      -0.757  12.179  21.719  0.00  0.00    +0.000 A 
ATOM      3  C   UNL     1      -1.276  11.678  22.908  0.00  0.00    +0.000 A 
ATOM      4  C   UNL     1      -1.053  10.355  23.237  0.00  0.00    +0.000 A 
ATOM      5  C   UNL     1      -0.300   9.545  22.381  0.00  0.00    +0.000 A 
ATOM      6  C   UNL     1       0.243  10.001  21.147  0.00  0.00    +0.000 A 
ENDROOT
BRANCH   6   7
ATOM      7  C   UNL     1       1.011   8.992  20.354  0.00  0.00    +0.000 A 
ATOM      8  C   UNL     1       1.435   7.779  20.936  0.00  0.00    +0.000 A 
ATOM      9  C   UNL     1       2.225   6.846  20.241  0.00  0.00    +0.000 A 
ATOM     10  C   UNL     1       2.602   7.050  18.905  0.00  0.00    +0.000 A 
ATOM     11  C   UNL     1       2.181   8.253  18.332  0.00  0.00    +0.000 A 
ATOM     12  F   UNL     1       2.479   8.540  17.055  0.00  0.00    +0.000 F 
ATOM     13  C   UNL     1       1.440   9.210  19.042  0.00  0.00    +0.000 A 
BRANCH  10  14
ATOM     14  C   UNL     1       3.378   6.028  18.179  0.00  0.00    +0.000 A 
ATOM     15  C   UNL     1       2.885   4.781  17.792  0.00  0.00    +0.000 A 
ATOM     16  N   UNL     1       3.609   3.856  17.102  0.00  0.00    +0.000 NA
ATOM     17  C   UNL     1       4.873   4.203  16.804  0.00  0.00    +0.000 A 
ATOM     18  C   UNL     1       5.376   5.442  17.179  0.00  0.00    +0.000 A 
ATOM     19  N   UNL     1       4.655   6.368  17.861  0.00  0.00    +0.000 NA
BRANCH  17  20
ATOM     20  N   UNL     1       5.616   3.292  16.060  0.00  0.00    +0.000 N 
ATOM     21  H   UNL     1       5.732   2.458  16.632  0.00  0.00    +0.000 HD
ATOM     22  H   UNL     1       6.507   3.676  15.765  0.00  0.00    +0.000 HD
ENDBRANCH  17  20
ENDBRANCH  10  14
ENDBRANCH   6   7
BRANCH   1  23
ATOM     23  S   UNL     1       0.343  12.154  19.257  0.00  0.00    +0.000 S 
ATOM     24  O   UNL     1      -0.536  11.559  18.283  0.00  0.00    +0.000 OA
ATOM     25  O   UNL     1       1.773  12.131  19.036  0.00  0.00    +0.000 OA
BRANCH  23  26
ATOM     26  N   UNL     1      -0.085  13.786  19.498  0.00  0.00    +0.000 NA
ATOM     27  H   UNL     1      -1.100  13.889  19.507  0.00  0.00    +0.000 HD
BRANCH  26  34
ATOM     28  C   UNL     1       0.499  18.126  21.842  0.00  0.00    +0.000 C 
ATOM     29  N   UNL     1       0.668  17.312  20.629  0.00  0.00    +0.000 NA
ATOM     30  C   UNL     1      -0.603  16.998  19.917  0.00  0.00    +0.000 C 
ATOM     31  C   UNL     1      -1.201  18.338  19.384  0.00  0.00    +0.000 C 
ATOM     32  C   UNL     1      -1.700  16.370  20.804  0.00  0.00    +0.000 C 
ATOM     33  C   UNL     1      -0.378  16.110  18.648  0.00  0.00    +0.000 C 
ATOM     34  C   UNL     1       0.586  14.921  18.803  0.00  0.00    +0.000 C 
ATOM     35  C   UNL     1       1.848  15.463  19.454  0.00  0.00    +0.000 C 
ATOM     36  C   UNL     1       1.648  16.202  20.799  0.00  0.00    +0.000 C 
ATOM     37  C   UNL     1       3.047  16.790  21.146  0.00  0.00    +0.000 C 
ATOM     38  C   UNL     1       1.311  15.220  21.942  0.00  0.00    +0.000 C 
ENDBRANCH  26  34
ENDBRANCH  23  26
ENDBRANCH   1  23
TORSDOF 6
ENDMDL
MODEL 8
REMARK VINA RESULT:      -7.8      2.851      4.640
REMARK  Name = 
REMARK  11 active torsions:
REMARK  status: ('A' for Active; 'I' for Inactive)
REMARK    1  A    between atoms: C_1  and  N_2
REMARK    2  A    between atoms: C_3  and  C_4
REMARK    3  A    between atoms: C_3  and  C_5
REMARK    4  A    between atoms: C_7  and  N_8
REMARK    5  A    between atoms: N_8  and  S_9
REMARK    6  A    between atoms: S_9  and  C_12
REMARK    7  A    between atoms: C_17  and  C_18
REMARK    8  A    between atoms: C_21  and  C_22
REMARK    9  A    between atoms: C_25  and  N_26
REMARK   10  A    between atoms: C_33  and  C_34
REMARK   11  A    between atoms: C_33  and  C_35
REMARK                            x       y       z     vdW  Elec       q    Type
REMARK                         _______ _______ _______ _____ _____    ______ ____
ROOT
ATOM      1  C   UNL     1      -0.122  12.406  18.766  0.00  0.00    +0.000 A 
ATOM      2  C   UNL     1      -0.277  13.814  18.722  0.00  0.00    +0.000 A 
ATOM      3  C   UNL     1       0.820  14.669  18.758  0.00  0.00    +0.000 A 
ATOM      4  C   UNL     1       2.091  14.133  18.836  0.00  0.00    +0.000 A 
ATOM      5  C   UNL     1       2.258  12.745  18.863  0.00  0.00    +0.000 A 
ATOM      6  C   UNL     1       1.172  11.825  18.841  0.00  0.00    +0.000 A 
ENDROOT
BRANCH   6   7
ATOM      7  C   UNL     1       1.538  10.375  18.888  0.00  0.00    +0.000 A 
ATOM      8  C   UNL     1       2.040   9.715  17.747  0.00  0.00    +0.000 A 
ATOM      9  C   UNL     1       2.319   8.337  17.738  0.00  0.00    +0.000 A 
ATOM     10  C   UNL     1       2.156   7.543  18.883  0.00  0.00    +0.000 A 
ATOM     11  C   UNL     1       1.657   8.201  20.011  0.00  0.00    +0.000 A 
ATOM     12  F   UNL     1       1.474   7.535  21.162  0.00  0.00    +0.000 F 
ATOM     13  C   UNL     1       1.326   9.565  20.006  0.00  0.00    +0.000 A 
BRANCH  10  14
ATOM     14  C   UNL     1       2.514   6.113  18.864  0.00  0.00    +0.000 A 
ATOM     15  C   UNL     1       3.502   5.531  19.659  0.00  0.00    +0.000 A 
ATOM     16  N   UNL     1       3.806   4.203  19.646  0.00  0.00    +0.000 NA
ATOM     17  C   UNL     1       3.093   3.446  18.795  0.00  0.00    +0.000 A 
ATOM     18  C   UNL     1       2.104   4.011  18.001  0.00  0.00    +0.000 A 
ATOM     19  N   UNL     1       1.794   5.332  18.017  0.00  0.00    +0.000 NA
BRANCH  17  20
ATOM     20  N   UNL     1       3.355   2.080  18.798  0.00  0.00    +0.000 N 
ATOM     21  H   UNL     1       2.486   1.605  18.560  0.00  0.00    +0.000 HD
ATOM     22  H   UNL     1       3.728   1.763  19.687  0.00  0.00    +0.000 HD
ENDBRANCH  17  20
ENDBRANCH  10  14
ENDBRANCH   6   7
BRANCH   1  23
ATOM     23  S   UNL     1      -1.676  11.521  18.958  0.00  0.00    +0.000 S 
ATOM     24  O   UNL     1      -1.354  10.122  19.070  0.00  0.00    +0.000 OA
ATOM     25  O   UNL     1      -2.590  11.963  17.927  0.00  0.00    +0.000 OA
BRANCH  23  26
ATOM     26  N   UNL     1      -2.303  12.088  20.438  0.00  0.00    +0.000 NA
ATOM     27  H   UNL     1      -2.410  11.317  21.098  0.00  0.00    +0.000 HD
BRANCH  26  34
ATOM     28  C   UNL     1      -2.913  14.768  24.575  0.00  0.00    +0.000 C 
ATOM     29  N   UNL     1      -3.373  14.402  23.227  0.00  0.00    +0.000 NA
ATOM     30  C   UNL     1      -3.939  13.028  23.123  0.00  0.00    +0.000 C 
ATOM     31  C   UNL     1      -5.239  12.974  23.985  0.00  0.00    +0.000 C 
ATOM     32  C   UNL     1      -3.023  11.911  23.670  0.00  0.00    +0.000 C 
ATOM     33  C   UNL     1      -4.391  12.673  21.667  0.00  0.00    +0.000 C 
ATOM     34  C   UNL     1      -3.427  13.062  20.533  0.00  0.00    +0.000 C 
ATOM     35  C   UNL     1      -3.045  14.516  20.763  0.00  0.00    +0.000 C 
ATOM     36  C   UNL     1      -2.441  14.842  22.150  0.00  0.00    +0.000 C 
ATOM     37  C   UNL     1      -2.309  16.393  22.175  0.00  0.00    +0.000 C 
ATOM     38  C   UNL     1      -1.004  14.297  22.285  0.00  0.00    +0.000 C 
ENDBRANCH  26  34
ENDBRANCH  23  26
ENDBRANCH   1  23
TORSDOF 6
ENDMDL
MODEL 9
REMARK VINA RESULT:      -7.8      1.379      2.542
REMARK  Name = 
REMARK  11 active torsions:
REMARK  status: ('A' for Active; 'I' for Inactive)
REMARK    1  A    between atoms: C_1  and  N_2
REMARK    2  A    between atoms: C_3  and  C_4
REMARK    3  A    between atoms: C_3  and  C_5
REMARK    4  A    between atoms: C_7  and  N_8
REMARK    5  A    between atoms: N_8  and  S_9
REMARK    6  A    between atoms: S_9  and  C_12
REMARK    7  A    between atoms: C_17  and  C_18
REMARK    8  A    between atoms: C_21  and  C_22
REMARK    9  A    between atoms: C_25  and  N_26
REMARK   10  A    between atoms: C_33  and  C_34
REMARK   11  A    between atoms: C_33  and  C_35
REMARK                            x       y       z     vdW  Elec       q    Type
REMARK                         _______ _______ _______ _____ _____    ______ ____
ROOT
ATOM      1  C   UNL     1      -0.975  11.439  20.209  0.00  0.00    +0.000 A 
ATOM      2  C   UNL     1      -2.130  12.258  20.150  0.00  0.00    +0.000 A 
ATOM      3  C   UNL     1      -3.051  12.145  19.112  0.00  0.00    +0.000 A 
ATOM      4  C   UNL     1      -2.836  11.210  18.118  0.00  0.00    +0.000 A 
ATOM      5  C   UNL     1      -1.709  10.384  18.175  0.00  0.00    +0.000 A 
ATOM      6  C   UNL     1      -0.730  10.465  19.205  0.00  0.00    +0.000 A 
ENDROOT
BRANCH   6   7
ATOM      7  C   UNL     1       0.416   9.509  19.098  0.00  0.00    +0.000 A 
ATOM      8  C   UNL     1       1.184   9.423  17.918  0.00  0.00    +0.000 A 
ATOM      9  C   UNL     1       2.217   8.482  17.759  0.00  0.00    +0.000 A 
ATOM     10  C   UNL     1       2.574   7.598  18.788  0.00  0.00    +0.000 A 
ATOM     11  C   UNL     1       1.810   7.686  19.956  0.00  0.00    +0.000 A 
ATOM     12  F   UNL     1       2.077   6.892  21.005  0.00  0.00    +0.000 F 
ATOM     13  C   UNL     1       0.744   8.587  20.096  0.00  0.00    +0.000 A 
BRANCH  10  14
ATOM     14  C   UNL     1       3.701   6.663  18.619  0.00  0.00    +0.000 A 
ATOM     15  C   UNL     1       3.919   5.531  19.405  0.00  0.00    +0.000 A 
ATOM     16  N   UNL     1       4.954   4.663  19.222  0.00  0.00    +0.000 NA
ATOM     17  C   UNL     1       5.796   4.958  18.216  0.00  0.00    +0.000 A 
ATOM     18  C   UNL     1       5.588   6.079  17.423  0.00  0.00    +0.000 A 
ATOM     19  N   UNL     1       4.555   6.941  17.599  0.00  0.00    +0.000 NA
BRANCH  17  20
ATOM     20  N   UNL     1       6.833   4.062  17.981  0.00  0.00    +0.000 N 
ATOM     21  H   UNL     1       6.873   3.431  18.779  0.00  0.00    +0.000 HD
ATOM     22  H   UNL     1       7.718   4.533  17.826  0.00  0.00    +0.000 HD
ENDBRANCH  17  20
ENDBRANCH  10  14
ENDBRANCH   6   7
BRANCH   1  23
ATOM     23  S   UNL     1       0.186  11.931  21.491  0.00  0.00    +0.000 S 
ATOM     24  O   UNL     1       1.497  11.934  20.895  0.00  0.00    +0.000 OA
ATOM     25  O   UNL     1      -0.060  11.129  22.670  0.00  0.00    +0.000 OA
BRANCH  23  26
ATOM     26  N   UNL     1      -0.272  13.525  21.885  0.00  0.00    +0.000 NA
ATOM     27  H   UNL     1      -1.064  13.818  21.314  0.00  0.00    +0.000 HD
BRANCH  26  34
ATOM     28  C   UNL     1      -0.765  17.773  19.360  0.00  0.00    +0.000 C 
ATOM     29  N   UNL     1      -0.014  16.957  20.325  0.00  0.00    +0.000 NA
ATOM     30  C   UNL     1       0.699  15.795  19.724  0.00  0.00    +0.000 C 
ATOM     31  C   UNL     1       1.802  16.348  18.768  0.00  0.00    +0.000 C 
ATOM     32  C   UNL     1      -0.188  14.874  18.858  0.00  0.00    +0.000 C 
ATOM     33  C   UNL     1       1.462  14.942  20.791  0.00  0.00    +0.000 C 
ATOM     34  C   UNL     1       0.706  14.631  22.093  0.00  0.00    +0.000 C 
ATOM     35  C   UNL     1       0.139  15.950  22.595  0.00  0.00    +0.000 C 
ATOM     36  C   UNL     1      -0.756  16.721  21.596  0.00  0.00    +0.000 C 
ATOM     37  C   UNL     1      -1.049  18.084  22.290  0.00  0.00    +0.000 C 
ATOM     38  C   UNL     1      -2.129  16.038  21.419  0.00  0.00    +0.000 C 
ENDBRANCH  26  34
ENDBRANCH  23  26
ENDBRANCH   1  23
TORSDOF 6
ENDMDL
