MODEL 1
REMARK VINA RESULT:      -7.8      0.000      0.000
REMARK  Name = 
REMARK  9 active torsions:
REMARK  status: ('A' for Active; 'I' for Inactive)
REMARK    1  A    between atoms: C_1  and  O_2
REMARK    2  A    between atoms: O_2  and  C_3
REMARK    3  A    between atoms: C_6  and  N_7
REMARK    4  A    between atoms: N_7  and  C_8
REMARK    5  A    between atoms: C_8  and  C_9
REMARK    6  A    between atoms: C_12  and  S_13
REMARK    7  A    between atoms: S_13  and  C_14
REMARK    8  A    between atoms: C_14  and  C_15
REMARK    9  A    between atoms: N_17  and  C_18
REMARK                            x       y       z     vdW  Elec       q    Type
REMARK                         _______ _______ _______ _____ _____    ______ ____
ROOT
ATOM      1  C   UNL     1       7.624   7.495  17.654  0.00  0.00    +0.000 A 
ATOM      2  N   UNL     1       7.960   6.422  18.339  0.00  0.00    +0.000 NA
ATOM      3  N   UNL     1       7.557   5.340  17.584  0.00  0.00    +0.000 NA
ATOM      4  C   UNL     1       7.015   5.821  16.484  0.00  0.00    +0.000 A 
ATOM      5  O   UNL     1       7.036   7.194  16.449  0.00  0.00    +0.000 OA
ENDROOT
BRANCH   1   6
ATOM      6  C   UNL     1       7.821   8.938  18.009  0.00  0.00    +0.000 C 
BRANCH   6   7
ATOM      7  N   UNL     1       8.918   9.171  18.956  0.00  0.00    +0.000 N 
ATOM      8  H   UNL     1       8.720   8.724  19.850  0.00  0.00    +0.000 HD
BRANCH   7  12
ATOM      9  C   UNL     1      10.182  13.188  19.359  0.00  0.00    +0.000 A 
ATOM     10  C   UNL     1      10.092  12.579  18.112  0.00  0.00    +0.000 A 
ATOM     11  C   UNL     1       9.687  11.243  18.004  0.00  0.00    +0.000 A 
ATOM     12  C   UNL     1       9.413  10.468  19.140  0.00  0.00    +0.000 A 
ATOM     13  C   UNL     1       9.511  11.093  20.386  0.00  0.00    +0.000 A 
ATOM     14  C   UNL     1       9.900  12.438  20.499  0.00  0.00    +0.000 A 
BRANCH   9  16
ATOM     15  C   UNL     1      11.598  14.847  20.266  0.00  0.00    +0.000 C 
ATOM     16  O   UNL     1      10.571  14.499  19.344  0.00  0.00    +0.000 OA
ENDBRANCH   9  16
ENDBRANCH   7  12
ENDBRANCH   6   7
ENDBRANCH   1   6
BRANCH   4  17
ATOM     17  S   UNL     1       6.258   4.826  15.281  0.00  0.00    +0.000 S 
BRANCH  17  18
ATOM     18  C   UNL     1       5.741   3.412  16.287  0.00  0.00    +0.000 C 
BRANCH  18  19
ATOM     19  C   UNL     1       4.569   3.796  17.184  0.00  0.00    +0.000 C 
ATOM     20  O   UNL     1       3.989   4.866  17.011  0.00  0.00    +0.000 OA
ATOM     21  N   UNL     1       4.237   2.832  18.128  0.00  0.00    +0.000 N 
ATOM     22  H   UNL     1       4.900   2.076  18.253  0.00  0.00    +0.000 HD
BRANCH  21  23
ATOM     23  C   UNL     1       3.179   2.893  19.064  0.00  0.00    +0.000 A 
ATOM     24  C   UNL     1       3.370   3.069  20.435  0.00  0.00    +0.000 A 
ATOM     25  C   UNL     1       2.282   3.094  21.313  0.00  0.00    +0.000 A 
ATOM     26  C   UNL     1       0.986   2.943  20.828  0.00  0.00    +0.000 A 
ATOM     27  C   UNL     1       0.779   2.786  19.459  0.00  0.00    +0.000 A 
ATOM     28  C   UNL     1       1.868   2.770  18.581  0.00  0.00    +0.000 A 
ENDBRANCH  21  23
ENDBRANCH  18  19
ENDBRANCH  17  18
ENDBRANCH   4  17
TORSDOF 8
ENDMDL
MODEL 2
REMARK VINA RESULT:      -7.8      2.724      2.933
REMARK  Name = 
REMARK  9 active torsions:
REMARK  status: ('A' for Active; 'I' for Inactive)
REMARK    1  A    between atoms: C_1  and  O_2
REMARK    2  A    between atoms: O_2  and  C_3
REMARK    3  A    between atoms: C_6  and  N_7
REMARK    4  A    between atoms: N_7  and  C_8
REMARK    5  A    between atoms: C_8  and  C_9
REMARK    6  A    between atoms: C_12  and  S_13
REMARK    7  A    between atoms: S_13  and  C_14
REMARK    8  A    between atoms: C_14  and  C_15
REMARK    9  A    between atoms: N_17  and  C_18
REMARK                            x       y       z     vdW  Elec       q    Type
REMARK                         _______ _______ _______ _____ _____    ______ ____
ROOT
ATOM      1  C   UNL     1       7.526   7.185  17.772  0.00  0.00    +0.000 A 
ATOM      2  N   UNL     1       7.650   6.256  18.697  0.00  0.00    +0.000 NA
ATOM      3  N   UNL     1       6.940   5.163  18.243  0.00  0.00    +0.000 NA
ATOM      4  C   UNL     1       6.441   5.491  17.069  0.00  0.00    +0.000 A 
ATOM      5  O   UNL     1       6.787   6.765  16.693  0.00  0.00    +0.000 OA
ENDROOT
BRANCH   1   6
ATOM      6  C   UNL     1       8.090   8.573  17.752  0.00  0.00    +0.000 C 
BRANCH   6   7
ATOM      7  N   UNL     1       8.835   8.928  18.966  0.00  0.00    +0.000 N 
ATOM      8  H   UNL     1       8.375   8.549  19.792  0.00  0.00    +0.000 HD
BRANCH   7  12
ATOM      9  C   UNL     1       9.768  13.020  19.498  0.00  0.00    +0.000 A 
ATOM     10  C   UNL     1       9.505  12.495  18.237  0.00  0.00    +0.000 A 
ATOM     11  C   UNL     1       9.214  11.134  18.083  0.00  0.00    +0.000 A 
ATOM     12  C   UNL     1       9.231  10.254  19.175  0.00  0.00    +0.000 A 
ATOM     13  C   UNL     1       9.500  10.796  20.435  0.00  0.00    +0.000 A 
ATOM     14  C   UNL     1       9.776  12.164  20.598  0.00  0.00    +0.000 A 
BRANCH   9  16
ATOM     15  C   UNL     1      11.035  14.774  20.443  0.00  0.00    +0.000 C 
ATOM     16  O   UNL     1      10.022  14.363  19.532  0.00  0.00    +0.000 OA
ENDBRANCH   9  16
ENDBRANCH   7  12
ENDBRANCH   6   7
ENDBRANCH   1   6
BRANCH   4  17
ATOM     17  S   UNL     1       5.374   4.462  16.167  0.00  0.00    +0.000 S 
BRANCH  17  18
ATOM     18  C   UNL     1       4.300   3.847  17.489  0.00  0.00    +0.000 C 
BRANCH  18  19
ATOM     19  C   UNL     1       3.162   4.827  17.751  0.00  0.00    +0.000 C 
ATOM     20  O   UNL     1       1.999   4.482  17.558  0.00  0.00    +0.000 OA
ATOM     21  N   UNL     1       3.576   6.060  18.243  0.00  0.00    +0.000 N 
ATOM     22  H   UNL     1       4.570   6.251  18.201  0.00  0.00    +0.000 HD
BRANCH  21  23
ATOM     23  C   UNL     1       2.748   7.145  18.611  0.00  0.00    +0.000 A 
ATOM     24  C   UNL     1       2.404   8.182  17.743  0.00  0.00    +0.000 A 
ATOM     25  C   UNL     1       1.603   9.244  18.177  0.00  0.00    +0.000 A 
ATOM     26  C   UNL     1       1.135   9.279  19.487  0.00  0.00    +0.000 A 
ATOM     27  C   UNL     1       1.456   8.240  20.359  0.00  0.00    +0.000 A 
ATOM     28  C   UNL     1       2.250   7.175  19.921  0.00  0.00    +0.000 A 
ENDBRANCH  21  23
ENDBRANCH  18  19
ENDBRANCH  17  18
ENDBRANCH   4  17
TORSDOF 8
ENDMDL
MODEL 3
REMARK VINA RESULT:      -7.7      5.035      7.615
REMARK  Name = 
REMARK  9 active torsions:
REMARK  status: ('A' for Active; 'I' for Inactive)
REMARK    1  A    between atoms: C_1  and  O_2
REMARK    2  A    between atoms: O_2  and  C_3
REMARK    3  A    between atoms: C_6  and  N_7
REMARK    4  A    between atoms: N_7  and  C_8
REMARK    5  A    between atoms: C_8  and  C_9
REMARK    6  A    between atoms: C_12  and  S_13
REMARK    7  A    between atoms: S_13  and  C_14
REMARK    8  A    between atoms: C_14  and  C_15
REMARK    9  A    between atoms: N_17  and  C_18
REMARK                            x       y       z     vdW  Elec       q    Type
REMARK                         _______ _______ _______ _____ _____    ______ ____
ROOT
ATOM      1  C   UNL     1       5.973   5.455  18.132  0.00  0.00    +0.000 A 
ATOM      2  N   UNL     1       6.522   5.351  19.325  0.00  0.00    +0.000 NA
ATOM      3  N   UNL     1       5.833   4.352  19.980  0.00  0.00    +0.000 NA
ATOM      4  C   UNL     1       4.919   3.904  19.144  0.00  0.00    +0.000 A 
ATOM      5  O   UNL     1       4.958   4.551  17.934  0.00  0.00    +0.000 OA
ENDROOT
BRANCH   1   6
ATOM      6  C   UNL     1       6.325   6.387  17.013  0.00  0.00    +0.000 C 
BRANCH   6   7
ATOM      7  N   UNL     1       7.221   5.797  16.010  0.00  0.00    +0.000 N 
ATOM      8  H   UNL     1       7.923   6.475  15.716  0.00  0.00    +0.000 HD
BRANCH   7  12
ATOM      9  C   UNL     1       5.821   3.568  12.699  0.00  0.00    +0.000 A 
ATOM     10  C   UNL     1       7.034   4.247  12.654  0.00  0.00    +0.000 A 
ATOM     11  C   UNL     1       7.470   4.992  13.756  0.00  0.00    +0.000 A 
ATOM     12  C   UNL     1       6.683   5.120  14.910  0.00  0.00    +0.000 A 
ATOM     13  C   UNL     1       5.465   4.434  14.939  0.00  0.00    +0.000 A 
ATOM     14  C   UNL     1       5.031   3.671  13.842  0.00  0.00    +0.000 A 
BRANCH   9  16
ATOM     15  C   UNL     1       4.175   3.028  11.094  0.00  0.00    +0.000 C 
ATOM     16  O   UNL     1       5.505   2.859  11.573  0.00  0.00    +0.000 OA
ENDBRANCH   9  16
ENDBRANCH   7  12
ENDBRANCH   6   7
ENDBRANCH   1   6
BRANCH   4  17
ATOM     17  S   UNL     1       3.733   2.714  19.577  0.00  0.00    +0.000 S 
BRANCH  17  18
ATOM     18  C   UNL     1       2.891   3.556  20.942  0.00  0.00    +0.000 C 
BRANCH  18  19
ATOM     19  C   UNL     1       2.058   4.720  20.417  0.00  0.00    +0.000 C 
ATOM     20  O   UNL     1       0.841   4.599  20.299  0.00  0.00    +0.000 OA
ATOM     21  N   UNL     1       2.794   5.869  20.149  0.00  0.00    +0.000 N 
ATOM     22  H   UNL     1       3.802   5.768  20.146  0.00  0.00    +0.000 HD
BRANCH  21  23
ATOM     23  C   UNL     1       2.290   7.108  19.692  0.00  0.00    +0.000 A 
ATOM     24  C   UNL     1       1.573   7.993  20.498  0.00  0.00    +0.000 A 
ATOM     25  C   UNL     1       1.077   9.194  19.978  0.00  0.00    +0.000 A 
ATOM     26  C   UNL     1       1.294   9.523  18.643  0.00  0.00    +0.000 A 
ATOM     27  C   UNL     1       2.026   8.657  17.833  0.00  0.00    +0.000 A 
ATOM     28  C   UNL     1       2.529   7.461  18.356  0.00  0.00    +0.000 A 
ENDBRANCH  21  23
ENDBRANCH  18  19
ENDBRANCH  17  18
ENDBRANCH   4  17
TORSDOF 8
ENDMDL
MODEL 4
REMARK VINA RESULT:      -7.7      1.231      1.341
REMARK  Name = 
REMARK  9 active torsions:
REMARK  status: ('A' for Active; 'I' for Inactive)
REMARK    1  A    between atoms: C_1  and  O_2
REMARK    2  A    between atoms: O_2  and  C_3
REMARK    3  A    between atoms: C_6  and  N_7
REMARK    4  A    between atoms: N_7  and  C_8
REMARK    5  A    between atoms: C_8  and  C_9
REMARK    6  A    between atoms: C_12  and  S_13
REMARK    7  A    between atoms: S_13  and  C_14
REMARK    8  A    between atoms: C_14  and  C_15
REMARK    9  A    between atoms: N_17  and  C_18
REMARK                            x       y       z     vdW  Elec       q    Type
REMARK                         _______ _______ _______ _____ _____    ______ ____
ROOT
ATOM      1  C   UNL     1       7.872   8.008  17.901  0.00  0.00    +0.000 A 
ATOM      2  N   UNL     1       8.061   6.887  18.566  0.00  0.00    +0.000 NA
ATOM      3  N   UNL     1       7.391   5.905  17.865  0.00  0.00    +0.000 NA
ATOM      4  C   UNL     1       6.850   6.486  16.814  0.00  0.00    +0.000 A 
ATOM      5  O   UNL     1       7.128   7.830  16.760  0.00  0.00    +0.000 OA
ENDROOT
BRANCH   1   6
ATOM      6  C   UNL     1       8.370   9.385  18.219  0.00  0.00    +0.000 C 
BRANCH   6   7
ATOM      7  N   UNL     1       9.324   9.428  19.334  0.00  0.00    +0.000 N 
ATOM      8  H   UNL     1       9.035   8.792  20.076  0.00  0.00    +0.000 HD
BRANCH   7  12
ATOM      9  C   UNL     1      10.445  13.284  20.665  0.00  0.00    +0.000 A 
ATOM     10  C   UNL     1      11.042  12.700  19.553  0.00  0.00    +0.000 A 
ATOM     11  C   UNL     1      10.666  11.416  19.140  0.00  0.00    +0.000 A 
ATOM     12  C   UNL     1       9.725  10.663  19.857  0.00  0.00    +0.000 A 
ATOM     13  C   UNL     1       9.136  11.263  20.974  0.00  0.00    +0.000 A 
ATOM     14  C   UNL     1       9.497  12.557  21.383  0.00  0.00    +0.000 A 
BRANCH   9  16
ATOM     15  C   UNL     1      10.234  15.601  20.258  0.00  0.00    +0.000 C 
ATOM     16  O   UNL     1      10.877  14.546  20.966  0.00  0.00    +0.000 OA
ENDBRANCH   9  16
ENDBRANCH   7  12
ENDBRANCH   6   7
ENDBRANCH   1   6
BRANCH   4  17
ATOM     17  S   UNL     1       5.810   5.659  15.699  0.00  0.00    +0.000 S 
BRANCH  17  18
ATOM     18  C   UNL     1       5.811   3.993  16.407  0.00  0.00    +0.000 C 
BRANCH  18  19
ATOM     19  C   UNL     1       4.559   3.771  17.249  0.00  0.00    +0.000 C 
ATOM     20  O   UNL     1       3.535   3.340  16.724  0.00  0.00    +0.000 OA
ATOM     21  N   UNL     1       4.726   4.057  18.599  0.00  0.00    +0.000 N 
ATOM     22  H   UNL     1       5.574   4.549  18.855  0.00  0.00    +0.000 HD
BRANCH  21  23
ATOM     23  C   UNL     1       3.759   3.911  19.620  0.00  0.00    +0.000 A 
ATOM     24  C   UNL     1       2.930   4.948  20.051  0.00  0.00    +0.000 A 
ATOM     25  C   UNL     1       2.011   4.746  21.087  0.00  0.00    +0.000 A 
ATOM     26  C   UNL     1       1.911   3.503  21.704  0.00  0.00    +0.000 A 
ATOM     27  C   UNL     1       2.720   2.454  21.270  0.00  0.00    +0.000 A 
ATOM     28  C   UNL     1       3.632   2.655  20.228  0.00  0.00    +0.000 A 
ENDBRANCH  21  23
ENDBRANCH  18  19
ENDBRANCH  17  18
ENDBRANCH   4  17
TORSDOF 8
ENDMDL
MODEL 5
REMARK VINA RESULT:      -7.6      1.125      1.492
REMARK  Name = 
REMARK  9 active torsions:
REMARK  status: ('A' for Active; 'I' for Inactive)
REMARK    1  A    between atoms: C_1  and  O_2
REMARK    2  A    between atoms: O_2  and  C_3
REMARK    3  A    between atoms: C_6  and  N_7
REMARK    4  A    between atoms: N_7  and  C_8
REMARK    5  A    between atoms: C_8  and  C_9
REMARK    6  A    between atoms: C_12  and  S_13
REMARK    7  A    between atoms: S_13  and  C_14
REMARK    8  A    between atoms: C_14  and  C_15
REMARK    9  A    between atoms: N_17  and  C_18
REMARK                            x       y       z     vdW  Elec       q    Type
REMARK                         _______ _______ _______ _____ _____    ______ ____
ROOT
ATOM      1  C   UNL     1       7.748   7.605  17.853  0.00  0.00    +0.000 A 
ATOM      2  N   UNL     1       8.051   6.759  18.816  0.00  0.00    +0.000 NA
ATOM      3  N   UNL     1       7.736   5.503  18.339  0.00  0.00    +0.000 NA
ATOM      4  C   UNL     1       7.276   5.662  17.116  0.00  0.00    +0.000 A 
ATOM      5  O   UNL     1       7.269   6.979  16.728  0.00  0.00    +0.000 OA
ENDROOT
BRANCH   1   6
ATOM      6  C   UNL     1       7.881   9.097  17.835  0.00  0.00    +0.000 C 
BRANCH   6   7
ATOM      7  N   UNL     1       9.186   9.581  18.304  0.00  0.00    +0.000 N 
ATOM      8  H   UNL     1       9.680   8.846  18.809  0.00  0.00    +0.000 HD
BRANCH   7  12
ATOM      9  C   UNL     1       9.164  13.326  20.272  0.00  0.00    +0.000 A 
ATOM     10  C   UNL     1       9.019  13.232  18.892  0.00  0.00    +0.000 A 
ATOM     11  C   UNL     1       9.046  11.983  18.261  0.00  0.00    +0.000 A 
ATOM     12  C   UNL     1       9.270  10.802  18.983  0.00  0.00    +0.000 A 
ATOM     13  C   UNL     1       9.416  10.913  20.369  0.00  0.00    +0.000 A 
ATOM     14  C   UNL     1       9.373  12.162  21.010  0.00  0.00    +0.000 A 
BRANCH   9  16
ATOM     15  C   UNL     1       8.437  14.722  22.033  0.00  0.00    +0.000 C 
ATOM     16  O   UNL     1       9.105  14.593  20.782  0.00  0.00    +0.000 OA
ENDBRANCH   9  16
ENDBRANCH   7  12
ENDBRANCH   6   7
ENDBRANCH   1   6
BRANCH   4  17
ATOM     17  S   UNL     1       6.644   4.359  16.159  0.00  0.00    +0.000 S 
BRANCH  17  18
ATOM     18  C   UNL     1       4.941   4.920  15.906  0.00  0.00    +0.000 C 
BRANCH  18  19
ATOM     19  C   UNL     1       4.183   4.935  17.229  0.00  0.00    +0.000 C 
ATOM     20  O   UNL     1       4.083   5.981  17.866  0.00  0.00    +0.000 OA
ATOM     21  N   UNL     1       3.623   3.711  17.576  0.00  0.00    +0.000 N 
ATOM     22  H   UNL     1       3.921   2.909  17.034  0.00  0.00    +0.000 HD
BRANCH  21  23
ATOM     23  C   UNL     1       2.838   3.434  18.719  0.00  0.00    +0.000 A 
ATOM     24  C   UNL     1       1.445   3.517  18.736  0.00  0.00    +0.000 A 
ATOM     25  C   UNL     1       0.726   3.256  19.908  0.00  0.00    +0.000 A 
ATOM     26  C   UNL     1       1.395   2.908  21.077  0.00  0.00    +0.000 A 
ATOM     27  C   UNL     1       2.784   2.802  21.069  0.00  0.00    +0.000 A 
ATOM     28  C   UNL     1       3.501   3.054  19.894  0.00  0.00    +0.000 A 
ENDBRANCH  21  23
ENDBRANCH  18  19
ENDBRANCH  17  18
ENDBRANCH   4  17
TORSDOF 8
ENDMDL
MODEL 6
REMARK VINA RESULT:      -7.6      3.032      3.285
REMARK  Name = 
REMARK  9 active torsions:
REMARK  status: ('A' for Active; 'I' for Inactive)
REMARK    1  A    between atoms: C_1  and  O_2
REMARK    2  A    between atoms: O_2  and  C_3
REMARK    3  A    between atoms: C_6  and  N_7
REMARK    4  A    between atoms: N_7  and  C_8
REMARK    5  A    between atoms: C_8  and  C_9
REMARK    6  A    between atoms: C_12  and  S_13
REMARK    7  A    between atoms: S_13  and  C_14
REMARK    8  A    between atoms: C_14  and  C_15
REMARK    9  A    between atoms: N_17  and  C_18
REMARK                            x       y       z     vdW  Elec       q    Type
REMARK                         _______ _______ _______ _____ _____    ______ ____
ROOT
ATOM      1  C   UNL     1       7.437   6.271  18.565  0.00  0.00    +0.000 A 
ATOM      2  N   UNL     1       7.070   5.490  19.559  0.00  0.00    +0.000 NA
ATOM      3  N   UNL     1       6.169   4.589  19.029  0.00  0.00    +0.000 NA
ATOM      4  C   UNL     1       6.055   4.870  17.748  0.00  0.00    +0.000 A 
ATOM      5  O   UNL     1       6.850   5.925  17.372  0.00  0.00    +0.000 OA
ENDROOT
BRANCH   1   6
ATOM      6  C   UNL     1       8.393   7.424  18.579  0.00  0.00    +0.000 C 
BRANCH   6   7
ATOM      7  N   UNL     1       7.867   8.640  17.945  0.00  0.00    +0.000 N 
ATOM      8  H   UNL     1       7.802   8.517  16.935  0.00  0.00    +0.000 HD
BRANCH   7  12
ATOM      9  C   UNL     1       9.800  12.289  18.862  0.00  0.00    +0.000 A 
ATOM     10  C   UNL     1      10.026  11.141  19.613  0.00  0.00    +0.000 A 
ATOM     11  C   UNL     1       9.363   9.949  19.302  0.00  0.00    +0.000 A 
ATOM     12  C   UNL     1       8.419   9.885  18.266  0.00  0.00    +0.000 A 
ATOM     13  C   UNL     1       8.201  11.048  17.521  0.00  0.00    +0.000 A 
ATOM     14  C   UNL     1       8.876  12.243  17.819  0.00  0.00    +0.000 A 
BRANCH   9  16
ATOM     15  C   UNL     1      11.812  13.129  19.771  0.00  0.00    +0.000 C 
ATOM     16  O   UNL     1      10.514  13.390  19.245  0.00  0.00    +0.000 OA
ENDBRANCH   9  16
ENDBRANCH   7  12
ENDBRANCH   6   7
ENDBRANCH   1   6
BRANCH   4  17
ATOM     17  S   UNL     1       4.937   4.066  16.692  0.00  0.00    +0.000 S 
BRANCH  17  18
ATOM     18  C   UNL     1       3.620   3.636  17.858  0.00  0.00    +0.000 C 
BRANCH  18  19
ATOM     19  C   UNL     1       2.631   4.789  17.995  0.00  0.00    +0.000 C 
ATOM     20  O   UNL     1       1.469   4.646  17.623  0.00  0.00    +0.000 OA
ATOM     21  N   UNL     1       3.164   5.926  18.590  0.00  0.00    +0.000 N 
ATOM     22  H   UNL     1       4.171   5.948  18.699  0.00  0.00    +0.000 HD
BRANCH  21  23
ATOM     23  C   UNL     1       2.480   7.128  18.881  0.00  0.00    +0.000 A 
ATOM     24  C   UNL     1       1.966   7.438  20.141  0.00  0.00    +0.000 A 
ATOM     25  C   UNL     1       1.274   8.634  20.358  0.00  0.00    +0.000 A 
ATOM     26  C   UNL     1       1.088   9.536  19.315  0.00  0.00    +0.000 A 
ATOM     27  C   UNL     1       1.612   9.248  18.056  0.00  0.00    +0.000 A 
ATOM     28  C   UNL     1       2.312   8.055  17.843  0.00  0.00    +0.000 A 
ENDBRANCH  21  23
ENDBRANCH  18  19
ENDBRANCH  17  18
ENDBRANCH   4  17
TORSDOF 8
ENDMDL
MODEL 7
REMARK VINA RESULT:      -7.5      4.479      7.426
REMARK  Name = 
REMARK  9 active torsions:
REMARK  status: ('A' for Active; 'I' for Inactive)
REMARK    1  A    between atoms: C_1  and  O_2
REMARK    2  A    between atoms: O_2  and  C_3
REMARK    3  A    between atoms: C_6  and  N_7
REMARK    4  A    between atoms: N_7  and  C_8
REMARK    5  A    between atoms: C_8  and  C_9
REMARK    6  A    between atoms: C_12  and  S_13
REMARK    7  A    between atoms: S_13  and  C_14
REMARK    8  A    between atoms: C_14  and  C_15
REMARK    9  A    between atoms: N_17  and  C_18
REMARK                            x       y       z     vdW  Elec       q    Type
REMARK                         _______ _______ _______ _____ _____    ______ ____
ROOT
ATOM      1  C   UNL     1       1.826   4.569  20.521  0.00  0.00    +0.000 A 
ATOM      2  N   UNL     1       1.192   3.488  20.927  0.00  0.00    +0.000 NA
ATOM      3  N   UNL     1       1.713   2.439  20.196  0.00  0.00    +0.000 NA
ATOM      4  C   UNL     1       2.636   2.944  19.405  0.00  0.00    +0.000 A 
ATOM      5  O   UNL     1       2.778   4.301  19.568  0.00  0.00    +0.000 OA
ENDROOT
BRANCH   1   6
ATOM      6  C   UNL     1       1.653   5.986  20.975  0.00  0.00    +0.000 C 
BRANCH   6   7
ATOM      7  N   UNL     1       2.305   6.972  20.105  0.00  0.00    +0.000 N 
ATOM      8  H   UNL     1       3.267   7.132  20.404  0.00  0.00    +0.000 HD
BRANCH   7  12
ATOM      9  C   UNL     1       0.514  10.748  19.452  0.00  0.00    +0.000 A 
ATOM     10  C   UNL     1       0.366  10.076  20.660  0.00  0.00    +0.000 A 
ATOM     11  C   UNL     1       0.955   8.819  20.848  0.00  0.00    +0.000 A 
ATOM     12  C   UNL     1       1.660   8.180  19.818  0.00  0.00    +0.000 A 
ATOM     13  C   UNL     1       1.797   8.868  18.608  0.00  0.00    +0.000 A 
ATOM     14  C   UNL     1       1.223  10.136  18.420  0.00  0.00    +0.000 A 
BRANCH   9  16
ATOM     15  C   UNL     1       0.565  12.938  18.568  0.00  0.00    +0.000 C 
ATOM     16  O   UNL     1      -0.089  11.973  19.386  0.00  0.00    +0.000 OA
ENDBRANCH   9  16
ENDBRANCH   7  12
ENDBRANCH   6   7
ENDBRANCH   1   6
BRANCH   4  17
ATOM     17  S   UNL     1       3.486   2.011  18.215  0.00  0.00    +0.000 S 
BRANCH  17  18
ATOM     18  C   UNL     1       3.469   3.155  16.812  0.00  0.00    +0.000 C 
BRANCH  18  19
ATOM     19  C   UNL     1       4.775   3.939  16.747  0.00  0.00    +0.000 C 
ATOM     20  O   UNL     1       5.578   3.720  15.843  0.00  0.00    +0.000 OA
ATOM     21  N   UNL     1       4.914   4.894  17.747  0.00  0.00    +0.000 N 
ATOM     22  H   UNL     1       4.246   4.851  18.508  0.00  0.00    +0.000 HD
BRANCH  21  23
ATOM     23  C   UNL     1       5.994   5.791  17.917  0.00  0.00    +0.000 A 
ATOM     24  C   UNL     1       6.132   6.977  17.194  0.00  0.00    +0.000 A 
ATOM     25  C   UNL     1       7.240   7.809  17.389  0.00  0.00    +0.000 A 
ATOM     26  C   UNL     1       8.223   7.464  18.311  0.00  0.00    +0.000 A 
ATOM     27  C   UNL     1       8.087   6.293  19.053  0.00  0.00    +0.000 A 
ATOM     28  C   UNL     1       6.975   5.465  18.864  0.00  0.00    +0.000 A 
ENDBRANCH  21  23
ENDBRANCH  18  19
ENDBRANCH  17  18
ENDBRANCH   4  17
TORSDOF 8
ENDMDL
MODEL 8
REMARK VINA RESULT:      -7.5      1.308      1.598
REMARK  Name = 
REMARK  9 active torsions:
REMARK  status: ('A' for Active; 'I' for Inactive)
REMARK    1  A    between atoms: C_1  and  O_2
REMARK    2  A    between atoms: O_2  and  C_3
REMARK    3  A    between atoms: C_6  and  N_7
REMARK    4  A    between atoms: N_7  and  C_8
REMARK    5  A    between atoms: C_8  and  C_9
REMARK    6  A    between atoms: C_12  and  S_13
REMARK    7  A    between atoms: S_13  and  C_14
REMARK    8  A    between atoms: C_14  and  C_15
REMARK    9  A    between atoms: N_17  and  C_18
REMARK                            x       y       z     vdW  Elec       q    Type
REMARK                         _______ _______ _______ _____ _____    ______ ____
ROOT
ATOM      1  C   UNL     1       7.915   6.426  18.609  0.00  0.00    +0.000 A 
ATOM      2  N   UNL     1       7.487   5.412  19.334  0.00  0.00    +0.000 NA
ATOM      3  N   UNL     1       6.991   4.483  18.442  0.00  0.00    +0.000 NA
ATOM      4  C   UNL     1       7.160   4.982  17.235  0.00  0.00    +0.000 A 
ATOM      5  O   UNL     1       7.760   6.217  17.261  0.00  0.00    +0.000 OA
ENDROOT
BRANCH   1   6
ATOM      6  C   UNL     1       8.541   7.708  19.064  0.00  0.00    +0.000 C 
BRANCH   6   7
ATOM      7  N   UNL     1       8.309   8.837  18.154  0.00  0.00    +0.000 N 
ATOM      8  H   UNL     1       8.543   8.578  17.197  0.00  0.00    +0.000 HD
BRANCH   7  12
ATOM      9  C   UNL     1       9.573  12.753  19.133  0.00  0.00    +0.000 A 
ATOM     10  C   UNL     1       8.862  12.493  17.967  0.00  0.00    +0.000 A 
ATOM     11  C   UNL     1       8.468  11.186  17.656  0.00  0.00    +0.000 A 
ATOM     12  C   UNL     1       8.819  10.101  18.472  0.00  0.00    +0.000 A 
ATOM     13  C   UNL     1       9.536  10.379  19.640  0.00  0.00    +0.000 A 
ATOM     14  C   UNL     1       9.920  11.690  19.966  0.00  0.00    +0.000 A 
BRANCH   9  16
ATOM     15  C   UNL     1      11.148  14.303  19.970  0.00  0.00    +0.000 C 
ATOM     16  O   UNL     1       9.891  14.066  19.344  0.00  0.00    +0.000 OA
ENDBRANCH   9  16
ENDBRANCH   7  12
ENDBRANCH   6   7
ENDBRANCH   1   6
BRANCH   4  17
ATOM     17  S   UNL     1       6.578   4.210  15.795  0.00  0.00    +0.000 S 
BRANCH  17  18
ATOM     18  C   UNL     1       5.107   5.207  15.447  0.00  0.00    +0.000 C 
BRANCH  18  19
ATOM     19  C   UNL     1       4.283   5.403  16.715  0.00  0.00    +0.000 C 
ATOM     20  O   UNL     1       4.121   6.531  17.173  0.00  0.00    +0.000 OA
ATOM     21  N   UNL     1       3.742   4.229  17.228  0.00  0.00    +0.000 N 
ATOM     22  H   UNL     1       4.090   3.363  16.834  0.00  0.00    +0.000 HD
BRANCH  21  23
ATOM     23  C   UNL     1       2.909   4.107  18.364  0.00  0.00    +0.000 A 
ATOM     24  C   UNL     1       1.665   3.476  18.343  0.00  0.00    +0.000 A 
ATOM     25  C   UNL     1       0.875   3.412  19.496  0.00  0.00    +0.000 A 
ATOM     26  C   UNL     1       1.323   3.980  20.685  0.00  0.00    +0.000 A 
ATOM     27  C   UNL     1       2.572   4.597  20.724  0.00  0.00    +0.000 A 
ATOM     28  C   UNL     1       3.365   4.652  19.572  0.00  0.00    +0.000 A 
ENDBRANCH  21  23
ENDBRANCH  18  19
ENDBRANCH  17  18
ENDBRANCH   4  17
TORSDOF 8
ENDMDL
MODEL 9
REMARK VINA RESULT:      -7.4      1.438      1.672
REMARK  Name = 
REMARK  9 active torsions:
REMARK  status: ('A' for Active; 'I' for Inactive)
REMARK    1  A    between atoms: C_1  and  O_2
REMARK    2  A    between atoms: O_2  and  C_3
REMARK    3  A    between atoms: C_6  and  N_7
REMARK    4  A    between atoms: N_7  and  C_8
REMARK    5  A    between atoms: C_8  and  C_9
REMARK    6  A    between atoms: C_12  and  S_13
REMARK    7  A    between atoms: S_13  and  C_14
REMARK    8  A    between atoms: C_14  and  C_15
REMARK    9  A    between atoms: N_17  and  C_18
REMARK                            x       y       z     vdW  Elec       q    Type
REMARK                         _______ _______ _______ _____ _____    ______ ____
ROOT
ATOM      1  C   UNL     1       7.529   7.832  17.561  0.00  0.00    +0.000 A 
ATOM      2  N   UNL     1       6.317   8.017  17.082  0.00  0.00    +0.000 NA
ATOM      3  N   UNL     1       5.937   6.814  16.522  0.00  0.00    +0.000 NA
ATOM      4  C   UNL     1       6.933   5.974  16.706  0.00  0.00    +0.000 A 
ATOM      5  O   UNL     1       7.983   6.549  17.380  0.00  0.00    +0.000 OA
ENDROOT
BRANCH   1   6
ATOM      6  C   UNL     1       8.419   8.809  18.268  0.00  0.00    +0.000 C 
BRANCH   6   7
ATOM      7  N   UNL     1       8.270  10.193  17.802  0.00  0.00    +0.000 N 
ATOM      8  H   UNL     1       8.213  10.224  16.785  0.00  0.00    +0.000 HD
BRANCH   7  12
ATOM      9  C   UNL     1      11.087  13.016  19.213  0.00  0.00    +0.000 A 
ATOM     10  C   UNL     1      10.937  11.775  19.823  0.00  0.00    +0.000 A 
ATOM     11  C   UNL     1       9.986  10.863  19.349  0.00  0.00    +0.000 A 
ATOM     12  C   UNL     1       9.128  11.186  18.289  0.00  0.00    +0.000 A 
ATOM     13  C   UNL     1       9.289  12.438  17.687  0.00  0.00    +0.000 A 
ATOM     14  C   UNL     1      10.252  13.350  18.148  0.00  0.00    +0.000 A 
BRANCH   9  16
ATOM     15  C   UNL     1      11.672  15.167  19.992  0.00  0.00    +0.000 C 
ATOM     16  O   UNL     1      12.056  13.818  19.748  0.00  0.00    +0.000 OA
ENDBRANCH   9  16
ENDBRANCH   7  12
ENDBRANCH   6   7
ENDBRANCH   1   6
BRANCH   4  17
ATOM     17  S   UNL     1       6.952   4.362  16.063  0.00  0.00    +0.000 S 
BRANCH  17  18
ATOM     18  C   UNL     1       5.204   4.143  15.647  0.00  0.00    +0.000 C 
BRANCH  18  19
ATOM     19  C   UNL     1       4.419   3.675  16.868  0.00  0.00    +0.000 C 
ATOM     20  O   UNL     1       4.629   2.561  17.341  0.00  0.00    +0.000 OA
ATOM     21  N   UNL     1       3.530   4.619  17.368  0.00  0.00    +0.000 N 
ATOM     22  H   UNL     1       3.354   5.428  16.782  0.00  0.00    +0.000 HD
BRANCH  21  23
ATOM     23  C   UNL     1       2.702   4.483  18.505  0.00  0.00    +0.000 A 
ATOM     24  C   UNL     1       2.939   5.137  19.715  0.00  0.00    +0.000 A 
ATOM     25  C   UNL     1       2.097   4.938  20.814  0.00  0.00    +0.000 A 
ATOM     26  C   UNL     1       1.005   4.082  20.714  0.00  0.00    +0.000 A 
ATOM     27  C   UNL     1       0.745   3.437  19.507  0.00  0.00    +0.000 A 
ATOM     28  C   UNL     1       1.583   3.644  18.406  0.00  0.00    +0.000 A 
ENDBRANCH  21  23
ENDBRANCH  18  19
ENDBRANCH  17  18
ENDBRANCH   4  17
TORSDOF 8
ENDMDL
