MODEL 1
REMARK VINA RESULT:      -5.9      0.000      0.000
REMARK  Name = 
REMARK  7 active torsions:
REMARK  status: ('A' for Active; 'I' for Inactive)
REMARK    1  A    between atoms: C_1  and  O_2
REMARK    2  A    between atoms: O_2  and  C_3
REMARK    3  A    between atoms: C_3  and  C_5
REMARK    4  A    between atoms: C_6  and  O_7
REMARK    5  A    between atoms: O_7  and  C_8
REMARK    6  A    between atoms: C_11  and  O_12
REMARK    7  A    between atoms: O_12  and  C_13
REMARK                            x       y       z     vdW  Elec       q    Type
REMARK                         _______ _______ _______ _____ _____    ______ ____
ROOT
ATOM      1  C   UNL     1       3.297   5.313  17.957  0.00  0.00    +0.000 A 
ATOM      2  C   UNL     1       3.128   5.817  19.245  0.00  0.00    +0.000 A 
ATOM      3  C   UNL     1       2.304   5.144  20.154  0.00  0.00    +0.000 A 
ATOM      4  C   UNL     1       1.617   3.989  19.772  0.00  0.00    +0.000 A 
ATOM      5  C   UNL     1       1.800   3.478  18.488  0.00  0.00    +0.000 A 
ATOM      6  C   UNL     1       2.628   4.142  17.582  0.00  0.00    +0.000 A 
ENDROOT
BRANCH   4   7
ATOM      7  O   UNL     1       0.828   3.422  20.736  0.00  0.00    +0.000 OA
ATOM      8  C   UNL     1       1.508   2.596  21.677  0.00  0.00    +0.000 C 
ENDBRANCH   4   7
BRANCH   1   9
ATOM      9  O   UNL     1       4.075   6.043  17.083  0.00  0.00    +0.000 OA
BRANCH   9  11
ATOM     10  C   UNL     1       5.577   5.788  15.245  0.00  0.00    +0.000 C 
ATOM     11  C   UNL     1       5.081   5.379  16.416  0.00  0.00    +0.000 C 
BRANCH  10  12
ATOM     12  C   UNL     1       6.629   4.978  14.611  0.00  0.00    +0.000 C 
ATOM     13  O   UNL     1       7.778   5.352  14.412  0.00  0.00    +0.000 OA
BRANCH  12  15
ATOM     14  C   UNL     1       5.998   3.518  12.910  0.00  0.00    +0.000 C 
ATOM     15  O   UNL     1       6.125   3.758  14.314  0.00  0.00    +0.000 OA
ENDBRANCH  12  15
ENDBRANCH  10  12
ENDBRANCH   9  11
ENDBRANCH   1   9
TORSDOF 5
ENDMDL
MODEL 2
REMARK VINA RESULT:      -5.8      0.963      1.630
REMARK  Name = 
REMARK  7 active torsions:
REMARK  status: ('A' for Active; 'I' for Inactive)
REMARK    1  A    between atoms: C_1  and  O_2
REMARK    2  A    between atoms: O_2  and  C_3
REMARK    3  A    between atoms: C_3  and  C_5
REMARK    4  A    between atoms: C_6  and  O_7
REMARK    5  A    between atoms: O_7  and  C_8
REMARK    6  A    between atoms: C_11  and  O_12
REMARK    7  A    between atoms: O_12  and  C_13
REMARK                            x       y       z     vdW  Elec       q    Type
REMARK                         _______ _______ _______ _____ _____    ______ ____
ROOT
ATOM      1  C   UNL     1       3.051   5.782  18.250  0.00  0.00    +0.000 A 
ATOM      2  C   UNL     1       2.258   4.763  17.724  0.00  0.00    +0.000 A 
ATOM      3  C   UNL     1       1.505   3.953  18.581  0.00  0.00    +0.000 A 
ATOM      4  C   UNL     1       1.566   4.131  19.965  0.00  0.00    +0.000 A 
ATOM      5  C   UNL     1       2.346   5.161  20.489  0.00  0.00    +0.000 A 
ATOM      6  C   UNL     1       3.092   5.976  19.636  0.00  0.00    +0.000 A 
ENDROOT
BRANCH   4   7
ATOM      7  O   UNL     1       0.799   3.275  20.708  0.00  0.00    +0.000 OA
ATOM      8  C   UNL     1       1.495   2.546  21.716  0.00  0.00    +0.000 C 
ENDBRANCH   4   7
BRANCH   1   9
ATOM      9  O   UNL     1       3.816   6.515  17.369  0.00  0.00    +0.000 OA
BRANCH   9  11
ATOM     10  C   UNL     1       5.689   5.045  17.188  0.00  0.00    +0.000 C 
ATOM     11  C   UNL     1       4.768   5.842  16.636  0.00  0.00    +0.000 C 
BRANCH  10  12
ATOM     12  C   UNL     1       6.677   4.404  16.306  0.00  0.00    +0.000 C 
ATOM     13  O   UNL     1       7.890   4.530  16.405  0.00  0.00    +0.000 OA
BRANCH  12  15
ATOM     14  C   UNL     1       6.347   3.971  14.042  0.00  0.00    +0.000 C 
ATOM     15  O   UNL     1       6.025   3.643  15.397  0.00  0.00    +0.000 OA
ENDBRANCH  12  15
ENDBRANCH  10  12
ENDBRANCH   9  11
ENDBRANCH   1   9
TORSDOF 5
ENDMDL
MODEL 3
REMARK VINA RESULT:      -5.8      1.464      1.582
REMARK  Name = 
REMARK  7 active torsions:
REMARK  status: ('A' for Active; 'I' for Inactive)
REMARK    1  A    between atoms: C_1  and  O_2
REMARK    2  A    between atoms: O_2  and  C_3
REMARK    3  A    between atoms: C_3  and  C_5
REMARK    4  A    between atoms: C_6  and  O_7
REMARK    5  A    between atoms: O_7  and  C_8
REMARK    6  A    between atoms: C_11  and  O_12
REMARK    7  A    between atoms: O_12  and  C_13
REMARK                            x       y       z     vdW  Elec       q    Type
REMARK                         _______ _______ _______ _____ _____    ______ ____
ROOT
ATOM      1  C   UNL     1       2.835   6.075  18.431  0.00  0.00    +0.000 A 
ATOM      2  C   UNL     1       2.750   6.209  19.816  0.00  0.00    +0.000 A 
ATOM      3  C   UNL     1       2.067   5.247  20.569  0.00  0.00    +0.000 A 
ATOM      4  C   UNL     1       1.435   4.170  19.942  0.00  0.00    +0.000 A 
ATOM      5  C   UNL     1       1.534   4.029  18.559  0.00  0.00    +0.000 A 
ATOM      6  C   UNL     1       2.223   4.982  17.807  0.00  0.00    +0.000 A 
ENDROOT
BRANCH   4   7
ATOM      7  O   UNL     1       0.783   3.300  20.773  0.00  0.00    +0.000 OA
ATOM      8  C   UNL     1       1.616   2.570  21.671  0.00  0.00    +0.000 C 
ENDBRANCH   4   7
BRANCH   1   9
ATOM      9  O   UNL     1       3.472   7.077  17.731  0.00  0.00    +0.000 OA
BRANCH   9  11
ATOM     10  C   UNL     1       5.611   6.026  17.596  0.00  0.00    +0.000 C 
ATOM     11  C   UNL     1       4.627   6.750  17.055  0.00  0.00    +0.000 C 
BRANCH  10  12
ATOM     12  C   UNL     1       6.814   5.768  16.788  0.00  0.00    +0.000 C 
ATOM     13  O   UNL     1       7.565   6.631  16.354  0.00  0.00    +0.000 OA
BRANCH  12  15
ATOM     14  C   UNL     1       6.253   3.910  15.501  0.00  0.00    +0.000 C 
ATOM     15  O   UNL     1       6.959   4.432  16.631  0.00  0.00    +0.000 OA
ENDBRANCH  12  15
ENDBRANCH  10  12
ENDBRANCH   9  11
ENDBRANCH   1   9
TORSDOF 5
ENDMDL
MODEL 4
REMARK VINA RESULT:      -5.7      2.079      6.534
REMARK  Name = 
REMARK  7 active torsions:
REMARK  status: ('A' for Active; 'I' for Inactive)
REMARK    1  A    between atoms: C_1  and  O_2
REMARK    2  A    between atoms: O_2  and  C_3
REMARK    3  A    between atoms: C_3  and  C_5
REMARK    4  A    between atoms: C_6  and  O_7
REMARK    5  A    between atoms: O_7  and  C_8
REMARK    6  A    between atoms: C_11  and  O_12
REMARK    7  A    between atoms: O_12  and  C_13
REMARK                            x       y       z     vdW  Elec       q    Type
REMARK                         _______ _______ _______ _____ _____    ______ ____
ROOT
ATOM      1  C   UNL     1       4.760   4.227  16.594  0.00  0.00    +0.000 A 
ATOM      2  C   UNL     1       5.855   4.151  15.734  0.00  0.00    +0.000 A 
ATOM      3  C   UNL     1       6.870   5.112  15.812  0.00  0.00    +0.000 A 
ATOM      4  C   UNL     1       6.780   6.170  16.720  0.00  0.00    +0.000 A 
ATOM      5  C   UNL     1       5.693   6.235  17.590  0.00  0.00    +0.000 A 
ATOM      6  C   UNL     1       4.683   5.274  17.520  0.00  0.00    +0.000 A 
ENDROOT
BRANCH   4   7
ATOM      7  O   UNL     1       7.821   7.059  16.700  0.00  0.00    +0.000 OA
ATOM      8  C   UNL     1       7.790   8.062  17.712  0.00  0.00    +0.000 C 
ENDBRANCH   4   7
BRANCH   1   9
ATOM      9  O   UNL     1       3.762   3.289  16.440  0.00  0.00    +0.000 OA
BRANCH   9  11
ATOM     10  C   UNL     1       2.476   2.111  18.070  0.00  0.00    +0.000 C 
ATOM     11  C   UNL     1       2.785   3.231  17.409  0.00  0.00    +0.000 C 
BRANCH  10  12
ATOM     12  C   UNL     1       1.390   2.163  19.062  0.00  0.00    +0.000 C 
ATOM     13  O   UNL     1       0.198   2.226  18.793  0.00  0.00    +0.000 OA
BRANCH  12  15
ATOM     14  C   UNL     1       1.299   2.986  21.239  0.00  0.00    +0.000 C 
ATOM     15  O   UNL     1       1.926   2.104  20.303  0.00  0.00    +0.000 OA
ENDBRANCH  12  15
ENDBRANCH  10  12
ENDBRANCH   9  11
ENDBRANCH   1   9
TORSDOF 5
ENDMDL
MODEL 5
REMARK VINA RESULT:      -5.7      2.418      6.340
REMARK  Name = 
REMARK  7 active torsions:
REMARK  status: ('A' for Active; 'I' for Inactive)
REMARK    1  A    between atoms: C_1  and  O_2
REMARK    2  A    between atoms: O_2  and  C_3
REMARK    3  A    between atoms: C_3  and  C_5
REMARK    4  A    between atoms: C_6  and  O_7
REMARK    5  A    between atoms: O_7  and  C_8
REMARK    6  A    between atoms: C_11  and  O_12
REMARK    7  A    between atoms: O_12  and  C_13
REMARK                            x       y       z     vdW  Elec       q    Type
REMARK                         _______ _______ _______ _____ _____    ______ ____
ROOT
ATOM      1  C   UNL     1       5.196   4.990  17.032  0.00  0.00    +0.000 A 
ATOM      2  C   UNL     1       5.209   6.355  16.750  0.00  0.00    +0.000 A 
ATOM      3  C   UNL     1       6.256   7.154  17.222  0.00  0.00    +0.000 A 
ATOM      4  C   UNL     1       7.273   6.605  18.007  0.00  0.00    +0.000 A 
ATOM      5  C   UNL     1       7.267   5.237  18.275  0.00  0.00    +0.000 A 
ATOM      6  C   UNL     1       6.228   4.435  17.798  0.00  0.00    +0.000 A 
ENDROOT
BRANCH   4   7
ATOM      7  O   UNL     1       8.237   7.480  18.426  0.00  0.00    +0.000 OA
ATOM      8  C   UNL     1       8.140   8.800  17.896  0.00  0.00    +0.000 C 
ENDBRANCH   4   7
BRANCH   1   9
ATOM      9  O   UNL     1       4.115   4.257  16.592  0.00  0.00    +0.000 OA
BRANCH   9  11
ATOM     10  C   UNL     1       2.042   3.578  17.562  0.00  0.00    +0.000 C 
ATOM     11  C   UNL     1       3.378   3.575  17.535  0.00  0.00    +0.000 C 
BRANCH  10  12
ATOM     12  C   UNL     1       1.364   2.838  18.639  0.00  0.00    +0.000 C 
ATOM     13  O   UNL     1       0.307   2.233  18.516  0.00  0.00    +0.000 OA
BRANCH  12  15
ATOM     14  C   UNL     1       1.333   3.050  20.958  0.00  0.00    +0.000 C 
ATOM     15  O   UNL     1       2.111   2.918  19.764  0.00  0.00    +0.000 OA
ENDBRANCH  12  15
ENDBRANCH  10  12
ENDBRANCH   9  11
ENDBRANCH   1   9
TORSDOF 5
ENDMDL
MODEL 6
REMARK VINA RESULT:      -5.7      1.862      2.815
REMARK  Name = 
REMARK  7 active torsions:
REMARK  status: ('A' for Active; 'I' for Inactive)
REMARK    1  A    between atoms: C_1  and  O_2
REMARK    2  A    between atoms: O_2  and  C_3
REMARK    3  A    between atoms: C_3  and  C_5
REMARK    4  A    between atoms: C_6  and  O_7
REMARK    5  A    between atoms: O_7  and  C_8
REMARK    6  A    between atoms: C_11  and  O_12
REMARK    7  A    between atoms: O_12  and  C_13
REMARK                            x       y       z     vdW  Elec       q    Type
REMARK                         _______ _______ _______ _____ _____    ______ ____
ROOT
ATOM      1  C   UNL     1       2.997   5.846  18.098  0.00  0.00    +0.000 A 
ATOM      2  C   UNL     1       2.378   4.664  17.695  0.00  0.00    +0.000 A 
ATOM      3  C   UNL     1       1.643   3.912  18.618  0.00  0.00    +0.000 A 
ATOM      4  C   UNL     1       1.552   4.315  19.953  0.00  0.00    +0.000 A 
ATOM      5  C   UNL     1       2.158   5.506  20.351  0.00  0.00    +0.000 A 
ATOM      6  C   UNL     1       2.885   6.262  19.430  0.00  0.00    +0.000 A 
ENDROOT
BRANCH   4   7
ATOM      7  O   UNL     1       0.820   3.497  20.771  0.00  0.00    +0.000 OA
ATOM      8  C   UNL     1       1.578   2.593  21.571  0.00  0.00    +0.000 C 
ENDBRANCH   4   7
BRANCH   1   9
ATOM      9  O   UNL     1       3.755   6.521  17.165  0.00  0.00    +0.000 OA
BRANCH   9  11
ATOM     10  C   UNL     1       5.737   5.190  17.196  0.00  0.00    +0.000 C 
ATOM     11  C   UNL     1       5.123   6.377  17.229  0.00  0.00    +0.000 C 
BRANCH  10  12
ATOM     12  C   UNL     1       7.204   5.160  17.305  0.00  0.00    +0.000 C 
ATOM     13  O   UNL     1       7.931   4.349  16.747  0.00  0.00    +0.000 OA
BRANCH  12  15
ATOM     14  C   UNL     1       7.929   5.783  19.428  0.00  0.00    +0.000 C 
ATOM     15  O   UNL     1       7.607   6.183  18.093  0.00  0.00    +0.000 OA
ENDBRANCH  12  15
ENDBRANCH  10  12
ENDBRANCH   9  11
ENDBRANCH   1   9
TORSDOF 5
ENDMDL
MODEL 7
REMARK VINA RESULT:      -5.7      1.454      2.169
REMARK  Name = 
REMARK  7 active torsions:
REMARK  status: ('A' for Active; 'I' for Inactive)
REMARK    1  A    between atoms: C_1  and  O_2
REMARK    2  A    between atoms: O_2  and  C_3
REMARK    3  A    between atoms: C_3  and  C_5
REMARK    4  A    between atoms: C_6  and  O_7
REMARK    5  A    between atoms: O_7  and  C_8
REMARK    6  A    between atoms: C_11  and  O_12
REMARK    7  A    between atoms: O_12  and  C_13
REMARK                            x       y       z     vdW  Elec       q    Type
REMARK                         _______ _______ _______ _____ _____    ______ ____
ROOT
ATOM      1  C   UNL     1       2.923   5.818  18.264  0.00  0.00    +0.000 A 
ATOM      2  C   UNL     1       2.172   4.762  17.750  0.00  0.00    +0.000 A 
ATOM      3  C   UNL     1       1.456   3.929  18.617  0.00  0.00    +0.000 A 
ATOM      4  C   UNL     1       1.514   4.122  19.999  0.00  0.00    +0.000 A 
ATOM      5  C   UNL     1       2.252   5.188  20.511  0.00  0.00    +0.000 A 
ATOM      6  C   UNL     1       2.961   6.026  19.648  0.00  0.00    +0.000 A 
ENDROOT
BRANCH   4   7
ATOM      7  O   UNL     1       0.787   3.241  20.752  0.00  0.00    +0.000 OA
ATOM      8  C   UNL     1       1.518   2.547  21.760  0.00  0.00    +0.000 C 
ENDBRANCH   4   7
BRANCH   1   9
ATOM      9  O   UNL     1       3.654   6.575  17.373  0.00  0.00    +0.000 OA
BRANCH   9  11
ATOM     10  C   UNL     1       5.728   5.403  17.223  0.00  0.00    +0.000 C 
ATOM     11  C   UNL     1       5.027   6.516  17.461  0.00  0.00    +0.000 C 
BRANCH  10  12
ATOM     12  C   UNL     1       7.191   5.453  17.380  0.00  0.00    +0.000 C 
ATOM     13  O   UNL     1       7.782   6.101  18.233  0.00  0.00    +0.000 OA
BRANCH  12  15
ATOM     14  C   UNL     1       7.038   4.604  15.217  0.00  0.00    +0.000 C 
ATOM     15  O   UNL     1       7.760   4.650  16.452  0.00  0.00    +0.000 OA
ENDBRANCH  12  15
ENDBRANCH  10  12
ENDBRANCH   9  11
ENDBRANCH   1   9
TORSDOF 5
ENDMDL
MODEL 8
REMARK VINA RESULT:      -5.6      2.008      2.760
REMARK  Name = 
REMARK  7 active torsions:
REMARK  status: ('A' for Active; 'I' for Inactive)
REMARK    1  A    between atoms: C_1  and  O_2
REMARK    2  A    between atoms: O_2  and  C_3
REMARK    3  A    between atoms: C_3  and  C_5
REMARK    4  A    between atoms: C_6  and  O_7
REMARK    5  A    between atoms: O_7  and  C_8
REMARK    6  A    between atoms: C_11  and  O_12
REMARK    7  A    between atoms: O_12  and  C_13
REMARK                            x       y       z     vdW  Elec       q    Type
REMARK                         _______ _______ _______ _____ _____    ______ ____
ROOT
ATOM      1  C   UNL     1       3.344   3.587  17.247  0.00  0.00    +0.000 A 
ATOM      2  C   UNL     1       2.370   4.485  17.678  0.00  0.00    +0.000 A 
ATOM      3  C   UNL     1       1.577   4.172  18.788  0.00  0.00    +0.000 A 
ATOM      4  C   UNL     1       1.726   2.949  19.447  0.00  0.00    +0.000 A 
ATOM      5  C   UNL     1       2.711   2.059  19.024  0.00  0.00    +0.000 A 
ATOM      6  C   UNL     1       3.510   2.372  17.923  0.00  0.00    +0.000 A 
ENDROOT
BRANCH   4   7
ATOM      7  O   UNL     1       0.888   2.742  20.510  0.00  0.00    +0.000 OA
ATOM      8  C   UNL     1       1.525   2.624  21.779  0.00  0.00    +0.000 C 
ENDBRANCH   4   7
BRANCH   1   9
ATOM      9  O   UNL     1       4.061   3.917  16.117  0.00  0.00    +0.000 OA
BRANCH   9  11
ATOM     10  C   UNL     1       5.735   5.266  17.154  0.00  0.00    +0.000 C 
ATOM     11  C   UNL     1       5.367   4.321  16.284  0.00  0.00    +0.000 C 
BRANCH  10  12
ATOM     12  C   UNL     1       7.158   5.638  17.221  0.00  0.00    +0.000 C 
ATOM     13  O   UNL     1       7.700   6.468  16.503  0.00  0.00    +0.000 OA
BRANCH  12  15
ATOM     14  C   UNL     1       7.840   5.656  19.448  0.00  0.00    +0.000 C 
ATOM     15  O   UNL     1       7.749   4.936  18.215  0.00  0.00    +0.000 OA
ENDBRANCH  12  15
ENDBRANCH  10  12
ENDBRANCH   9  11
ENDBRANCH   1   9
TORSDOF 5
ENDMDL
MODEL 9
REMARK VINA RESULT:      -5.6      1.511      6.559
REMARK  Name = 
REMARK  7 active torsions:
REMARK  status: ('A' for Active; 'I' for Inactive)
REMARK    1  A    between atoms: C_1  and  O_2
REMARK    2  A    between atoms: O_2  and  C_3
REMARK    3  A    between atoms: C_3  and  C_5
REMARK    4  A    between atoms: C_6  and  O_7
REMARK    5  A    between atoms: O_7  and  C_8
REMARK    6  A    between atoms: C_11  and  O_12
REMARK    7  A    between atoms: O_12  and  C_13
REMARK                            x       y       z     vdW  Elec       q    Type
REMARK                         _______ _______ _______ _____ _____    ______ ____
ROOT
ATOM      1  C   UNL     1       5.076   5.584  18.297  0.00  0.00    +0.000 A 
ATOM      2  C   UNL     1       6.322   6.206  18.240  0.00  0.00    +0.000 A 
ATOM      3  C   UNL     1       7.110   6.083  17.090  0.00  0.00    +0.000 A 
ATOM      4  C   UNL     1       6.676   5.312  16.009  0.00  0.00    +0.000 A 
ATOM      5  C   UNL     1       5.423   4.704  16.061  0.00  0.00    +0.000 A 
ATOM      6  C   UNL     1       4.632   4.831  17.204  0.00  0.00    +0.000 A 
ENDROOT
BRANCH   4   7
ATOM      7  O   UNL     1       7.533   5.250  14.943  0.00  0.00    +0.000 OA
ATOM      8  C   UNL     1       6.987   4.696  13.749  0.00  0.00    +0.000 C 
ENDBRANCH   4   7
BRANCH   1   9
ATOM      9  O   UNL     1       4.363   5.688  19.472  0.00  0.00    +0.000 OA
BRANCH   9  11
ATOM     10  C   UNL     1       2.489   4.787  20.644  0.00  0.00    +0.000 C 
ATOM     11  C   UNL     1       3.517   4.653  19.801  0.00  0.00    +0.000 C 
BRANCH  10  12
ATOM     12  C   UNL     1       1.673   3.599  20.945  0.00  0.00    +0.000 C 
ATOM     13  O   UNL     1       1.857   2.844  21.891  0.00  0.00    +0.000 OA
BRANCH  12  15
ATOM     14  C   UNL     1       0.892   2.454  19.074  0.00  0.00    +0.000 C 
ATOM     15  O   UNL     1       0.685   3.501  20.026  0.00  0.00    +0.000 OA
ENDBRANCH  12  15
ENDBRANCH  10  12
ENDBRANCH   9  11
ENDBRANCH   1   9
TORSDOF 5
ENDMDL
