MODEL 1
REMARK VINA RESULT:      -7.2      0.000      0.000
REMARK  Name = 
REMARK  7 active torsions:
REMARK  status: ('A' for Active; 'I' for Inactive)
REMARK    1  A    between atoms: C_2  and  C_3
REMARK    2  A    between atoms: C_4  and  C_5
REMARK    3  A    between atoms: N_11  and  C_12
REMARK    4  A    between atoms: C_15  and  C_16
REMARK    5  A    between atoms: C_20  and  N_21
REMARK    6  A    between atoms: C_22  and  C_24
REMARK    7  A    between atoms: C_25  and  C_26
REMARK                            x       y       z     vdW  Elec       q    Type
REMARK                         _______ _______ _______ _____ _____    ______ ____
ROOT
ATOM      1  C   UNL     1       1.056   8.769  20.384  0.00  0.00    +0.000 A 
ATOM      2  N   UNL     1       1.607   8.579  19.202  0.00  0.00    +0.000 NA
ATOM      3  C   UNL     1       2.175   7.347  19.226  0.00  0.00    +0.000 A 
ATOM      4  C   UNL     1       2.867   6.711  18.192  0.00  0.00    +0.000 A 
ATOM      5  C   UNL     1       3.359   5.420  18.367  0.00  0.00    +0.000 A 
ATOM      6  C   UNL     1       3.112   4.772  19.590  0.00  0.00    +0.000 A 
ATOM      7  C   UNL     1       2.451   5.418  20.669  0.00  0.00    +0.000 A 
ATOM      8  C   UNL     1       1.992   6.725  20.446  0.00  0.00    +0.000 A 
ATOM      9  N   UNL     1       1.333   7.685  21.202  0.00  0.00    +0.000 N 
ATOM     10  H   UNL     1       1.124   7.624  22.189  0.00  0.00    +0.000 HD
ENDROOT
BRANCH   1  14
ATOM     11  C   UNL     1      -1.435  12.232  21.015  0.00  0.00    +0.000 A 
ATOM     12  C   UNL     1      -0.865  11.580  22.117  0.00  0.00    +0.000 A 
ATOM     13  C   UNL     1       0.004  10.474  21.956  0.00  0.00    +0.000 A 
ATOM     14  C   UNL     1       0.312  10.001  20.681  0.00  0.00    +0.000 A 
ATOM     15  C   UNL     1      -0.249  10.679  19.583  0.00  0.00    +0.000 A 
ATOM     16  C   UNL     1      -1.099  11.778  19.740  0.00  0.00    +0.000 A 
BRANCH  11  19
ATOM     17  O   UNL     1      -0.996  15.169  20.845  0.00  0.00    +0.000 OA
ATOM     18  C   UNL     1      -2.093  14.658  21.044  0.00  0.00    +0.000 C 
ATOM     19  N   UNL     1      -2.363  13.297  21.097  0.00  0.00    +0.000 N 
ATOM     20  H   UNL     1      -3.328  13.023  21.264  0.00  0.00    +0.000 HD
BRANCH  18  21
ATOM     21  C   UNL     1      -3.303  15.497  21.264  0.00  0.00    +0.000 C 
ATOM     22  C   UNL     1      -3.714  15.805  22.508  0.00  0.00    +0.000 C 
BRANCH  22  23
ATOM     23  C   UNL     1      -4.929  16.590  22.805  0.00  0.00    +0.000 A 
ATOM     24  C   UNL     1      -4.944  17.464  23.902  0.00  0.00    +0.000 A 
ATOM     25  C   UNL     1      -6.099  18.184  24.228  0.00  0.00    +0.000 A 
ATOM     26  C   UNL     1      -7.246  18.057  23.448  0.00  0.00    +0.000 A 
ATOM     27  C   UNL     1      -7.232  17.227  22.330  0.00  0.00    +0.000 A 
ATOM     28  C   UNL     1      -6.078  16.507  22.006  0.00  0.00    +0.000 A 
ENDBRANCH  22  23
ENDBRANCH  18  21
ENDBRANCH  11  19
ENDBRANCH   1  14
BRANCH   5  29
ATOM     29  N   UNL     1       4.075   4.763  17.326  0.00  0.00    +0.000 N 
ATOM     30  C   UNL     1       5.386   5.058  16.971  0.00  0.00    +0.000 C 
ATOM     31  O   UNL     1       6.137   5.836  17.549  0.00  0.00    +0.000 OA
ATOM     32  H   UNL     1       3.612   3.988  16.872  0.00  0.00    +0.000 HD
BRANCH  30  33
ATOM     33  C   UNL     1       5.890   4.293  15.793  0.00  0.00    +0.000 C 
ATOM     34  C   UNL     1       5.332   4.531  14.588  0.00  0.00    +0.000 C 
BRANCH  34  35
ATOM     35  C   UNL     1       5.677   3.857  13.327  0.00  0.00    +0.000 A 
ATOM     36  C   UNL     1       7.016   3.851  12.904  0.00  0.00    +0.000 A 
ATOM     37  C   UNL     1       7.390   3.211  11.717  0.00  0.00    +0.000 A 
ATOM     38  C   UNL     1       6.433   2.552  10.951  0.00  0.00    +0.000 A 
ATOM     39  C   UNL     1       5.106   2.527  11.373  0.00  0.00    +0.000 A 
ATOM     40  C   UNL     1       4.732   3.169  12.558  0.00  0.00    +0.000 A 
ENDBRANCH  34  35
ENDBRANCH  30  33
ENDBRANCH   5  29
TORSDOF 7
ENDMDL
MODEL 2
REMARK VINA RESULT:      -7.2      1.406     14.865
REMARK  Name = 
REMARK  7 active torsions:
REMARK  status: ('A' for Active; 'I' for Inactive)
REMARK    1  A    between atoms: C_2  and  C_3
REMARK    2  A    between atoms: C_4  and  C_5
REMARK    3  A    between atoms: N_11  and  C_12
REMARK    4  A    between atoms: C_15  and  C_16
REMARK    5  A    between atoms: C_20  and  N_21
REMARK    6  A    between atoms: C_22  and  C_24
REMARK    7  A    between atoms: C_25  and  C_26
REMARK                            x       y       z     vdW  Elec       q    Type
REMARK                         _______ _______ _______ _____ _____    ______ ____
ROOT
ATOM      1  C   UNL     1       1.638   7.917  20.358  0.00  0.00    +0.000 A 
ATOM      2  N   UNL     1       1.159   9.049  19.881  0.00  0.00    +0.000 NA
ATOM      3  C   UNL     1       0.537   9.677  20.910  0.00  0.00    +0.000 A 
ATOM      4  C   UNL     1      -0.113  10.914  20.882  0.00  0.00    +0.000 A 
ATOM      5  C   UNL     1      -0.671  11.440  22.044  0.00  0.00    +0.000 A 
ATOM      6  C   UNL     1      -0.534  10.712  23.239  0.00  0.00    +0.000 A 
ATOM      7  C   UNL     1       0.082   9.432  23.280  0.00  0.00    +0.000 A 
ATOM      8  C   UNL     1       0.611   8.941  22.077  0.00  0.00    +0.000 A 
ATOM      9  N   UNL     1       1.261   7.778  21.684  0.00  0.00    +0.000 N 
ATOM     10  H   UNL     1       1.402   6.955  22.253  0.00  0.00    +0.000 HD
ENDROOT
BRANCH   1  14
ATOM     11  C   UNL     1       4.021   5.582  17.627  0.00  0.00    +0.000 A 
ATOM     12  C   UNL     1       4.215   5.442  19.007  0.00  0.00    +0.000 A 
ATOM     13  C   UNL     1       3.419   6.145  19.942  0.00  0.00    +0.000 A 
ATOM     14  C   UNL     1       2.414   7.007  19.504  0.00  0.00    +0.000 A 
ATOM     15  C   UNL     1       2.216   7.121  18.116  0.00  0.00    +0.000 A 
ATOM     16  C   UNL     1       2.994   6.419  17.191  0.00  0.00    +0.000 A 
BRANCH  11  19
ATOM     17  O   UNL     1       6.504   6.546  16.301  0.00  0.00    +0.000 OA
ATOM     18  C   UNL     1       5.955   5.485  16.023  0.00  0.00    +0.000 C 
ATOM     19  N   UNL     1       4.819   4.968  16.631  0.00  0.00    +0.000 N 
ATOM     20  H   UNL     1       4.483   4.069  16.296  0.00  0.00    +0.000 HD
BRANCH  18  21
ATOM     21  C   UNL     1       6.484   4.607  14.943  0.00  0.00    +0.000 C 
ATOM     22  C   UNL     1       5.742   4.322  13.857  0.00  0.00    +0.000 C 
BRANCH  22  23
ATOM     23  C   UNL     1       6.179   3.422  12.771  0.00  0.00    +0.000 A 
ATOM     24  C   UNL     1       7.489   3.510  12.278  0.00  0.00    +0.000 A 
ATOM     25  C   UNL     1       7.912   2.698  11.220  0.00  0.00    +0.000 A 
ATOM     26  C   UNL     1       7.037   1.772  10.656  0.00  0.00    +0.000 A 
ATOM     27  C   UNL     1       5.747   1.643  11.165  0.00  0.00    +0.000 A 
ATOM     28  C   UNL     1       5.326   2.455  12.221  0.00  0.00    +0.000 A 
ENDBRANCH  22  23
ENDBRANCH  18  21
ENDBRANCH  11  19
ENDBRANCH   1  14
BRANCH   5  29
ATOM     29  N   UNL     1      -1.345  12.695  22.028  0.00  0.00    +0.000 N 
ATOM     30  C   UNL     1      -0.750  13.907  22.356  0.00  0.00    +0.000 C 
ATOM     31  O   UNL     1       0.437  14.089  22.606  0.00  0.00    +0.000 OA
ATOM     32  H   UNL     1      -2.297  12.698  21.686  0.00  0.00    +0.000 HD
BRANCH  30  33
ATOM     33  C   UNL     1      -1.683  15.071  22.347  0.00  0.00    +0.000 C 
ATOM     34  C   UNL     1      -2.306  15.403  23.496  0.00  0.00    +0.000 C 
BRANCH  34  35
ATOM     35  C   UNL     1      -3.276  16.496  23.669  0.00  0.00    +0.000 A 
ATOM     36  C   UNL     1      -3.973  16.600  24.884  0.00  0.00    +0.000 A 
ATOM     37  C   UNL     1      -4.895  17.632  25.094  0.00  0.00    +0.000 A 
ATOM     38  C   UNL     1      -5.115  18.581  24.100  0.00  0.00    +0.000 A 
ATOM     39  C   UNL     1      -4.411  18.504  22.901  0.00  0.00    +0.000 A 
ATOM     40  C   UNL     1      -3.491  17.472  22.690  0.00  0.00    +0.000 A 
ENDBRANCH  34  35
ENDBRANCH  30  33
ENDBRANCH   5  29
TORSDOF 7
ENDMDL
MODEL 3
REMARK VINA RESULT:      -7.2      1.282      1.664
REMARK  Name = 
REMARK  7 active torsions:
REMARK  status: ('A' for Active; 'I' for Inactive)
REMARK    1  A    between atoms: C_2  and  C_3
REMARK    2  A    between atoms: C_4  and  C_5
REMARK    3  A    between atoms: N_11  and  C_12
REMARK    4  A    between atoms: C_15  and  C_16
REMARK    5  A    between atoms: C_20  and  N_21
REMARK    6  A    between atoms: C_22  and  C_24
REMARK    7  A    between atoms: C_25  and  C_26
REMARK                            x       y       z     vdW  Elec       q    Type
REMARK                         _______ _______ _______ _____ _____    ______ ____
ROOT
ATOM      1  C   UNL     1       1.135   8.589  20.727  0.00  0.00    +0.000 A 
ATOM      2  N   UNL     1       1.780   8.478  19.582  0.00  0.00    +0.000 NA
ATOM      3  C   UNL     1       2.267   7.213  19.526  0.00  0.00    +0.000 A 
ATOM      4  C   UNL     1       3.012   6.635  18.495  0.00  0.00    +0.000 A 
ATOM      5  C   UNL     1       3.405   5.301  18.577  0.00  0.00    +0.000 A 
ATOM      6  C   UNL     1       3.007   4.555  19.699  0.00  0.00    +0.000 A 
ATOM      7  C   UNL     1       2.290   5.136  20.779  0.00  0.00    +0.000 A 
ATOM      8  C   UNL     1       1.934   6.488  20.654  0.00  0.00    +0.000 A 
ATOM      9  N   UNL     1       1.267   7.413  21.448  0.00  0.00    +0.000 N 
ATOM     10  H   UNL     1       0.965   7.270  22.401  0.00  0.00    +0.000 HD
ENDROOT
BRANCH   1  14
ATOM     11  C   UNL     1      -1.159  12.164  21.465  0.00  0.00    +0.000 A 
ATOM     12  C   UNL     1      -0.871  11.297  22.526  0.00  0.00    +0.000 A 
ATOM     13  C   UNL     1      -0.075  10.141  22.344  0.00  0.00    +0.000 A 
ATOM     14  C   UNL     1       0.443   9.835  21.085  0.00  0.00    +0.000 A 
ATOM     15  C   UNL     1       0.165  10.727  20.034  0.00  0.00    +0.000 A 
ATOM     16  C   UNL     1      -0.613  11.875  20.215  0.00  0.00    +0.000 A 
BRANCH  11  19
ATOM     17  O   UNL     1      -3.683  12.558  22.990  0.00  0.00    +0.000 OA
ATOM     18  C   UNL     1      -3.192  13.413  22.259  0.00  0.00    +0.000 C 
ATOM     19  N   UNL     1      -2.001  13.299  21.554  0.00  0.00    +0.000 N 
ATOM     20  H   UNL     1      -1.718  14.098  20.993  0.00  0.00    +0.000 HD
BRANCH  18  21
ATOM     21  C   UNL     1      -3.868  14.722  22.046  0.00  0.00    +0.000 C 
ATOM     22  C   UNL     1      -5.048  14.795  21.401  0.00  0.00    +0.000 C 
BRANCH  22  23
ATOM     23  C   UNL     1      -5.752  16.059  21.111  0.00  0.00    +0.000 A 
ATOM     24  C   UNL     1      -5.205  16.967  20.191  0.00  0.00    +0.000 A 
ATOM     25  C   UNL     1      -5.833  18.191  19.934  0.00  0.00    +0.000 A 
ATOM     26  C   UNL     1      -7.027  18.513  20.576  0.00  0.00    +0.000 A 
ATOM     27  C   UNL     1      -7.604  17.603  21.458  0.00  0.00    +0.000 A 
ATOM     28  C   UNL     1      -6.975  16.382  21.715  0.00  0.00    +0.000 A 
ENDBRANCH  22  23
ENDBRANCH  18  21
ENDBRANCH  11  19
ENDBRANCH   1  14
BRANCH   5  29
ATOM     29  N   UNL     1       4.173   4.702  17.538  0.00  0.00    +0.000 N 
ATOM     30  C   UNL     1       5.451   5.110  17.172  0.00  0.00    +0.000 C 
ATOM     31  O   UNL     1       6.130   5.961  17.738  0.00  0.00    +0.000 OA
ATOM     32  H   UNL     1       3.780   3.883  17.094  0.00  0.00    +0.000 HD
BRANCH  30  33
ATOM     33  C   UNL     1       6.016   4.383  15.999  0.00  0.00    +0.000 C 
ATOM     34  C   UNL     1       5.520   4.658  14.775  0.00  0.00    +0.000 C 
BRANCH  34  35
ATOM     35  C   UNL     1       5.933   4.022  13.513  0.00  0.00    +0.000 A 
ATOM     36  C   UNL     1       5.045   3.141  12.874  0.00  0.00    +0.000 A 
ATOM     37  C   UNL     1       5.392   2.525  11.667  0.00  0.00    +0.000 A 
ATOM     38  C   UNL     1       6.623   2.797  11.076  0.00  0.00    +0.000 A 
ATOM     39  C   UNL     1       7.502   3.689  11.686  0.00  0.00    +0.000 A 
ATOM     40  C   UNL     1       7.155   4.303  12.894  0.00  0.00    +0.000 A 
ENDBRANCH  34  35
ENDBRANCH  30  33
ENDBRANCH   5  29
TORSDOF 7
ENDMDL
MODEL 4
REMARK VINA RESULT:      -7.1      1.576      1.824
REMARK  Name = 
REMARK  7 active torsions:
REMARK  status: ('A' for Active; 'I' for Inactive)
REMARK    1  A    between atoms: C_2  and  C_3
REMARK    2  A    between atoms: C_4  and  C_5
REMARK    3  A    between atoms: N_11  and  C_12
REMARK    4  A    between atoms: C_15  and  C_16
REMARK    5  A    between atoms: C_20  and  N_21
REMARK    6  A    between atoms: C_22  and  C_24
REMARK    7  A    between atoms: C_25  and  C_26
REMARK                            x       y       z     vdW  Elec       q    Type
REMARK                         _______ _______ _______ _____ _____    ______ ____
ROOT
ATOM      1  C   UNL     1       1.057   8.321  21.207  0.00  0.00    +0.000 A 
ATOM      2  N   UNL     1       1.623   8.350  20.016  0.00  0.00    +0.000 NA
ATOM      3  C   UNL     1       2.172   7.127  19.811  0.00  0.00    +0.000 A 
ATOM      4  C   UNL     1       2.869   6.687  18.683  0.00  0.00    +0.000 A 
ATOM      5  C   UNL     1       3.338   5.378  18.614  0.00  0.00    +0.000 A 
ATOM      6  C   UNL     1       3.062   4.513  19.687  0.00  0.00    +0.000 A 
ATOM      7  C   UNL     1       2.395   4.952  20.862  0.00  0.00    +0.000 A 
ATOM      8  C   UNL     1       1.960   6.286  20.887  0.00  0.00    +0.000 A 
ATOM      9  N   UNL     1       1.304   7.096  21.805  0.00  0.00    +0.000 N 
ATOM     10  H   UNL     1       1.078   6.851  22.759  0.00  0.00    +0.000 HD
ENDROOT
BRANCH   1  14
ATOM     11  C   UNL     1      -1.240  11.789  22.341  0.00  0.00    +0.000 A 
ATOM     12  C   UNL     1      -1.320  10.624  23.115  0.00  0.00    +0.000 A 
ATOM     13  C   UNL     1      -0.542   9.480  22.814  0.00  0.00    +0.000 A 
ATOM     14  C   UNL     1       0.328   9.487  21.724  0.00  0.00    +0.000 A 
ATOM     15  C   UNL     1       0.414  10.672  20.970  0.00  0.00    +0.000 A 
ATOM     16  C   UNL     1      -0.345  11.806  21.272  0.00  0.00    +0.000 A 
BRANCH  11  19
ATOM     17  O   UNL     1      -3.701  12.167  23.969  0.00  0.00    +0.000 OA
ATOM     18  C   UNL     1      -3.197  13.053  23.286  0.00  0.00    +0.000 C 
ATOM     19  N   UNL     1      -2.033  12.945  22.537  0.00  0.00    +0.000 N 
ATOM     20  H   UNL     1      -1.734  13.771  22.025  0.00  0.00    +0.000 HD
BRANCH  18  21
ATOM     21  C   UNL     1      -3.826  14.399  23.188  0.00  0.00    +0.000 C 
ATOM     22  C   UNL     1      -5.127  14.579  23.487  0.00  0.00    +0.000 C 
BRANCH  22  23
ATOM     23  C   UNL     1      -5.830  15.871  23.367  0.00  0.00    +0.000 A 
ATOM     24  C   UNL     1      -7.226  15.919  23.494  0.00  0.00    +0.000 A 
ATOM     25  C   UNL     1      -7.917  17.127  23.340  0.00  0.00    +0.000 A 
ATOM     26  C   UNL     1      -7.219  18.304  23.079  0.00  0.00    +0.000 A 
ATOM     27  C   UNL     1      -5.829  18.278  22.994  0.00  0.00    +0.000 A 
ATOM     28  C   UNL     1      -5.140  17.072  23.147  0.00  0.00    +0.000 A 
ENDBRANCH  22  23
ENDBRANCH  18  21
ENDBRANCH  11  19
ENDBRANCH   1  14
BRANCH   5  29
ATOM     29  N   UNL     1       4.060   4.919  17.475  0.00  0.00    +0.000 N 
ATOM     30  C   UNL     1       4.349   3.584  17.216  0.00  0.00    +0.000 C 
ATOM     31  O   UNL     1       3.952   2.618  17.860  0.00  0.00    +0.000 OA
ATOM     32  H   UNL     1       4.311   5.612  16.784  0.00  0.00    +0.000 HD
BRANCH  30  33
ATOM     33  C   UNL     1       5.190   3.362  16.005  0.00  0.00    +0.000 C 
ATOM     34  C   UNL     1       5.370   4.391  15.152  0.00  0.00    +0.000 C 
BRANCH  34  35
ATOM     35  C   UNL     1       6.140   4.350  13.898  0.00  0.00    +0.000 A 
ATOM     36  C   UNL     1       7.182   5.272  13.710  0.00  0.00    +0.000 A 
ATOM     37  C   UNL     1       7.947   5.260  12.538  0.00  0.00    +0.000 A 
ATOM     38  C   UNL     1       7.691   4.313  11.551  0.00  0.00    +0.000 A 
ATOM     39  C   UNL     1       6.677   3.376  11.736  0.00  0.00    +0.000 A 
ATOM     40  C   UNL     1       5.912   3.390  12.907  0.00  0.00    +0.000 A 
ENDBRANCH  34  35
ENDBRANCH  30  33
ENDBRANCH   5  29
TORSDOF 7
ENDMDL
MODEL 5
REMARK VINA RESULT:      -7.1      1.333      1.642
REMARK  Name = 
REMARK  7 active torsions:
REMARK  status: ('A' for Active; 'I' for Inactive)
REMARK    1  A    between atoms: C_2  and  C_3
REMARK    2  A    between atoms: C_4  and  C_5
REMARK    3  A    between atoms: N_11  and  C_12
REMARK    4  A    between atoms: C_15  and  C_16
REMARK    5  A    between atoms: C_20  and  N_21
REMARK    6  A    between atoms: C_22  and  C_24
REMARK    7  A    between atoms: C_25  and  C_26
REMARK                            x       y       z     vdW  Elec       q    Type
REMARK                         _______ _______ _______ _____ _____    ______ ____
ROOT
ATOM      1  C   UNL     1       1.619   8.844  19.525  0.00  0.00    +0.000 A 
ATOM      2  N   UNL     1       2.238   8.725  18.367  0.00  0.00    +0.000 NA
ATOM      3  C   UNL     1       2.794   7.488  18.343  0.00  0.00    +0.000 A 
ATOM      4  C   UNL     1       3.542   6.913  17.313  0.00  0.00    +0.000 A 
ATOM      5  C   UNL     1       4.012   5.607  17.431  0.00  0.00    +0.000 A 
ATOM      6  C   UNL     1       3.686   4.883  18.591  0.00  0.00    +0.000 A 
ATOM      7  C   UNL     1       2.966   5.465  19.669  0.00  0.00    +0.000 A 
ATOM      8  C   UNL     1       2.533   6.789  19.506  0.00  0.00    +0.000 A 
ATOM      9  N   UNL     1       1.837   7.705  20.284  0.00  0.00    +0.000 N 
ATOM     10  H   UNL     1       1.568   7.582  21.250  0.00  0.00    +0.000 HD
ENDROOT
BRANCH   1  14
ATOM     11  C   UNL     1      -0.868  12.172  20.679  0.00  0.00    +0.000 A 
ATOM     12  C   UNL     1       0.498  12.191  20.987  0.00  0.00    +0.000 A 
ATOM     13  C   UNL     1       1.364  11.148  20.580  0.00  0.00    +0.000 A 
ATOM     14  C   UNL     1       0.868  10.063  19.858  0.00  0.00    +0.000 A 
ATOM     15  C   UNL     1      -0.501  10.068  19.536  0.00  0.00    +0.000 A 
ATOM     16  C   UNL     1      -1.356  11.102  19.928  0.00  0.00    +0.000 A 
BRANCH  11  19
ATOM     17  O   UNL     1      -2.837  12.070  22.908  0.00  0.00    +0.000 OA
ATOM     18  C   UNL     1      -2.729  13.021  22.140  0.00  0.00    +0.000 C 
ATOM     19  N   UNL     1      -1.808  13.140  21.109  0.00  0.00    +0.000 N 
ATOM     20  H   UNL     1      -1.835  13.994  20.560  0.00  0.00    +0.000 HD
BRANCH  18  21
ATOM     21  C   UNL     1      -3.631  14.200  22.249  0.00  0.00    +0.000 C 
ATOM     22  C   UNL     1      -4.958  14.044  22.416  0.00  0.00    +0.000 C 
BRANCH  22  23
ATOM     23  C   UNL     1      -5.919  15.162  22.483  0.00  0.00    +0.000 A 
ATOM     24  C   UNL     1      -5.786  16.136  23.484  0.00  0.00    +0.000 A 
ATOM     25  C   UNL     1      -6.711  17.181  23.593  0.00  0.00    +0.000 A 
ATOM     26  C   UNL     1      -7.768  17.276  22.690  0.00  0.00    +0.000 A 
ATOM     27  C   UNL     1      -7.887  16.341  21.666  0.00  0.00    +0.000 A 
ATOM     28  C   UNL     1      -6.964  15.298  21.558  0.00  0.00    +0.000 A 
ENDBRANCH  22  23
ENDBRANCH  18  21
ENDBRANCH  11  19
ENDBRANCH   1  14
BRANCH   5  29
ATOM     29  N   UNL     1       4.784   5.012  16.392  0.00  0.00    +0.000 N 
ATOM     30  C   UNL     1       5.971   5.539  15.899  0.00  0.00    +0.000 C 
ATOM     31  O   UNL     1       6.568   6.517  16.337  0.00  0.00    +0.000 OA
ATOM     32  H   UNL     1       4.474   4.112  16.051  0.00  0.00    +0.000 HD
BRANCH  30  33
ATOM     33  C   UNL     1       6.551   4.780  14.754  0.00  0.00    +0.000 C 
ATOM     34  C   UNL     1       5.716   4.071  13.966  0.00  0.00    +0.000 C 
BRANCH  34  35
ATOM     35  C   UNL     1       6.109   3.242  12.815  0.00  0.00    +0.000 A 
ATOM     36  C   UNL     1       5.133   2.462  12.175  0.00  0.00    +0.000 A 
ATOM     37  C   UNL     1       5.461   1.669  11.069  0.00  0.00    +0.000 A 
ATOM     38  C   UNL     1       6.764   1.664  10.580  0.00  0.00    +0.000 A 
ATOM     39  C   UNL     1       7.736   2.454  11.190  0.00  0.00    +0.000 A 
ATOM     40  C   UNL     1       7.409   3.244  12.296  0.00  0.00    +0.000 A 
ENDBRANCH  34  35
ENDBRANCH  30  33
ENDBRANCH   5  29
TORSDOF 7
ENDMDL
MODEL 6
REMARK VINA RESULT:      -7.0      1.290      1.372
REMARK  Name = 
REMARK  7 active torsions:
REMARK  status: ('A' for Active; 'I' for Inactive)
REMARK    1  A    between atoms: C_2  and  C_3
REMARK    2  A    between atoms: C_4  and  C_5
REMARK    3  A    between atoms: N_11  and  C_12
REMARK    4  A    between atoms: C_15  and  C_16
REMARK    5  A    between atoms: C_20  and  N_21
REMARK    6  A    between atoms: C_22  and  C_24
REMARK    7  A    between atoms: C_25  and  C_26
REMARK                            x       y       z     vdW  Elec       q    Type
REMARK                         _______ _______ _______ _____ _____    ______ ____
ROOT
ATOM      1  C   UNL     1       1.466   8.573  20.531  0.00  0.00    +0.000 A 
ATOM      2  N   UNL     1       2.004   8.628  19.328  0.00  0.00    +0.000 NA
ATOM      3  C   UNL     1       2.532   7.405  19.076  0.00  0.00    +0.000 A 
ATOM      4  C   UNL     1       3.198   6.989  17.920  0.00  0.00    +0.000 A 
ATOM      5  C   UNL     1       3.649   5.677  17.803  0.00  0.00    +0.000 A 
ATOM      6  C   UNL     1       3.389   4.786  18.859  0.00  0.00    +0.000 A 
ATOM      7  C   UNL     1       2.755   5.200  20.061  0.00  0.00    +0.000 A 
ATOM      8  C   UNL     1       2.337   6.537  20.133  0.00  0.00    +0.000 A 
ATOM      9  N   UNL     1       1.713   7.328  21.089  0.00  0.00    +0.000 N 
ATOM     10  H   UNL     1       1.508   7.060  22.041  0.00  0.00    +0.000 HD
ENDROOT
BRANCH   1  14
ATOM     11  C   UNL     1      -0.874  11.930  21.887  0.00  0.00    +0.000 A 
ATOM     12  C   UNL     1      -0.508  10.931  22.797  0.00  0.00    +0.000 A 
ATOM     13  C   UNL     1       0.307   9.839  22.411  0.00  0.00    +0.000 A 
ATOM     14  C   UNL     1       0.763   9.732  21.098  0.00  0.00    +0.000 A 
ATOM     15  C   UNL     1       0.406  10.754  20.200  0.00  0.00    +0.000 A 
ATOM     16  C   UNL     1      -0.389  11.839  20.583  0.00  0.00    +0.000 A 
BRANCH  11  19
ATOM     17  O   UNL     1      -3.586  11.935  23.111  0.00  0.00    +0.000 OA
ATOM     18  C   UNL     1      -3.015  12.949  22.723  0.00  0.00    +0.000 C 
ATOM     19  N   UNL     1      -1.739  13.012  22.179  0.00  0.00    +0.000 N 
ATOM     20  H   UNL     1      -1.396  13.930  21.909  0.00  0.00    +0.000 HD
BRANCH  18  21
ATOM     21  C   UNL     1      -3.678  14.280  22.800  0.00  0.00    +0.000 C 
ATOM     22  C   UNL     1      -4.354  14.779  21.748  0.00  0.00    +0.000 C 
BRANCH  22  23
ATOM     23  C   UNL     1      -4.994  16.109  21.734  0.00  0.00    +0.000 A 
ATOM     24  C   UNL     1      -5.454  16.674  22.932  0.00  0.00    +0.000 A 
ATOM     25  C   UNL     1      -6.104  17.914  22.936  0.00  0.00    +0.000 A 
ATOM     26  C   UNL     1      -6.281  18.614  21.744  0.00  0.00    +0.000 A 
ATOM     27  C   UNL     1      -5.791  18.085  20.554  0.00  0.00    +0.000 A 
ATOM     28  C   UNL     1      -5.143  16.846  20.551  0.00  0.00    +0.000 A 
ENDBRANCH  22  23
ENDBRANCH  18  21
ENDBRANCH  11  19
ENDBRANCH   1  14
BRANCH   5  29
ATOM     29  N   UNL     1       4.338   5.242  16.635  0.00  0.00    +0.000 N 
ATOM     30  C   UNL     1       5.511   5.815  16.158  0.00  0.00    +0.000 C 
ATOM     31  O   UNL     1       6.166   6.692  16.711  0.00  0.00    +0.000 OA
ATOM     32  H   UNL     1       3.977   4.418  16.172  0.00  0.00    +0.000 HD
BRANCH  30  33
ATOM     33  C   UNL     1       5.996   5.241  14.870  0.00  0.00    +0.000 C 
ATOM     34  C   UNL     1       5.308   4.215  14.327  0.00  0.00    +0.000 C 
BRANCH  34  35
ATOM     35  C   UNL     1       5.652   3.507  13.083  0.00  0.00    +0.000 A 
ATOM     36  C   UNL     1       6.996   3.452  12.681  0.00  0.00    +0.000 A 
ATOM     37  C   UNL     1       7.367   2.779  11.512  0.00  0.00    +0.000 A 
ATOM     38  C   UNL     1       6.401   2.137  10.743  0.00  0.00    +0.000 A 
ATOM     39  C   UNL     1       5.068   2.161  11.144  0.00  0.00    +0.000 A 
ATOM     40  C   UNL     1       4.696   2.836  12.312  0.00  0.00    +0.000 A 
ENDBRANCH  34  35
ENDBRANCH  30  33
ENDBRANCH   5  29
TORSDOF 7
ENDMDL
MODEL 7
REMARK VINA RESULT:      -6.3      1.958      2.318
REMARK  Name = 
REMARK  7 active torsions:
REMARK  status: ('A' for Active; 'I' for Inactive)
REMARK    1  A    between atoms: C_2  and  C_3
REMARK    2  A    between atoms: C_4  and  C_5
REMARK    3  A    between atoms: N_11  and  C_12
REMARK    4  A    between atoms: C_15  and  C_16
REMARK    5  A    between atoms: C_20  and  N_21
REMARK    6  A    between atoms: C_22  and  C_24
REMARK    7  A    between atoms: C_25  and  C_26
REMARK                            x       y       z     vdW  Elec       q    Type
REMARK                         _______ _______ _______ _____ _____    ______ ____
ROOT
ATOM      1  C   UNL     1       1.378   7.335  20.832  0.00  0.00    +0.000 A 
ATOM      2  N   UNL     1       2.129   7.495  19.760  0.00  0.00    +0.000 NA
ATOM      3  C   UNL     1       2.558   6.262  19.392  0.00  0.00    +0.000 A 
ATOM      4  C   UNL     1       3.374   5.936  18.306  0.00  0.00    +0.000 A 
ATOM      5  C   UNL     1       3.692   4.606  18.042  0.00  0.00    +0.000 A 
ATOM      6  C   UNL     1       3.147   3.612  18.872  0.00  0.00    +0.000 A 
ATOM      7  C   UNL     1       2.353   3.925  20.008  0.00  0.00    +0.000 A 
ATOM      8  C   UNL     1       2.078   5.282  20.239  0.00  0.00    +0.000 A 
ATOM      9  N   UNL     1       1.380   5.999  21.202  0.00  0.00    +0.000 N 
ATOM     10  H   UNL     1       0.976   5.623  22.047  0.00  0.00    +0.000 HD
ENDROOT
BRANCH   1  14
ATOM     11  C   UNL     1      -0.652  10.840  22.309  0.00  0.00    +0.000 A 
ATOM     12  C   UNL     1      -1.000   9.579  22.808  0.00  0.00    +0.000 A 
ATOM     13  C   UNL     1      -0.323   8.406  22.395  0.00  0.00    +0.000 A 
ATOM     14  C   UNL     1       0.714   8.483  21.466  0.00  0.00    +0.000 A 
ATOM     15  C   UNL     1       1.068   9.759  20.991  0.00  0.00    +0.000 A 
ATOM     16  C   UNL     1       0.408  10.919  21.406  0.00  0.00    +0.000 A 
BRANCH  11  19
ATOM     17  O   UNL     1      -2.784  12.283  20.818  0.00  0.00    +0.000 OA
ATOM     18  C   UNL     1      -2.293  12.692  21.865  0.00  0.00    +0.000 C 
ATOM     19  N   UNL     1      -1.324  12.047  22.621  0.00  0.00    +0.000 N 
ATOM     20  H   UNL     1      -1.018  12.509  23.473  0.00  0.00    +0.000 HD
BRANCH  18  21
ATOM     21  C   UNL     1      -2.710  13.996  22.450  0.00  0.00    +0.000 C 
ATOM     22  C   UNL     1      -1.798  14.869  22.919  0.00  0.00    +0.000 C 
BRANCH  22  23
ATOM     23  C   UNL     1      -2.139  16.156  23.556  0.00  0.00    +0.000 A 
ATOM     24  C   UNL     1      -2.983  16.178  24.676  0.00  0.00    +0.000 A 
ATOM     25  C   UNL     1      -3.355  17.390  25.268  0.00  0.00    +0.000 A 
ATOM     26  C   UNL     1      -2.869  18.594  24.762  0.00  0.00    +0.000 A 
ATOM     27  C   UNL     1      -1.996  18.584  23.678  0.00  0.00    +0.000 A 
ATOM     28  C   UNL     1      -1.626  17.373  23.086  0.00  0.00    +0.000 A 
ENDBRANCH  22  23
ENDBRANCH  18  21
ENDBRANCH  11  19
ENDBRANCH   1  14
BRANCH   5  29
ATOM     29  N   UNL     1       4.531   4.260  16.944  0.00  0.00    +0.000 N 
ATOM     30  C   UNL     1       5.920   4.325  16.968  0.00  0.00    +0.000 C 
ATOM     31  O   UNL     1       6.616   4.589  17.942  0.00  0.00    +0.000 OA
ATOM     32  H   UNL     1       4.078   3.877  16.125  0.00  0.00    +0.000 HD
BRANCH  30  33
ATOM     33  C   UNL     1       6.572   3.993  15.669  0.00  0.00    +0.000 C 
ATOM     34  C   UNL     1       5.802   3.925  14.563  0.00  0.00    +0.000 C 
BRANCH  34  35
ATOM     35  C   UNL     1       6.264   3.584  13.208  0.00  0.00    +0.000 A 
ATOM     36  C   UNL     1       5.780   2.415  12.599  0.00  0.00    +0.000 A 
ATOM     37  C   UNL     1       6.184   2.061  11.307  0.00  0.00    +0.000 A 
ATOM     38  C   UNL     1       7.061   2.881  10.603  0.00  0.00    +0.000 A 
ATOM     39  C   UNL     1       7.528   4.057  11.186  0.00  0.00    +0.000 A 
ATOM     40  C   UNL     1       7.126   4.410  12.478  0.00  0.00    +0.000 A 
ENDBRANCH  34  35
ENDBRANCH  30  33
ENDBRANCH   5  29
TORSDOF 7
ENDMDL
MODEL 8
REMARK VINA RESULT:      -6.2      1.292     14.525
REMARK  Name = 
REMARK  7 active torsions:
REMARK  status: ('A' for Active; 'I' for Inactive)
REMARK    1  A    between atoms: C_2  and  C_3
REMARK    2  A    between atoms: C_4  and  C_5
REMARK    3  A    between atoms: N_11  and  C_12
REMARK    4  A    between atoms: C_15  and  C_16
REMARK    5  A    between atoms: C_20  and  N_21
REMARK    6  A    between atoms: C_22  and  C_24
REMARK    7  A    between atoms: C_25  and  C_26
REMARK                            x       y       z     vdW  Elec       q    Type
REMARK                         _______ _______ _______ _____ _____    ______ ____
ROOT
ATOM      1  C   UNL     1       1.412   7.940  20.324  0.00  0.00    +0.000 A 
ATOM      2  N   UNL     1       1.088   9.130  19.859  0.00  0.00    +0.000 NA
ATOM      3  C   UNL     1       0.406   9.767  20.844  0.00  0.00    +0.000 A 
ATOM      4  C   UNL     1      -0.129  11.056  20.809  0.00  0.00    +0.000 A 
ATOM      5  C   UNL     1      -0.772  11.580  21.929  0.00  0.00    +0.000 A 
ATOM      6  C   UNL     1      -0.836  10.792  23.091  0.00  0.00    +0.000 A 
ATOM      7  C   UNL     1      -0.338   9.461  23.132  0.00  0.00    +0.000 A 
ATOM      8  C   UNL     1       0.284   8.977  21.971  0.00  0.00    +0.000 A 
ATOM      9  N   UNL     1       0.874   7.778  21.592  0.00  0.00    +0.000 N 
ATOM     10  H   UNL     1       0.879   6.922  22.128  0.00  0.00    +0.000 HD
ENDROOT
BRANCH   1  14
ATOM     11  C   UNL     1       3.807   5.507  17.691  0.00  0.00    +0.000 A 
ATOM     12  C   UNL     1       4.070   5.502  19.066  0.00  0.00    +0.000 A 
ATOM     13  C   UNL     1       3.276   6.241  19.976  0.00  0.00    +0.000 A 
ATOM     14  C   UNL     1       2.203   7.003  19.515  0.00  0.00    +0.000 A 
ATOM     15  C   UNL     1       1.936   6.980  18.134  0.00  0.00    +0.000 A 
ATOM     16  C   UNL     1       2.713   6.243  17.236  0.00  0.00    +0.000 A 
BRANCH  11  19
ATOM     17  O   UNL     1       6.764   5.370  17.395  0.00  0.00    +0.000 OA
ATOM     18  C   UNL     1       5.978   4.851  16.608  0.00  0.00    +0.000 C 
ATOM     19  N   UNL     1       4.594   4.852  16.714  0.00  0.00    +0.000 N 
ATOM     20  H   UNL     1       4.074   4.372  15.984  0.00  0.00    +0.000 HD
BRANCH  18  21
ATOM     21  C   UNL     1       6.466   4.138  15.395  0.00  0.00    +0.000 C 
ATOM     22  C   UNL     1       5.784   4.199  14.235  0.00  0.00    +0.000 C 
BRANCH  22  23
ATOM     23  C   UNL     1       6.179   3.481  13.008  0.00  0.00    +0.000 A 
ATOM     24  C   UNL     1       5.306   2.542  12.438  0.00  0.00    +0.000 A 
ATOM     25  C   UNL     1       5.678   1.817  11.300  0.00  0.00    +0.000 A 
ATOM     26  C   UNL     1       6.918   2.038  10.705  0.00  0.00    +0.000 A 
ATOM     27  C   UNL     1       7.777   2.998  11.234  0.00  0.00    +0.000 A 
ATOM     28  C   UNL     1       7.405   3.720  12.371  0.00  0.00    +0.000 A 
ENDBRANCH  22  23
ENDBRANCH  18  21
ENDBRANCH  11  19
ENDBRANCH   1  14
BRANCH   5  29
ATOM     29  N   UNL     1      -1.332  12.889  21.904  0.00  0.00    +0.000 N 
ATOM     30  C   UNL     1      -0.633  14.046  22.229  0.00  0.00    +0.000 C 
ATOM     31  O   UNL     1       0.565  14.122  22.483  0.00  0.00    +0.000 OA
ATOM     32  H   UNL     1      -2.278  12.975  21.559  0.00  0.00    +0.000 HD
BRANCH  30  33
ATOM     33  C   UNL     1      -1.459  15.288  22.211  0.00  0.00    +0.000 C 
ATOM     34  C   UNL     1      -2.564  15.311  21.438  0.00  0.00    +0.000 C 
BRANCH  34  35
ATOM     35  C   UNL     1      -3.479  16.452  21.273  0.00  0.00    +0.000 A 
ATOM     36  C   UNL     1      -4.691  16.460  21.982  0.00  0.00    +0.000 A 
ATOM     37  C   UNL     1      -5.584  17.530  21.864  0.00  0.00    +0.000 A 
ATOM     38  C   UNL     1      -5.266  18.613  21.049  0.00  0.00    +0.000 A 
ATOM     39  C   UNL     1      -4.056  18.630  20.360  0.00  0.00    +0.000 A 
ATOM     40  C   UNL     1      -3.164  17.559  20.477  0.00  0.00    +0.000 A 
ENDBRANCH  34  35
ENDBRANCH  30  33
ENDBRANCH   5  29
TORSDOF 7
ENDMDL
MODEL 9
REMARK VINA RESULT:      -5.4      2.232      2.488
REMARK  Name = 
REMARK  7 active torsions:
REMARK  status: ('A' for Active; 'I' for Inactive)
REMARK    1  A    between atoms: C_2  and  C_3
REMARK    2  A    between atoms: C_4  and  C_5
REMARK    3  A    between atoms: N_11  and  C_12
REMARK    4  A    between atoms: C_15  and  C_16
REMARK    5  A    between atoms: C_20  and  N_21
REMARK    6  A    between atoms: C_22  and  C_24
REMARK    7  A    between atoms: C_25  and  C_26
REMARK                            x       y       z     vdW  Elec       q    Type
REMARK                         _______ _______ _______ _____ _____    ______ ____
ROOT
ATOM      1  C   UNL     1       1.567   7.176  20.484  0.00  0.00    +0.000 A 
ATOM      2  N   UNL     1       2.073   7.424  19.292  0.00  0.00    +0.000 NA
ATOM      3  C   UNL     1       2.589   6.257  18.833  0.00  0.00    +0.000 A 
ATOM      4  C   UNL     1       3.222   6.032  17.608  0.00  0.00    +0.000 A 
ATOM      5  C   UNL     1       3.664   4.755  17.270  0.00  0.00    +0.000 A 
ATOM      6  C   UNL     1       3.427   3.706  18.175  0.00  0.00    +0.000 A 
ATOM      7  C   UNL     1       2.827   3.922  19.445  0.00  0.00    +0.000 A 
ATOM      8  C   UNL     1       2.417   5.231  19.742  0.00  0.00    +0.000 A 
ATOM      9  N   UNL     1       1.821   5.858  20.828  0.00  0.00    +0.000 N 
ATOM     10  H   UNL     1       1.639   5.440  21.730  0.00  0.00    +0.000 HD
ENDROOT
BRANCH   1  14
ATOM     11  C   UNL     1      -0.441  10.491  22.374  0.00  0.00    +0.000 A 
ATOM     12  C   UNL     1      -0.957   9.197  22.519  0.00  0.00    +0.000 A 
ATOM     13  C   UNL     1      -0.302   8.071  21.965  0.00  0.00    +0.000 A 
ATOM     14  C   UNL     1       0.884   8.230  21.248  0.00  0.00    +0.000 A 
ATOM     15  C   UNL     1       1.402   9.532  21.129  0.00  0.00    +0.000 A 
ATOM     16  C   UNL     1       0.762  10.643  21.686  0.00  0.00    +0.000 A 
BRANCH  11  19
ATOM     17  O   UNL     1      -2.313  12.336  20.981  0.00  0.00    +0.000 OA
ATOM     18  C   UNL     1      -1.914  12.513  22.128  0.00  0.00    +0.000 C 
ATOM     19  N   UNL     1      -1.072  11.670  22.839  0.00  0.00    +0.000 N 
ATOM     20  H   UNL     1      -0.833  11.947  23.788  0.00  0.00    +0.000 HD
BRANCH  18  21
ATOM     21  C   UNL     1      -2.316  13.719  22.902  0.00  0.00    +0.000 C 
ATOM     22  C   UNL     1      -1.587  14.849  22.852  0.00  0.00    +0.000 C 
BRANCH  22  23
ATOM     23  C   UNL     1      -1.895  16.066  23.628  0.00  0.00    +0.000 A 
ATOM     24  C   UNL     1      -2.392  15.951  24.935  0.00  0.00    +0.000 A 
ATOM     25  C   UNL     1      -2.733  17.091  25.673  0.00  0.00    +0.000 A 
ATOM     26  C   UNL     1      -2.561  18.359  25.123  0.00  0.00    +0.000 A 
ATOM     27  C   UNL     1      -2.028  18.489  23.843  0.00  0.00    +0.000 A 
ATOM     28  C   UNL     1      -1.689  17.351  23.106  0.00  0.00    +0.000 A 
ENDBRANCH  22  23
ENDBRANCH  18  21
ENDBRANCH  11  19
ENDBRANCH   1  14
BRANCH   5  29
ATOM     29  N   UNL     1       4.321   4.514  16.030  0.00  0.00    +0.000 N 
ATOM     30  C   UNL     1       5.170   5.418  15.403  0.00  0.00    +0.000 C 
ATOM     31  O   UNL     1       5.551   6.491  15.860  0.00  0.00    +0.000 OA
ATOM     32  H   UNL     1       4.208   3.594  15.625  0.00  0.00    +0.000 HD
BRANCH  30  33
ATOM     33  C   UNL     1       5.669   4.971  14.071  0.00  0.00    +0.000 C 
ATOM     34  C   UNL     1       5.740   3.647  13.824  0.00  0.00    +0.000 C 
BRANCH  34  35
ATOM     35  C   UNL     1       6.230   3.023  12.585  0.00  0.00    +0.000 A 
ATOM     36  C   UNL     1       7.451   3.456  12.044  0.00  0.00    +0.000 A 
ATOM     37  C   UNL     1       7.961   2.882  10.874  0.00  0.00    +0.000 A 
ATOM     38  C   UNL     1       7.264   1.855  10.243  0.00  0.00    +0.000 A 
ATOM     39  C   UNL     1       6.064   1.398  10.784  0.00  0.00    +0.000 A 
ATOM     40  C   UNL     1       5.555   1.974  11.953  0.00  0.00    +0.000 A 
ENDBRANCH  34  35
ENDBRANCH  30  33
ENDBRANCH   5  29
TORSDOF 7
ENDMDL
