MODEL 1
REMARK VINA RESULT:      -8.3      0.000      0.000
REMARK  Name = 
REMARK  5 active torsions:
REMARK  status: ('A' for Active; 'I' for Inactive)
REMARK    1  A    between atoms: C_1  and  O_2
REMARK    2  A    between atoms: O_2  and  C_3
REMARK    3  A    between atoms: C_3  and  C_5
REMARK    4  A    between atoms: C_6  and  N_7
REMARK    5  A    between atoms: N_17  and  O_18
REMARK                            x       y       z     vdW  Elec       q    Type
REMARK                         _______ _______ _______ _____ _____    ______ ____
ROOT
ATOM      1  N   UNL     1       4.677   5.065  17.910  0.00  0.00    +0.000 N 
ATOM      2  C   UNL     1       3.671   6.046  17.874  0.00  0.00    +0.000 C 
ATOM      3  O   UNL     1       3.727   7.092  17.224  0.00  0.00    +0.000 OA
ATOM      4  N   UNL     1       2.513   5.778  18.561  0.00  0.00    +0.000 N 
ATOM      5  C   UNL     1       2.321   4.640  19.334  0.00  0.00    +0.000 A 
ATOM      6  C   UNL     1       1.093   4.414  19.955  0.00  0.00    +0.000 A 
ATOM      7  C   UNL     1       0.956   3.343  20.837  0.00  0.00    +0.000 A 
ATOM      8  C   UNL     1       2.044   2.512  21.097  0.00  0.00    +0.000 A 
ATOM      9  C   UNL     1       3.252   2.716  20.428  0.00  0.00    +0.000 A 
ATOM     10  C   UNL     1       3.397   3.771  19.516  0.00  0.00    +0.000 A 
ATOM     11  N   UNL     1       4.595   3.965  18.796  0.00  0.00    +0.000 N 
ATOM     12  H   UNL     1       1.773   6.455  18.441  0.00  0.00    +0.000 HD
ENDROOT
BRANCH   1  14
ATOM     13  C   UNL     1       6.496   5.315  16.166  0.00  0.00    +0.000 A 
ATOM     14  C   UNL     1       5.293   4.840  16.673  0.00  0.00    +0.000 A 
ATOM     15  S   UNL     1       4.424   3.882  15.560  0.00  0.00    +0.000 S 
ATOM     16  C   UNL     1       5.582   4.140  14.345  0.00  0.00    +0.000 A 
ATOM     17  C   UNL     1       6.649   4.908  14.777  0.00  0.00    +0.000 A 
ATOM     18  C   UNL     1       7.804   5.203  13.854  0.00  0.00    +0.000 C 
ATOM     19  C   UNL     1       7.415   5.020  12.376  0.00  0.00    +0.000 C 
ATOM     20  C   UNL     1       6.686   3.691  12.142  0.00  0.00    +0.000 C 
ATOM     21  C   UNL     1       5.393   3.593  12.962  0.00  0.00    +0.000 C 
BRANCH  13  22
ATOM     22  C   UNL     1       7.451   6.086  16.954  0.00  0.00    +0.000 C 
ATOM     23  O   UNL     1       7.760   7.249  16.688  0.00  0.00    +0.000 OA
BRANCH  22  25
ATOM     24  C   UNL     1       7.916   6.004  19.252  0.00  0.00    +0.000 C 
ATOM     25  O   UNL     1       7.998   5.381  17.982  0.00  0.00    +0.000 OA
ENDBRANCH  22  25
ENDBRANCH  13  22
ENDBRANCH   1  14
BRANCH  11  26
ATOM     26  O   UNL     1       5.790   3.395  19.239  0.00  0.00    +0.000 OA
ATOM     27  H   UNL     1       6.310   4.172  19.512  0.00  0.00    +0.000 HD
ENDBRANCH  11  26
TORSDOF 4
ENDMDL
MODEL 2
REMARK VINA RESULT:      -6.7      2.951      6.991
REMARK  Name = 
REMARK  5 active torsions:
REMARK  status: ('A' for Active; 'I' for Inactive)
REMARK    1  A    between atoms: C_1  and  O_2
REMARK    2  A    between atoms: O_2  and  C_3
REMARK    3  A    between atoms: C_3  and  C_5
REMARK    4  A    between atoms: C_6  and  N_7
REMARK    5  A    between atoms: N_17  and  O_18
REMARK                            x       y       z     vdW  Elec       q    Type
REMARK                         _______ _______ _______ _____ _____    ______ ____
ROOT
ATOM      1  N   UNL     1       3.581   5.024  18.460  0.00  0.00    +0.000 N 
ATOM      2  C   UNL     1       2.862   4.364  17.448  0.00  0.00    +0.000 C 
ATOM      3  O   UNL     1       1.669   4.057  17.513  0.00  0.00    +0.000 OA
ATOM      4  N   UNL     1       3.526   4.109  16.274  0.00  0.00    +0.000 N 
ATOM      5  C   UNL     1       4.870   4.401  16.070  0.00  0.00    +0.000 A 
ATOM      6  C   UNL     1       5.456   4.163  14.827  0.00  0.00    +0.000 A 
ATOM      7  C   UNL     1       6.832   4.330  14.674  0.00  0.00    +0.000 A 
ATOM      8  C   UNL     1       7.610   4.724  15.761  0.00  0.00    +0.000 A 
ATOM      9  C   UNL     1       7.004   5.011  16.986  0.00  0.00    +0.000 A 
ATOM     10  C   UNL     1       5.617   4.877  17.147  0.00  0.00    +0.000 A 
ATOM     11  N   UNL     1       4.980   5.206  18.362  0.00  0.00    +0.000 N 
ATOM     12  H   UNL     1       2.961   3.721  15.533  0.00  0.00    +0.000 HD
ENDROOT
BRANCH   1  14
ATOM     13  C   UNL     1       2.044   5.966  20.238  0.00  0.00    +0.000 A 
ATOM     14  C   UNL     1       2.852   6.026  19.110  0.00  0.00    +0.000 A 
ATOM     15  S   UNL     1       2.890   7.573  18.391  0.00  0.00    +0.000 S 
ATOM     16  C   UNL     1       1.770   8.186  19.510  0.00  0.00    +0.000 A 
ATOM     17  C   UNL     1       1.393   7.249  20.457  0.00  0.00    +0.000 A 
ATOM     18  C   UNL     1       0.442   7.620  21.566  0.00  0.00    +0.000 C 
ATOM     19  C   UNL     1      -0.381   8.874  21.217  0.00  0.00    +0.000 C 
ATOM     20  C   UNL     1       0.508  10.004  20.683  0.00  0.00    +0.000 C 
ATOM     21  C   UNL     1       1.259   9.591  19.410  0.00  0.00    +0.000 C 
BRANCH  13  22
ATOM     22  C   UNL     1       1.916   4.775  21.070  0.00  0.00    +0.000 C 
ATOM     23  O   UNL     1       2.688   4.511  21.993  0.00  0.00    +0.000 OA
BRANCH  22  25
ATOM     24  C   UNL     1       1.212   2.588  20.592  0.00  0.00    +0.000 C 
ATOM     25  O   UNL     1       0.887   3.964  20.698  0.00  0.00    +0.000 OA
ENDBRANCH  22  25
ENDBRANCH  13  22
ENDBRANCH   1  14
BRANCH  11  26
ATOM     26  O   UNL     1       5.711   5.283  19.549  0.00  0.00    +0.000 OA
ATOM     27  H   UNL     1       5.227   4.678  20.139  0.00  0.00    +0.000 HD
ENDBRANCH  11  26
TORSDOF 4
ENDMDL
MODEL 3
REMARK VINA RESULT:      -6.2      6.443      8.631
REMARK  Name = 
REMARK  5 active torsions:
REMARK  status: ('A' for Active; 'I' for Inactive)
REMARK    1  A    between atoms: C_1  and  O_2
REMARK    2  A    between atoms: O_2  and  C_3
REMARK    3  A    between atoms: C_3  and  C_5
REMARK    4  A    between atoms: C_6  and  N_7
REMARK    5  A    between atoms: N_17  and  O_18
REMARK                            x       y       z     vdW  Elec       q    Type
REMARK                         _______ _______ _______ _____ _____    ______ ____
ROOT
ATOM      1  N   UNL     1       0.214  11.026  19.511  0.00  0.00    +0.000 N 
ATOM      2  C   UNL     1      -1.047  11.068  18.891  0.00  0.00    +0.000 C 
ATOM      3  O   UNL     1      -1.311  10.576  17.792  0.00  0.00    +0.000 OA
ATOM      4  N   UNL     1      -2.073  11.640  19.601  0.00  0.00    +0.000 N 
ATOM      5  C   UNL     1      -1.911  12.233  20.848  0.00  0.00    +0.000 A 
ATOM      6  C   UNL     1      -3.017  12.741  21.529  0.00  0.00    +0.000 A 
ATOM      7  C   UNL     1      -2.825  13.454  22.712  0.00  0.00    +0.000 A 
ATOM      8  C   UNL     1      -1.536  13.659  23.200  0.00  0.00    +0.000 A 
ATOM      9  C   UNL     1      -0.443  13.099  22.538  0.00  0.00    +0.000 A 
ATOM     10  C   UNL     1      -0.621  12.355  21.363  0.00  0.00    +0.000 A 
ATOM     11  N   UNL     1       0.466  11.742  20.705  0.00  0.00    +0.000 N 
ATOM     12  H   UNL     1      -2.985  11.573  19.173  0.00  0.00    +0.000 HD
ENDROOT
BRANCH   1  14
ATOM     13  C   UNL     1       0.979   8.709  20.189  0.00  0.00    +0.000 A 
ATOM     14  C   UNL     1       0.886   9.809  19.346  0.00  0.00    +0.000 A 
ATOM     15  S   UNL     1       1.800   9.640  17.915  0.00  0.00    +0.000 S 
ATOM     16  C   UNL     1       2.411   8.136  18.413  0.00  0.00    +0.000 A 
ATOM     17  C   UNL     1       1.901   7.729  19.633  0.00  0.00    +0.000 A 
ATOM     18  C   UNL     1       2.287   6.394  20.218  0.00  0.00    +0.000 C 
ATOM     19  C   UNL     1       3.596   5.861  19.609  0.00  0.00    +0.000 C 
ATOM     20  C   UNL     1       3.585   5.949  18.078  0.00  0.00    +0.000 C 
ATOM     21  C   UNL     1       3.417   7.393  17.587  0.00  0.00    +0.000 C 
BRANCH  13  22
ATOM     22  C   UNL     1       0.225   8.583  21.431  0.00  0.00    +0.000 C 
ATOM     23  O   UNL     1      -0.902   8.088  21.488  0.00  0.00    +0.000 OA
BRANCH  22  25
ATOM     24  C   UNL     1       0.028   9.524  23.572  0.00  0.00    +0.000 C 
ATOM     25  O   UNL     1       0.870   9.108  22.510  0.00  0.00    +0.000 OA
ENDBRANCH  22  25
ENDBRANCH  13  22
ENDBRANCH   1  14
BRANCH  11  26
ATOM     26  O   UNL     1       1.773  12.171  20.942  0.00  0.00    +0.000 OA
ATOM     27  H   UNL     1       1.641  12.988  21.455  0.00  0.00    +0.000 HD
ENDBRANCH  11  26
TORSDOF 4
ENDMDL
MODEL 4
REMARK VINA RESULT:      -6.2      6.371      9.282
REMARK  Name = 
REMARK  5 active torsions:
REMARK  status: ('A' for Active; 'I' for Inactive)
REMARK    1  A    between atoms: C_1  and  O_2
REMARK    2  A    between atoms: O_2  and  C_3
REMARK    3  A    between atoms: C_3  and  C_5
REMARK    4  A    between atoms: C_6  and  N_7
REMARK    5  A    between atoms: N_17  and  O_18
REMARK                            x       y       z     vdW  Elec       q    Type
REMARK                         _______ _______ _______ _____ _____    ______ ____
ROOT
ATOM      1  N   UNL     1       0.998   9.795  19.627  0.00  0.00    +0.000 N 
ATOM      2  C   UNL     1       1.014   8.994  20.781  0.00  0.00    +0.000 C 
ATOM      3  O   UNL     1       0.465   9.278  21.847  0.00  0.00    +0.000 OA
ATOM      4  N   UNL     1       1.630   7.770  20.683  0.00  0.00    +0.000 N 
ATOM      5  C   UNL     1       2.288   7.328  19.542  0.00  0.00    +0.000 A 
ATOM      6  C   UNL     1       2.839   6.047  19.504  0.00  0.00    +0.000 A 
ATOM      7  C   UNL     1       3.613   5.665  18.409  0.00  0.00    +0.000 A 
ATOM      8  C   UNL     1       3.837   6.563  17.368  0.00  0.00    +0.000 A 
ATOM      9  C   UNL     1       3.236   7.823  17.392  0.00  0.00    +0.000 A 
ATOM     10  C   UNL     1       2.430   8.211  18.472  0.00  0.00    +0.000 A 
ATOM     11  N   UNL     1       1.776   9.461  18.494  0.00  0.00    +0.000 N 
ATOM     12  H   UNL     1       1.544   7.177  21.496  0.00  0.00    +0.000 HD
ENDROOT
BRANCH   1  14
ATOM     13  C   UNL     1      -0.791  11.553  19.977  0.00  0.00    +0.000 A 
ATOM     14  C   UNL     1      -0.230  10.425  19.392  0.00  0.00    +0.000 A 
ATOM     15  S   UNL     1      -1.256   9.676  18.252  0.00  0.00    +0.000 S 
ATOM     16  C   UNL     1      -2.507  10.782  18.565  0.00  0.00    +0.000 A 
ATOM     17  C   UNL     1      -2.150  11.746  19.491  0.00  0.00    +0.000 A 
ATOM     18  C   UNL     1      -3.111  12.846  19.862  0.00  0.00    +0.000 C 
ATOM     19  C   UNL     1      -4.565  12.472  19.523  0.00  0.00    +0.000 C 
ATOM     20  C   UNL     1      -4.690  11.917  18.098  0.00  0.00    +0.000 C 
ATOM     21  C   UNL     1      -3.843  10.653  17.898  0.00  0.00    +0.000 C 
BRANCH  13  22
ATOM     22  C   UNL     1      -0.077  12.408  20.919  0.00  0.00    +0.000 C 
ATOM     23  O   UNL     1      -0.192  12.306  22.142  0.00  0.00    +0.000 OA
BRANCH  22  25
ATOM     24  C   UNL     1       2.090  13.179  20.456  0.00  0.00    +0.000 C 
ATOM     25  O   UNL     1       0.691  13.355  20.314  0.00  0.00    +0.000 OA
ENDBRANCH  22  25
ENDBRANCH  13  22
ENDBRANCH   1  14
BRANCH  11  26
ATOM     26  O   UNL     1       2.210  10.504  17.672  0.00  0.00    +0.000 OA
ATOM     27  H   UNL     1       2.807  10.052  17.049  0.00  0.00    +0.000 HD
ENDBRANCH  11  26
TORSDOF 4
ENDMDL
MODEL 5
REMARK VINA RESULT:      -6.2      6.440      9.352
REMARK  Name = 
REMARK  5 active torsions:
REMARK  status: ('A' for Active; 'I' for Inactive)
REMARK    1  A    between atoms: C_1  and  O_2
REMARK    2  A    between atoms: O_2  and  C_3
REMARK    3  A    between atoms: C_3  and  C_5
REMARK    4  A    between atoms: C_6  and  N_7
REMARK    5  A    between atoms: N_17  and  O_18
REMARK                            x       y       z     vdW  Elec       q    Type
REMARK                         _______ _______ _______ _____ _____    ______ ____
ROOT
ATOM      1  N   UNL     1       0.956   9.747  19.574  0.00  0.00    +0.000 N 
ATOM      2  C   UNL     1       0.959   8.967  20.744  0.00  0.00    +0.000 C 
ATOM      3  O   UNL     1       0.381   9.263  21.792  0.00  0.00    +0.000 OA
ATOM      4  N   UNL     1       1.596   7.752  20.684  0.00  0.00    +0.000 N 
ATOM      5  C   UNL     1       2.287   7.299  19.566  0.00  0.00    +0.000 A 
ATOM      6  C   UNL     1       2.859   6.028  19.566  0.00  0.00    +0.000 A 
ATOM      7  C   UNL     1       3.664   5.637  18.496  0.00  0.00    +0.000 A 
ATOM      8  C   UNL     1       3.896   6.519  17.443  0.00  0.00    +0.000 A 
ATOM      9  C   UNL     1       3.275   7.769  17.429  0.00  0.00    +0.000 A 
ATOM     10  C   UNL     1       2.439   8.164  18.483  0.00  0.00    +0.000 A 
ATOM     11  N   UNL     1       1.764   9.404  18.466  0.00  0.00    +0.000 N 
ATOM     12  H   UNL     1       1.502   7.174  21.506  0.00  0.00    +0.000 HD
ENDROOT
BRANCH   1  14
ATOM     13  C   UNL     1      -0.898  11.442  19.895  0.00  0.00    +0.000 A 
ATOM     14  C   UNL     1      -0.276  10.351  19.300  0.00  0.00    +0.000 A 
ATOM     15  S   UNL     1      -1.223   9.617  18.085  0.00  0.00    +0.000 S 
ATOM     16  C   UNL     1      -2.519  10.677  18.373  0.00  0.00    +0.000 A 
ATOM     17  C   UNL     1      -2.235  11.616  19.349  0.00  0.00    +0.000 A 
ATOM     18  C   UNL     1      -3.245  12.676  19.708  0.00  0.00    +0.000 C 
ATOM     19  C   UNL     1      -4.670  12.275  19.284  0.00  0.00    +0.000 C 
ATOM     20  C   UNL     1      -4.708  11.769  17.837  0.00  0.00    +0.000 C 
ATOM     21  C   UNL     1      -3.816  10.537  17.635  0.00  0.00    +0.000 C 
BRANCH  13  22
ATOM     22  C   UNL     1      -0.256  12.281  20.901  0.00  0.00    +0.000 C 
ATOM     23  O   UNL     1       0.729  12.982  20.664  0.00  0.00    +0.000 OA
BRANCH  22  25
ATOM     24  C   UNL     1      -0.975  13.401  22.833  0.00  0.00    +0.000 C 
ATOM     25  O   UNL     1      -0.824  12.177  22.134  0.00  0.00    +0.000 OA
ENDBRANCH  22  25
ENDBRANCH  13  22
ENDBRANCH   1  14
BRANCH  11  26
ATOM     26  O   UNL     1       2.200  10.437  17.634  0.00  0.00    +0.000 OA
ATOM     27  H   UNL     1       1.529  11.127  17.779  0.00  0.00    +0.000 HD
ENDBRANCH  11  26
TORSDOF 4
ENDMDL
MODEL 6
REMARK VINA RESULT:      -6.1      9.977     12.931
REMARK  Name = 
REMARK  5 active torsions:
REMARK  status: ('A' for Active; 'I' for Inactive)
REMARK    1  A    between atoms: C_1  and  O_2
REMARK    2  A    between atoms: O_2  and  C_3
REMARK    3  A    between atoms: C_3  and  C_5
REMARK    4  A    between atoms: C_6  and  N_7
REMARK    5  A    between atoms: N_17  and  O_18
REMARK                            x       y       z     vdW  Elec       q    Type
REMARK                         _______ _______ _______ _____ _____    ______ ____
ROOT
ATOM      1  N   UNL     1       0.316  15.163  20.764  0.00  0.00    +0.000 N 
ATOM      2  C   UNL     1       1.667  15.536  20.865  0.00  0.00    +0.000 C 
ATOM      3  O   UNL     1       2.444  15.152  21.742  0.00  0.00    +0.000 OA
ATOM      4  N   UNL     1       2.171  16.333  19.866  0.00  0.00    +0.000 N 
ATOM      5  C   UNL     1       1.405  16.837  18.822  0.00  0.00    +0.000 A 
ATOM      6  C   UNL     1       2.006  17.591  17.815  0.00  0.00    +0.000 A 
ATOM      7  C   UNL     1       1.209  18.206  16.849  0.00  0.00    +0.000 A 
ATOM      8  C   UNL     1      -0.177  18.068  16.901  0.00  0.00    +0.000 A 
ATOM      9  C   UNL     1      -0.762  17.266  17.882  0.00  0.00    +0.000 A 
ATOM     10  C   UNL     1       0.028  16.617  18.842  0.00  0.00    +0.000 A 
ATOM     11  N   UNL     1      -0.540  15.765  19.813  0.00  0.00    +0.000 N 
ATOM     12  H   UNL     1       3.165  16.507  19.912  0.00  0.00    +0.000 HD
ENDROOT
BRANCH   1  14
ATOM     13  C   UNL     1      -0.612  13.253  22.144  0.00  0.00    +0.000 A 
ATOM     14  C   UNL     1       0.074  13.821  21.077  0.00  0.00    +0.000 A 
ATOM     15  S   UNL     1       0.775  12.665  20.035  0.00  0.00    +0.000 S 
ATOM     16  C   UNL     1       0.257  11.380  21.016  0.00  0.00    +0.000 A 
ATOM     17  C   UNL     1      -0.483  11.803  22.107  0.00  0.00    +0.000 A 
ATOM     18  C   UNL     1      -1.073  10.803  23.068  0.00  0.00    +0.000 C 
ATOM     19  C   UNL     1      -0.358   9.442  22.986  0.00  0.00    +0.000 C 
ATOM     20  C   UNL     1      -0.200   8.972  21.534  0.00  0.00    +0.000 C 
ATOM     21  C   UNL     1       0.621   9.961  20.696  0.00  0.00    +0.000 C 
BRANCH  13  22
ATOM     22  C   UNL     1      -1.362  14.032  23.122  0.00  0.00    +0.000 C 
ATOM     23  O   UNL     1      -0.891  14.390  24.203  0.00  0.00    +0.000 OA
BRANCH  22  25
ATOM     24  C   UNL     1      -3.641  13.640  23.515  0.00  0.00    +0.000 C 
ATOM     25  O   UNL     1      -2.645  14.286  22.742  0.00  0.00    +0.000 OA
ENDBRANCH  22  25
ENDBRANCH  13  22
ENDBRANCH   1  14
BRANCH  11  26
ATOM     26  O   UNL     1      -1.900  15.846  20.119  0.00  0.00    +0.000 OA
ATOM     27  H   UNL     1      -2.106  14.943  20.420  0.00  0.00    +0.000 HD
ENDBRANCH  11  26
TORSDOF 4
ENDMDL
MODEL 7
REMARK VINA RESULT:      -6.1      8.331     11.259
REMARK  Name = 
REMARK  5 active torsions:
REMARK  status: ('A' for Active; 'I' for Inactive)
REMARK    1  A    between atoms: C_1  and  O_2
REMARK    2  A    between atoms: O_2  and  C_3
REMARK    3  A    between atoms: C_3  and  C_5
REMARK    4  A    between atoms: C_6  and  N_7
REMARK    5  A    between atoms: N_17  and  O_18
REMARK                            x       y       z     vdW  Elec       q    Type
REMARK                         _______ _______ _______ _____ _____    ______ ____
ROOT
ATOM      1  N   UNL     1      -0.270  11.186  20.420  0.00  0.00    +0.000 N 
ATOM      2  C   UNL     1      -0.391  11.411  19.038  0.00  0.00    +0.000 C 
ATOM      3  O   UNL     1      -1.036  12.328  18.524  0.00  0.00    +0.000 OA
ATOM      4  N   UNL     1       0.325  10.586  18.205  0.00  0.00    +0.000 N 
ATOM      5  C   UNL     1       1.089   9.515  18.653  0.00  0.00    +0.000 A 
ATOM      6  C   UNL     1       1.834   8.760  17.747  0.00  0.00    +0.000 A 
ATOM      7  C   UNL     1       2.485   7.608  18.186  0.00  0.00    +0.000 A 
ATOM      8  C   UNL     1       2.383   7.217  19.520  0.00  0.00    +0.000 A 
ATOM      9  C   UNL     1       1.680   8.010  20.428  0.00  0.00    +0.000 A 
ATOM     10  C   UNL     1       1.044   9.187  20.008  0.00  0.00    +0.000 A 
ATOM     11  N   UNL     1       0.368  10.027  20.919  0.00  0.00    +0.000 N 
ATOM     12  H   UNL     1       0.295  10.829  17.226  0.00  0.00    +0.000 HD
ENDROOT
BRANCH   1  14
ATOM     13  C   UNL     1      -0.983  12.908  22.134  0.00  0.00    +0.000 A 
ATOM     14  C   UNL     1      -0.142  12.357  21.175  0.00  0.00    +0.000 A 
ATOM     15  S   UNL     1       1.226  13.322  20.845  0.00  0.00    +0.000 S 
ATOM     16  C   UNL     1       0.697  14.538  21.907  0.00  0.00    +0.000 A 
ATOM     17  C   UNL     1      -0.484  14.210  22.550  0.00  0.00    +0.000 A 
ATOM     18  C   UNL     1      -1.085  15.143  23.570  0.00  0.00    +0.000 C 
ATOM     19  C   UNL     1      -0.561  16.581  23.407  0.00  0.00    +0.000 C 
ATOM     20  C   UNL     1       0.967  16.616  23.278  0.00  0.00    +0.000 C 
ATOM     21  C   UNL     1       1.459  15.819  22.063  0.00  0.00    +0.000 C 
BRANCH  13  22
ATOM     22  C   UNL     1      -2.172  12.232  22.642  0.00  0.00    +0.000 C 
ATOM     23  O   UNL     1      -2.126  11.321  23.471  0.00  0.00    +0.000 OA
BRANCH  22  25
ATOM     24  C   UNL     1      -4.384  12.932  22.990  0.00  0.00    +0.000 C 
ATOM     25  O   UNL     1      -3.329  12.676  22.079  0.00  0.00    +0.000 OA
ENDBRANCH  22  25
ENDBRANCH  13  22
ENDBRANCH   1  14
BRANCH  11  26
ATOM     26  O   UNL     1      -0.044   9.540  22.161  0.00  0.00    +0.000 OA
ATOM     27  H   UNL     1      -0.220  10.356  22.663  0.00  0.00    +0.000 HD
ENDBRANCH  11  26
TORSDOF 4
ENDMDL
MODEL 8
REMARK VINA RESULT:      -6.0      8.840     11.044
REMARK  Name = 
REMARK  5 active torsions:
REMARK  status: ('A' for Active; 'I' for Inactive)
REMARK    1  A    between atoms: C_1  and  O_2
REMARK    2  A    between atoms: O_2  and  C_3
REMARK    3  A    between atoms: C_3  and  C_5
REMARK    4  A    between atoms: C_6  and  N_7
REMARK    5  A    between atoms: N_17  and  O_18
REMARK                            x       y       z     vdW  Elec       q    Type
REMARK                         _______ _______ _______ _____ _____    ______ ____
ROOT
ATOM      1  N   UNL     1      -1.551  12.084  21.109  0.00  0.00    +0.000 N 
ATOM      2  C   UNL     1      -1.209  11.649  22.401  0.00  0.00    +0.000 C 
ATOM      3  O   UNL     1      -0.126  11.152  22.717  0.00  0.00    +0.000 OA
ATOM      4  N   UNL     1      -2.131  11.862  23.397  0.00  0.00    +0.000 N 
ATOM      5  C   UNL     1      -3.389  12.410  23.177  0.00  0.00    +0.000 A 
ATOM      6  C   UNL     1      -4.246  12.647  24.251  0.00  0.00    +0.000 A 
ATOM      7  C   UNL     1      -5.553  13.067  24.007  0.00  0.00    +0.000 A 
ATOM      8  C   UNL     1      -5.995  13.239  22.697  0.00  0.00    +0.000 A 
ATOM      9  C   UNL     1      -5.112  13.050  21.633  0.00  0.00    +0.000 A 
ATOM     10  C   UNL     1      -3.786  12.657  21.863  0.00  0.00    +0.000 A 
ATOM     11  N   UNL     1      -2.866  12.506  20.804  0.00  0.00    +0.000 N 
ATOM     12  H   UNL     1      -1.823  11.627  24.329  0.00  0.00    +0.000 HD
ENDROOT
BRANCH   1  14
ATOM     13  C   UNL     1       0.320  12.261  19.412  0.00  0.00    +0.000 A 
ATOM     14  C   UNL     1      -0.505  12.721  20.431  0.00  0.00    +0.000 A 
ATOM     15  S   UNL     1      -0.111  14.295  20.959  0.00  0.00    +0.000 S 
ATOM     16  C   UNL     1       1.218  14.378  19.906  0.00  0.00    +0.000 A 
ATOM     17  C   UNL     1       1.350  13.247  19.120  0.00  0.00    +0.000 A 
ATOM     18  C   UNL     1       2.443  13.156  18.086  0.00  0.00    +0.000 C 
ATOM     19  C   UNL     1       3.588  14.143  18.376  0.00  0.00    +0.000 C 
ATOM     20  C   UNL     1       3.059  15.551  18.677  0.00  0.00    +0.000 C 
ATOM     21  C   UNL     1       2.131  15.567  19.899  0.00  0.00    +0.000 C 
BRANCH  13  22
ATOM     22  C   UNL     1       0.130  10.980  18.742  0.00  0.00    +0.000 C 
ATOM     23  O   UNL     1      -0.841  10.732  18.025  0.00  0.00    +0.000 OA
BRANCH  22  25
ATOM     24  C   UNL     1       1.704   9.462  17.891  0.00  0.00    +0.000 C 
ATOM     25  O   UNL     1       1.107  10.073  19.022  0.00  0.00    +0.000 OA
ENDBRANCH  22  25
ENDBRANCH  13  22
ENDBRANCH   1  14
BRANCH  11  26
ATOM     26  O   UNL     1      -3.314  12.342  19.492  0.00  0.00    +0.000 OA
ATOM     27  H   UNL     1      -2.926  11.486  19.238  0.00  0.00    +0.000 HD
ENDBRANCH  11  26
TORSDOF 4
ENDMDL
MODEL 9
REMARK VINA RESULT:      -6.0      8.718     12.215
REMARK  Name = 
REMARK  5 active torsions:
REMARK  status: ('A' for Active; 'I' for Inactive)
REMARK    1  A    between atoms: C_1  and  O_2
REMARK    2  A    between atoms: O_2  and  C_3
REMARK    3  A    between atoms: C_3  and  C_5
REMARK    4  A    between atoms: C_6  and  N_7
REMARK    5  A    between atoms: N_17  and  O_18
REMARK                            x       y       z     vdW  Elec       q    Type
REMARK                         _______ _______ _______ _____ _____    ______ ____
ROOT
ATOM      1  N   UNL     1      -1.794  12.578  19.538  0.00  0.00    +0.000 N 
ATOM      2  C   UNL     1      -0.811  13.579  19.460  0.00  0.00    +0.000 C 
ATOM      3  O   UNL     1      -0.984  14.765  19.750  0.00  0.00    +0.000 OA
ATOM      4  N   UNL     1       0.455  13.185  19.101  0.00  0.00    +0.000 N 
ATOM      5  C   UNL     1       0.785  11.882  18.748  0.00  0.00    +0.000 A 
ATOM      6  C   UNL     1       2.107  11.552  18.451  0.00  0.00    +0.000 A 
ATOM      7  C   UNL     1       2.404  10.279  17.966  0.00  0.00    +0.000 A 
ATOM      8  C   UNL     1       1.381   9.351  17.774  0.00  0.00    +0.000 A 
ATOM      9  C   UNL     1       0.070   9.676  18.125  0.00  0.00    +0.000 A 
ATOM     10  C   UNL     1      -0.240  10.942  18.643  0.00  0.00    +0.000 A 
ATOM     11  N   UNL     1      -1.550  11.274  19.047  0.00  0.00    +0.000 N 
ATOM     12  H   UNL     1       1.160  13.906  19.145  0.00  0.00    +0.000 HD
ENDROOT
BRANCH   1  14
ATOM     13  C   UNL     1      -2.350  12.554  22.008  0.00  0.00    +0.000 A 
ATOM     14  C   UNL     1      -2.630  12.692  20.655  0.00  0.00    +0.000 A 
ATOM     15  S   UNL     1      -4.281  12.983  20.335  0.00  0.00    +0.000 S 
ATOM     16  C   UNL     1      -4.683  12.853  21.979  0.00  0.00    +0.000 A 
ATOM     17  C   UNL     1      -3.578  12.635  22.785  0.00  0.00    +0.000 A 
ATOM     18  C   UNL     1      -3.728  12.543  24.282  0.00  0.00    +0.000 C 
ATOM     19  C   UNL     1      -5.174  12.210  24.692  0.00  0.00    +0.000 C 
ATOM     20  C   UNL     1      -6.188  13.102  23.966  0.00  0.00    +0.000 C 
ATOM     21  C   UNL     1      -6.106  12.943  22.442  0.00  0.00    +0.000 C 
BRANCH  13  22
ATOM     22  C   UNL     1      -1.001  12.382  22.535  0.00  0.00    +0.000 C 
ATOM     23  O   UNL     1      -0.395  13.268  23.140  0.00  0.00    +0.000 OA
BRANCH  22  25
ATOM     24  C   UNL     1      -0.803  10.128  23.157  0.00  0.00    +0.000 C 
ATOM     25  O   UNL     1      -0.462  11.164  22.252  0.00  0.00    +0.000 OA
ENDBRANCH  22  25
ENDBRANCH  13  22
ENDBRANCH   1  14
BRANCH  11  26
ATOM     26  O   UNL     1      -2.643  10.537  18.587  0.00  0.00    +0.000 OA
ATOM     27  H   UNL     1      -2.265   9.649  18.459  0.00  0.00    +0.000 HD
ENDBRANCH  11  26
TORSDOF 4
ENDMDL
