MODEL 1
REMARK VINA RESULT:      -6.4      0.000      0.000
REMARK  Name = 
REMARK  14 active torsions:
REMARK  status: ('A' for Active; 'I' for Inactive)
REMARK    1  A    between atoms: C_1  and  O_2
REMARK    2  A    between atoms: O_2  and  C_3
REMARK    3  A    between atoms: C_5  and  N_6
REMARK    4  A    between atoms: C_13  and  C_14
REMARK    5  A    between atoms: C_16  and  O_17
REMARK    6  A    between atoms: O_17  and  C_18
REMARK    7  A    between atoms: C_19  and  O_20
REMARK    8  A    between atoms: O_20  and  C_21
REMARK    9  A    between atoms: C_22  and  O_23
REMARK   10  A    between atoms: O_23  and  C_24
REMARK   11  A    between atoms: C_29  and  O_30
REMARK   12  A    between atoms: O_30  and  C_31
REMARK   13  A    between atoms: C_32  and  O_33
REMARK   14  A    between atoms: O_33  and  C_34
REMARK                            x       y       z     vdW  Elec       q    Type
REMARK                         _______ _______ _______ _____ _____    ______ ____
ROOT
ATOM      1  N   UNL     1      -0.767  11.346  18.107  0.00  0.00    +0.000 N 
ATOM      2  C   UNL     1      -0.273  10.795  19.272  0.00  0.00    +0.000 C 
ATOM      3  N   UNL     1      -0.877  11.061  20.396  0.00  0.00    +0.000 NA
ATOM      4  N   UNL     1      -0.390  10.492  21.529  0.00  0.00    +0.000 N 
ATOM      5  C   UNL     1       0.436   9.409  21.668  0.00  0.00    +0.000 A 
ATOM      6  N   UNL     1       0.662   9.151  22.931  0.00  0.00    +0.000 NA
ATOM      7  N   UNL     1      -0.010  10.110  23.661  0.00  0.00    +0.000 NA
ATOM      8  C   UNL     1      -0.653  10.910  22.822  0.00  0.00    +0.000 A 
ATOM      9  S   UNL     1       1.044   8.588  20.280  0.00  0.00    +0.000 S 
ATOM     10  C   UNL     1       1.038  10.013  19.165  0.00  0.00    +0.000 C 
ATOM     11  H   UNL     1      -0.134  11.494  17.329  0.00  0.00    +0.000 HD
ENDROOT
BRANCH   1  14
ATOM     12  C   UNL     1      -4.410  11.999  18.417  0.00  0.00    +0.000 A 
ATOM     13  C   UNL     1      -3.048  11.832  18.719  0.00  0.00    +0.000 A 
ATOM     14  C   UNL     1      -2.129  11.424  17.756  0.00  0.00    +0.000 A 
ATOM     15  C   UNL     1      -2.630  11.058  16.506  0.00  0.00    +0.000 A 
ATOM     16  C   UNL     1      -3.997  11.163  16.185  0.00  0.00    +0.000 A 
ATOM     17  C   UNL     1      -4.906  11.653  17.142  0.00  0.00    +0.000 A 
BRANCH  12  19
ATOM     18  C   UNL     1      -4.803  13.537  20.177  0.00  0.00    +0.000 C 
ATOM     19  O   UNL     1      -5.274  12.444  19.386  0.00  0.00    +0.000 OA
ENDBRANCH  12  19
BRANCH  16  20
ATOM     20  O   UNL     1      -4.236  10.759  14.894  0.00  0.00    +0.000 OA
ATOM     21  C   UNL     1      -3.239  10.048  14.177  0.00  0.00    +0.000 C 
ENDBRANCH  16  20
BRANCH  17  22
ATOM     22  O   UNL     1      -6.225  11.710  16.770  0.00  0.00    +0.000 OA
ATOM     23  C   UNL     1      -6.915  12.951  16.835  0.00  0.00    +0.000 C 
ENDBRANCH  17  22
ENDBRANCH   1  14
BRANCH   8  24
ATOM     24  C   UNL     1      -1.399  12.125  23.176  0.00  0.00    +0.000 A 
ATOM     25  C   UNL     1      -2.717  11.996  23.614  0.00  0.00    +0.000 A 
ATOM     26  C   UNL     1      -3.445  13.110  24.043  0.00  0.00    +0.000 A 
ATOM     27  C   UNL     1      -2.867  14.398  23.994  0.00  0.00    +0.000 A 
ATOM     28  C   UNL     1      -1.548  14.550  23.523  0.00  0.00    +0.000 A 
ATOM     29  C   UNL     1      -0.833  13.408  23.128  0.00  0.00    +0.000 A 
BRANCH  26  30
ATOM     30  O   UNL     1      -4.733  13.016  24.520  0.00  0.00    +0.000 OA
ATOM     31  C   UNL     1      -5.743  12.777  23.544  0.00  0.00    +0.000 C 
ENDBRANCH  26  30
BRANCH  27  32
ATOM     32  O   UNL     1      -3.705  15.425  24.367  0.00  0.00    +0.000 OA
ATOM     33  C   UNL     1      -4.324  16.177  23.332  0.00  0.00    +0.000 C 
ENDBRANCH  27  32
BRANCH  28  34
ATOM     34  O   UNL     1      -1.021  15.814  23.446  0.00  0.00    +0.000 OA
ATOM     35  C   UNL     1      -0.681  16.329  22.163  0.00  0.00    +0.000 C 
ENDBRANCH  28  34
ENDBRANCH   8  24
TORSDOF 8
ENDMDL
MODEL 2
REMARK VINA RESULT:      -6.4      0.469      2.136
REMARK  Name = 
REMARK  14 active torsions:
REMARK  status: ('A' for Active; 'I' for Inactive)
REMARK    1  A    between atoms: C_1  and  O_2
REMARK    2  A    between atoms: O_2  and  C_3
REMARK    3  A    between atoms: C_5  and  N_6
REMARK    4  A    between atoms: C_13  and  C_14
REMARK    5  A    between atoms: C_16  and  O_17
REMARK    6  A    between atoms: O_17  and  C_18
REMARK    7  A    between atoms: C_19  and  O_20
REMARK    8  A    between atoms: O_20  and  C_21
REMARK    9  A    between atoms: C_22  and  O_23
REMARK   10  A    between atoms: O_23  and  C_24
REMARK   11  A    between atoms: C_29  and  O_30
REMARK   12  A    between atoms: O_30  and  C_31
REMARK   13  A    between atoms: C_32  and  O_33
REMARK   14  A    between atoms: O_33  and  C_34
REMARK                            x       y       z     vdW  Elec       q    Type
REMARK                         _______ _______ _______ _____ _____    ______ ____
ROOT
ATOM      1  N   UNL     1      -0.673  11.322  18.029  0.00  0.00    +0.000 N 
ATOM      2  C   UNL     1      -0.171  10.761  19.185  0.00  0.00    +0.000 C 
ATOM      3  N   UNL     1      -0.773  11.007  20.314  0.00  0.00    +0.000 NA
ATOM      4  N   UNL     1      -0.278  10.428  21.438  0.00  0.00    +0.000 N 
ATOM      5  C   UNL     1       0.558   9.351  21.561  0.00  0.00    +0.000 A 
ATOM      6  N   UNL     1       0.790   9.079  22.820  0.00  0.00    +0.000 NA
ATOM      7  N   UNL     1       0.112  10.022  23.564  0.00  0.00    +0.000 NA
ATOM      8  C   UNL     1      -0.541  10.827  22.737  0.00  0.00    +0.000 A 
ATOM      9  S   UNL     1       1.170   8.553  20.161  0.00  0.00    +0.000 S 
ATOM     10  C   UNL     1       1.147   9.992  19.064  0.00  0.00    +0.000 C 
ATOM     11  H   UNL     1      -0.043  11.487  17.251  0.00  0.00    +0.000 HD
ENDROOT
BRANCH   1  14
ATOM     12  C   UNL     1      -4.313  11.988  18.339  0.00  0.00    +0.000 A 
ATOM     13  C   UNL     1      -2.950  11.829  18.639  0.00  0.00    +0.000 A 
ATOM     14  C   UNL     1      -2.036  11.392  17.683  0.00  0.00    +0.000 A 
ATOM     15  C   UNL     1      -2.544  10.992  16.446  0.00  0.00    +0.000 A 
ATOM     16  C   UNL     1      -3.912  11.090  16.129  0.00  0.00    +0.000 A 
ATOM     17  C   UNL     1      -4.816  11.608  17.077  0.00  0.00    +0.000 A 
BRANCH  12  19
ATOM     18  C   UNL     1      -4.570  13.247  20.331  0.00  0.00    +0.000 C 
ATOM     19  O   UNL     1      -5.172  12.462  19.300  0.00  0.00    +0.000 OA
ENDBRANCH  12  19
BRANCH  16  20
ATOM     20  O   UNL     1      -4.159  10.651  14.851  0.00  0.00    +0.000 OA
ATOM     21  C   UNL     1      -3.138   9.991  14.119  0.00  0.00    +0.000 C 
ENDBRANCH  16  20
BRANCH  17  22
ATOM     22  O   UNL     1      -6.136  11.657  16.710  0.00  0.00    +0.000 OA
ATOM     23  C   UNL     1      -6.847  12.882  16.823  0.00  0.00    +0.000 C 
ENDBRANCH  17  22
ENDBRANCH   1  14
BRANCH   8  24
ATOM     24  C   UNL     1      -1.297  12.030  23.110  0.00  0.00    +0.000 A 
ATOM     25  C   UNL     1      -0.715  13.279  22.893  0.00  0.00    +0.000 A 
ATOM     26  C   UNL     1      -1.423  14.457  23.151  0.00  0.00    +0.000 A 
ATOM     27  C   UNL     1      -2.729  14.399  23.686  0.00  0.00    +0.000 A 
ATOM     28  C   UNL     1      -3.319  13.144  23.942  0.00  0.00    +0.000 A 
ATOM     29  C   UNL     1      -2.593  11.980  23.643  0.00  0.00    +0.000 A 
BRANCH  26  30
ATOM     30  O   UNL     1      -0.897  15.707  22.910  0.00  0.00    +0.000 OA
ATOM     31  C   UNL     1      -0.595  16.004  21.551  0.00  0.00    +0.000 C 
ENDBRANCH  26  30
BRANCH  27  32
ATOM     32  O   UNL     1      -3.295  15.621  23.972  0.00  0.00    +0.000 OA
ATOM     33  C   UNL     1      -3.169  16.107  25.301  0.00  0.00    +0.000 C 
ENDBRANCH  27  32
BRANCH  28  34
ATOM     34  O   UNL     1      -4.572  13.111  24.500  0.00  0.00    +0.000 OA
ATOM     35  C   UNL     1      -5.692  12.936  23.639  0.00  0.00    +0.000 C 
ENDBRANCH  28  34
ENDBRANCH   8  24
TORSDOF 8
ENDMDL
MODEL 3
REMARK VINA RESULT:      -6.2      0.589      3.160
REMARK  Name = 
REMARK  14 active torsions:
REMARK  status: ('A' for Active; 'I' for Inactive)
REMARK    1  A    between atoms: C_1  and  O_2
REMARK    2  A    between atoms: O_2  and  C_3
REMARK    3  A    between atoms: C_5  and  N_6
REMARK    4  A    between atoms: C_13  and  C_14
REMARK    5  A    between atoms: C_16  and  O_17
REMARK    6  A    between atoms: O_17  and  C_18
REMARK    7  A    between atoms: C_19  and  O_20
REMARK    8  A    between atoms: O_20  and  C_21
REMARK    9  A    between atoms: C_22  and  O_23
REMARK   10  A    between atoms: O_23  and  C_24
REMARK   11  A    between atoms: C_29  and  O_30
REMARK   12  A    between atoms: O_30  and  C_31
REMARK   13  A    between atoms: C_32  and  O_33
REMARK   14  A    between atoms: O_33  and  C_34
REMARK                            x       y       z     vdW  Elec       q    Type
REMARK                         _______ _______ _______ _____ _____    ______ ____
ROOT
ATOM      1  N   UNL     1      -0.701  11.280  18.016  0.00  0.00    +0.000 N 
ATOM      2  C   UNL     1      -0.190  10.751  19.183  0.00  0.00    +0.000 C 
ATOM      3  N   UNL     1      -0.763  11.056  20.313  0.00  0.00    +0.000 NA
ATOM      4  N   UNL     1      -0.260  10.509  21.450  0.00  0.00    +0.000 N 
ATOM      5  C   UNL     1       0.550   9.416  21.599  0.00  0.00    +0.000 A 
ATOM      6  N   UNL     1       0.800   9.186  22.863  0.00  0.00    +0.000 NA
ATOM      7  N   UNL     1       0.162  10.175  23.582  0.00  0.00    +0.000 NA
ATOM      8  C   UNL     1      -0.487  10.965  22.737  0.00  0.00    +0.000 A 
ATOM      9  S   UNL     1       1.113   8.548  20.220  0.00  0.00    +0.000 S 
ATOM     10  C   UNL     1       1.105   9.943  19.068  0.00  0.00    +0.000 C 
ATOM     11  H   UNL     1      -0.083  11.397  17.220  0.00  0.00    +0.000 HD
ENDROOT
BRANCH   1  14
ATOM     12  C   UNL     1      -3.833  11.053  16.034  0.00  0.00    +0.000 A 
ATOM     13  C   UNL     1      -2.478  11.050  16.402  0.00  0.00    +0.000 A 
ATOM     14  C   UNL     1      -2.069  11.372  17.694  0.00  0.00    +0.000 A 
ATOM     15  C   UNL     1      -3.045  11.827  18.581  0.00  0.00    +0.000 A 
ATOM     16  C   UNL     1      -4.407  11.892  18.230  0.00  0.00    +0.000 A 
ATOM     17  C   UNL     1      -4.820  11.487  16.945  0.00  0.00    +0.000 A 
BRANCH  12  19
ATOM     18  C   UNL     1      -3.202   9.980  14.017  0.00  0.00    +0.000 C 
ATOM     19  O   UNL     1      -4.196  10.688  14.762  0.00  0.00    +0.000 OA
ENDBRANCH  12  19
BRANCH  16  20
ATOM     20  O   UNL     1      -5.168  12.354  19.276  0.00  0.00    +0.000 OA
ATOM     21  C   UNL     1      -4.545  12.995  20.378  0.00  0.00    +0.000 C 
ENDBRANCH  16  20
BRANCH  17  22
ATOM     22  O   UNL     1      -6.157  11.595  16.663  0.00  0.00    +0.000 OA
ATOM     23  C   UNL     1      -6.787  12.866  16.748  0.00  0.00    +0.000 C 
ENDBRANCH  17  22
ENDBRANCH   1  14
BRANCH   8  24
ATOM     24  C   UNL     1      -1.204  12.201  23.076  0.00  0.00    +0.000 A 
ATOM     25  C   UNL     1      -0.539  13.420  22.937  0.00  0.00    +0.000 A 
ATOM     26  C   UNL     1      -1.199  14.630  23.166  0.00  0.00    +0.000 A 
ATOM     27  C   UNL     1      -2.546  14.635  23.591  0.00  0.00    +0.000 A 
ATOM     28  C   UNL     1      -3.223  13.411  23.768  0.00  0.00    +0.000 A 
ATOM     29  C   UNL     1      -2.540  12.214  23.501  0.00  0.00    +0.000 A 
BRANCH  26  30
ATOM     30  O   UNL     1      -0.588  15.852  22.999  0.00  0.00    +0.000 OA
ATOM     31  C   UNL     1      -0.064  16.115  21.702  0.00  0.00    +0.000 C 
ENDBRANCH  26  30
BRANCH  27  32
ATOM     32  O   UNL     1      -3.066  15.881  23.860  0.00  0.00    +0.000 OA
ATOM     33  C   UNL     1      -3.116  16.292  25.220  0.00  0.00    +0.000 C 
ENDBRANCH  27  32
BRANCH  28  34
ATOM     34  O   UNL     1      -4.518  13.438  24.222  0.00  0.00    +0.000 OA
ATOM     35  C   UNL     1      -5.039  12.274  24.853  0.00  0.00    +0.000 C 
ENDBRANCH  28  34
ENDBRANCH   8  24
TORSDOF 8
ENDMDL
MODEL 4
REMARK VINA RESULT:      -6.1      0.537      2.268
REMARK  Name = 
REMARK  14 active torsions:
REMARK  status: ('A' for Active; 'I' for Inactive)
REMARK    1  A    between atoms: C_1  and  O_2
REMARK    2  A    between atoms: O_2  and  C_3
REMARK    3  A    between atoms: C_5  and  N_6
REMARK    4  A    between atoms: C_13  and  C_14
REMARK    5  A    between atoms: C_16  and  O_17
REMARK    6  A    between atoms: O_17  and  C_18
REMARK    7  A    between atoms: C_19  and  O_20
REMARK    8  A    between atoms: O_20  and  C_21
REMARK    9  A    between atoms: C_22  and  O_23
REMARK   10  A    between atoms: O_23  and  C_24
REMARK   11  A    between atoms: C_29  and  O_30
REMARK   12  A    between atoms: O_30  and  C_31
REMARK   13  A    between atoms: C_32  and  O_33
REMARK   14  A    between atoms: O_33  and  C_34
REMARK                            x       y       z     vdW  Elec       q    Type
REMARK                         _______ _______ _______ _____ _____    ______ ____
ROOT
ATOM      1  N   UNL     1      -0.775  11.372  18.110  0.00  0.00    +0.000 N 
ATOM      2  C   UNL     1      -0.292  10.822  19.281  0.00  0.00    +0.000 C 
ATOM      3  N   UNL     1      -0.891  11.109  20.402  0.00  0.00    +0.000 NA
ATOM      4  N   UNL     1      -0.415  10.542  21.540  0.00  0.00    +0.000 N 
ATOM      5  C   UNL     1       0.389   9.445  21.689  0.00  0.00    +0.000 A 
ATOM      6  N   UNL     1       0.610   9.194  22.955  0.00  0.00    +0.000 NA
ATOM      7  N   UNL     1      -0.044  10.171  23.676  0.00  0.00    +0.000 NA
ATOM      8  C   UNL     1      -0.671  10.976  22.829  0.00  0.00    +0.000 A 
ATOM      9  S   UNL     1       0.983   8.600  20.310  0.00  0.00    +0.000 S 
ATOM     10  C   UNL     1       1.004  10.014  19.181  0.00  0.00    +0.000 C 
ATOM     11  H   UNL     1      -0.138  11.501  17.331  0.00  0.00    +0.000 HD
ENDROOT
BRANCH   1  14
ATOM     12  C   UNL     1      -3.884  11.050  16.105  0.00  0.00    +0.000 A 
ATOM     13  C   UNL     1      -2.534  11.043  16.495  0.00  0.00    +0.000 A 
ATOM     14  C   UNL     1      -2.135  11.472  17.758  0.00  0.00    +0.000 A 
ATOM     15  C   UNL     1      -3.110  12.034  18.583  0.00  0.00    +0.000 A 
ATOM     16  C   UNL     1      -4.464  12.104  18.204  0.00  0.00    +0.000 A 
ATOM     17  C   UNL     1      -4.870  11.594  16.956  0.00  0.00    +0.000 A 
BRANCH  12  19
ATOM     18  C   UNL     1      -3.168  10.058  14.075  0.00  0.00    +0.000 C 
ATOM     19  O   UNL     1      -4.239  10.578  14.866  0.00  0.00    +0.000 OA
ENDBRANCH  12  19
BRANCH  16  20
ATOM     20  O   UNL     1      -5.226  12.683  19.190  0.00  0.00    +0.000 OA
ATOM     21  C   UNL     1      -5.846  11.871  20.176  0.00  0.00    +0.000 C 
ENDBRANCH  16  20
BRANCH  17  22
ATOM     22  O   UNL     1      -6.200  11.713  16.642  0.00  0.00    +0.000 OA
ATOM     23  C   UNL     1      -6.826  12.985  16.732  0.00  0.00    +0.000 C 
ENDBRANCH  17  22
ENDBRANCH   1  14
BRANCH   8  24
ATOM     24  C   UNL     1      -1.395  12.208  23.172  0.00  0.00    +0.000 A 
ATOM     25  C   UNL     1      -2.699  12.104  23.656  0.00  0.00    +0.000 A 
ATOM     26  C   UNL     1      -3.403  13.237  24.077  0.00  0.00    +0.000 A 
ATOM     27  C   UNL     1      -2.815  14.517  23.971  0.00  0.00    +0.000 A 
ATOM     28  C   UNL     1      -1.511  14.643  23.453  0.00  0.00    +0.000 A 
ATOM     29  C   UNL     1      -0.820  13.483  23.068  0.00  0.00    +0.000 A 
BRANCH  26  30
ATOM     30  O   UNL     1      -4.675  13.169  24.598  0.00  0.00    +0.000 OA
ATOM     31  C   UNL     1      -5.705  12.814  23.681  0.00  0.00    +0.000 C 
ENDBRANCH  26  30
BRANCH  27  32
ATOM     32  O   UNL     1      -3.631  15.563  24.341  0.00  0.00    +0.000 OA
ATOM     33  C   UNL     1      -4.308  16.266  23.308  0.00  0.00    +0.000 C 
ENDBRANCH  27  32
BRANCH  28  34
ATOM     34  O   UNL     1      -0.976  15.899  23.321  0.00  0.00    +0.000 OA
ATOM     35  C   UNL     1      -0.281  16.459  24.430  0.00  0.00    +0.000 C 
ENDBRANCH  28  34
ENDBRANCH   8  24
TORSDOF 8
ENDMDL
MODEL 5
REMARK VINA RESULT:      -6.0      3.013      6.398
REMARK  Name = 
REMARK  14 active torsions:
REMARK  status: ('A' for Active; 'I' for Inactive)
REMARK    1  A    between atoms: C_1  and  O_2
REMARK    2  A    between atoms: O_2  and  C_3
REMARK    3  A    between atoms: C_5  and  N_6
REMARK    4  A    between atoms: C_13  and  C_14
REMARK    5  A    between atoms: C_16  and  O_17
REMARK    6  A    between atoms: O_17  and  C_18
REMARK    7  A    between atoms: C_19  and  O_20
REMARK    8  A    between atoms: O_20  and  C_21
REMARK    9  A    between atoms: C_22  and  O_23
REMARK   10  A    between atoms: O_23  and  C_24
REMARK   11  A    between atoms: C_29  and  O_30
REMARK   12  A    between atoms: O_30  and  C_31
REMARK   13  A    between atoms: C_32  and  O_33
REMARK   14  A    between atoms: O_33  and  C_34
REMARK                            x       y       z     vdW  Elec       q    Type
REMARK                         _______ _______ _______ _____ _____    ______ ____
ROOT
ATOM      1  N   UNL     1      -0.385  11.463  19.871  0.00  0.00    +0.000 N 
ATOM      2  C   UNL     1      -1.547  11.290  19.145  0.00  0.00    +0.000 C 
ATOM      3  N   UNL     1      -2.549  12.092  19.366  0.00  0.00    +0.000 NA
ATOM      4  N   UNL     1      -3.676  11.920  18.628  0.00  0.00    +0.000 N 
ATOM      5  C   UNL     1      -3.840  11.256  17.442  0.00  0.00    +0.000 A 
ATOM      6  N   UNL     1      -5.080  11.334  17.029  0.00  0.00    +0.000 NA
ATOM      7  N   UNL     1      -5.775  12.049  17.983  0.00  0.00    +0.000 NA
ATOM      8  C   UNL     1      -4.931  12.413  18.939  0.00  0.00    +0.000 A 
ATOM      9  S   UNL     1      -2.512  10.446  16.700  0.00  0.00    +0.000 S 
ATOM     10  C   UNL     1      -1.609  10.070  18.222  0.00  0.00    +0.000 C 
ATOM     11  H   UNL     1       0.223  10.665  20.019  0.00  0.00    +0.000 HD
ENDROOT
BRANCH   1  14
ATOM     12  C   UNL     1       1.612  14.554  19.372  0.00  0.00    +0.000 A 
ATOM     13  C   UNL     1       1.034  13.288  19.184  0.00  0.00    +0.000 A 
ATOM     14  C   UNL     1       0.222  12.703  20.152  0.00  0.00    +0.000 A 
ATOM     15  C   UNL     1       0.105  13.363  21.376  0.00  0.00    +0.000 A 
ATOM     16  C   UNL     1       0.714  14.609  21.617  0.00  0.00    +0.000 A 
ATOM     17  C   UNL     1       1.468  15.230  20.602  0.00  0.00    +0.000 A 
BRANCH  12  19
ATOM     18  C   UNL     1       3.692  14.582  18.236  0.00  0.00    +0.000 C 
ATOM     19  O   UNL     1       2.372  15.112  18.374  0.00  0.00    +0.000 OA
ENDBRANCH  12  19
BRANCH  16  20
ATOM     20  O   UNL     1       0.439  15.059  22.886  0.00  0.00    +0.000 OA
ATOM     21  C   UNL     1      -0.842  14.837  23.456  0.00  0.00    +0.000 C 
ENDBRANCH  16  20
BRANCH  17  22
ATOM     22  O   UNL     1       2.049  16.432  20.912  0.00  0.00    +0.000 OA
ATOM     23  C   UNL     1       3.338  16.451  21.511  0.00  0.00    +0.000 C 
ENDBRANCH  17  22
ENDBRANCH   1  14
BRANCH   8  24
ATOM     24  C   UNL     1      -5.278  13.094  20.193  0.00  0.00    +0.000 A 
ATOM     25  C   UNL     1      -5.699  14.423  20.138  0.00  0.00    +0.000 A 
ATOM     26  C   UNL     1      -6.121  15.093  21.291  0.00  0.00    +0.000 A 
ATOM     27  C   UNL     1      -6.082  14.443  22.544  0.00  0.00    +0.000 A 
ATOM     28  C   UNL     1      -5.628  13.111  22.622  0.00  0.00    +0.000 A 
ATOM     29  C   UNL     1      -5.240  12.457  21.442  0.00  0.00    +0.000 A 
BRANCH  26  30
ATOM     30  O   UNL     1      -6.581  16.390  21.269  0.00  0.00    +0.000 OA
ATOM     31  C   UNL     1      -7.491  16.711  20.222  0.00  0.00    +0.000 C 
ENDBRANCH  26  30
BRANCH  27  32
ATOM     32  O   UNL     1      -6.447  15.226  23.616  0.00  0.00    +0.000 OA
ATOM     33  C   UNL     1      -5.431  16.004  24.236  0.00  0.00    +0.000 C 
ENDBRANCH  27  32
BRANCH  28  34
ATOM     34  O   UNL     1      -5.559  12.513  23.855  0.00  0.00    +0.000 OA
ATOM     35  C   UNL     1      -4.299  12.462  24.514  0.00  0.00    +0.000 C 
ENDBRANCH  28  34
ENDBRANCH   8  24
TORSDOF 8
ENDMDL
MODEL 6
REMARK VINA RESULT:      -5.9      3.096      5.739
REMARK  Name = 
REMARK  14 active torsions:
REMARK  status: ('A' for Active; 'I' for Inactive)
REMARK    1  A    between atoms: C_1  and  O_2
REMARK    2  A    between atoms: O_2  and  C_3
REMARK    3  A    between atoms: C_5  and  N_6
REMARK    4  A    between atoms: C_13  and  C_14
REMARK    5  A    between atoms: C_16  and  O_17
REMARK    6  A    between atoms: O_17  and  C_18
REMARK    7  A    between atoms: C_19  and  O_20
REMARK    8  A    between atoms: O_20  and  C_21
REMARK    9  A    between atoms: C_22  and  O_23
REMARK   10  A    between atoms: O_23  and  C_24
REMARK   11  A    between atoms: C_29  and  O_30
REMARK   12  A    between atoms: O_30  and  C_31
REMARK   13  A    between atoms: C_32  and  O_33
REMARK   14  A    between atoms: O_33  and  C_34
REMARK                            x       y       z     vdW  Elec       q    Type
REMARK                         _______ _______ _______ _____ _____    ______ ____
ROOT
ATOM      1  N   UNL     1      -0.254  11.205  19.406  0.00  0.00    +0.000 N 
ATOM      2  C   UNL     1      -1.449  11.093  18.723  0.00  0.00    +0.000 C 
ATOM      3  N   UNL     1      -2.415  11.919  19.012  0.00  0.00    +0.000 NA
ATOM      4  N   UNL     1      -3.575  11.808  18.315  0.00  0.00    +0.000 N 
ATOM      5  C   UNL     1      -3.809  11.190  17.116  0.00  0.00    +0.000 A 
ATOM      6  N   UNL     1      -5.060  11.322  16.757  0.00  0.00    +0.000 NA
ATOM      7  N   UNL     1      -5.692  12.026  17.761  0.00  0.00    +0.000 NA
ATOM      8  C   UNL     1      -4.799  12.330  18.694  0.00  0.00    +0.000 A 
ATOM      9  S   UNL     1      -2.539  10.365  16.293  0.00  0.00    +0.000 S 
ATOM     10  C   UNL     1      -1.588   9.909  17.764  0.00  0.00    +0.000 C 
ATOM     11  H   UNL     1       0.333  10.384  19.503  0.00  0.00    +0.000 HD
ENDROOT
BRANCH   1  14
ATOM     12  C   UNL     1       0.822  14.205  21.311  0.00  0.00    +0.000 A 
ATOM     13  C   UNL     1       0.149  13.035  20.922  0.00  0.00    +0.000 A 
ATOM     14  C   UNL     1       0.404  12.414  19.703  0.00  0.00    +0.000 A 
ATOM     15  C   UNL     1       1.263  13.067  18.817  0.00  0.00    +0.000 A 
ATOM     16  C   UNL     1       1.916  14.268  19.154  0.00  0.00    +0.000 A 
ATOM     17  C   UNL     1       1.712  14.846  20.422  0.00  0.00    +0.000 A 
BRANCH  12  19
ATOM     18  C   UNL     1      -0.709  14.463  23.101  0.00  0.00    +0.000 C 
ATOM     19  O   UNL     1       0.571  14.761  22.540  0.00  0.00    +0.000 OA
ENDBRANCH  12  19
BRANCH  16  20
ATOM     20  O   UNL     1       2.717  14.703  18.125  0.00  0.00    +0.000 OA
ATOM     21  C   UNL     1       4.117  14.471  18.170  0.00  0.00    +0.000 C 
ENDBRANCH  16  20
BRANCH  17  22
ATOM     22  O   UNL     1       2.363  16.026  20.676  0.00  0.00    +0.000 OA
ATOM     23  C   UNL     1       1.763  17.252  20.282  0.00  0.00    +0.000 C 
ENDBRANCH  17  22
ENDBRANCH   1  14
BRANCH   8  24
ATOM     24  C   UNL     1      -5.074  12.978  19.983  0.00  0.00    +0.000 A 
ATOM     25  C   UNL     1      -5.718  12.242  20.978  0.00  0.00    +0.000 A 
ATOM     26  C   UNL     1      -5.929  12.781  22.250  0.00  0.00    +0.000 A 
ATOM     27  C   UNL     1      -5.533  14.107  22.533  0.00  0.00    +0.000 A 
ATOM     28  C   UNL     1      -4.911  14.876  21.529  0.00  0.00    +0.000 A 
ATOM     29  C   UNL     1      -4.686  14.294  20.272  0.00  0.00    +0.000 A 
BRANCH  26  30
ATOM     30  O   UNL     1      -6.523  12.071  23.268  0.00  0.00    +0.000 OA
ATOM     31  C   UNL     1      -7.915  11.809  23.115  0.00  0.00    +0.000 C 
ENDBRANCH  26  30
BRANCH  27  32
ATOM     32  O   UNL     1      -5.863  14.555  23.793  0.00  0.00    +0.000 OA
ATOM     33  C   UNL     1      -7.004  15.394  23.914  0.00  0.00    +0.000 C 
ENDBRANCH  27  32
BRANCH  28  34
ATOM     34  O   UNL     1      -4.572  16.175  21.814  0.00  0.00    +0.000 OA
ATOM     35  C   UNL     1      -4.951  17.192  20.892  0.00  0.00    +0.000 C 
ENDBRANCH  28  34
ENDBRANCH   8  24
TORSDOF 8
ENDMDL
MODEL 7
REMARK VINA RESULT:      -5.9      8.349     11.875
REMARK  Name = 
REMARK  14 active torsions:
REMARK  status: ('A' for Active; 'I' for Inactive)
REMARK    1  A    between atoms: C_1  and  O_2
REMARK    2  A    between atoms: O_2  and  C_3
REMARK    3  A    between atoms: C_5  and  N_6
REMARK    4  A    between atoms: C_13  and  C_14
REMARK    5  A    between atoms: C_16  and  O_17
REMARK    6  A    between atoms: O_17  and  C_18
REMARK    7  A    between atoms: C_19  and  O_20
REMARK    8  A    between atoms: O_20  and  C_21
REMARK    9  A    between atoms: C_22  and  O_23
REMARK   10  A    between atoms: O_23  and  C_24
REMARK   11  A    between atoms: C_29  and  O_30
REMARK   12  A    between atoms: O_30  and  C_31
REMARK   13  A    between atoms: C_32  and  O_33
REMARK   14  A    between atoms: O_33  and  C_34
REMARK                            x       y       z     vdW  Elec       q    Type
REMARK                         _______ _______ _______ _____ _____    ______ ____
ROOT
ATOM      1  N   UNL     1       7.957  11.829  22.527  0.00  0.00    +0.000 N 
ATOM      2  C   UNL     1       8.645  12.268  21.413  0.00  0.00    +0.000 C 
ATOM      3  N   UNL     1       8.294  13.396  20.864  0.00  0.00    +0.000 NA
ATOM      4  N   UNL     1       8.996  13.822  19.782  0.00  0.00    +0.000 N 
ATOM      5  C   UNL     1      10.238  13.440  19.352  0.00  0.00    +0.000 A 
ATOM      6  N   UNL     1      10.586  14.101  18.277  0.00  0.00    +0.000 NA
ATOM      7  N   UNL     1       9.530  14.931  17.960  0.00  0.00    +0.000 NA
ATOM      8  C   UNL     1       8.578  14.775  18.870  0.00  0.00    +0.000 A 
ATOM      9  S   UNL     1      11.122  12.223  20.194  0.00  0.00    +0.000 S 
ATOM     10  C   UNL     1       9.691  11.315  20.828  0.00  0.00    +0.000 C 
ATOM     11  H   UNL     1       7.922  10.835  22.720  0.00  0.00    +0.000 HD
ENDROOT
BRANCH   1  14
ATOM     12  C   UNL     1       8.149  13.616  25.776  0.00  0.00    +0.000 A 
ATOM     13  C   UNL     1       8.441  12.773  24.692  0.00  0.00    +0.000 A 
ATOM     14  C   UNL     1       7.570  12.636  23.614  0.00  0.00    +0.000 A 
ATOM     15  C   UNL     1       6.330  13.269  23.708  0.00  0.00    +0.000 A 
ATOM     16  C   UNL     1       5.982  14.081  24.804  0.00  0.00    +0.000 A 
ATOM     17  C   UNL     1       6.904  14.276  25.852  0.00  0.00    +0.000 A 
BRANCH  12  19
ATOM     18  C   UNL     1       9.832  14.953  26.775  0.00  0.00    +0.000 C 
ATOM     19  O   UNL     1       9.055  13.754  26.798  0.00  0.00    +0.000 OA
ENDBRANCH  12  19
BRANCH  16  20
ATOM     20  O   UNL     1       4.720  14.603  24.656  0.00  0.00    +0.000 OA
ATOM     21  C   UNL     1       4.548  15.895  24.094  0.00  0.00    +0.000 C 
ENDBRANCH  16  20
BRANCH  17  22
ATOM     22  O   UNL     1       6.493  15.062  26.898  0.00  0.00    +0.000 OA
ATOM     23  C   UNL     1       5.816  14.465  27.995  0.00  0.00    +0.000 C 
ENDBRANCH  17  22
ENDBRANCH   1  14
BRANCH   8  24
ATOM     24  C   UNL     1       7.244  15.388  18.847  0.00  0.00    +0.000 A 
ATOM     25  C   UNL     1       7.066  16.625  19.466  0.00  0.00    +0.000 A 
ATOM     26  C   UNL     1       5.838  17.292  19.403  0.00  0.00    +0.000 A 
ATOM     27  C   UNL     1       4.739  16.694  18.747  0.00  0.00    +0.000 A 
ATOM     28  C   UNL     1       4.893  15.429  18.145  0.00  0.00    +0.000 A 
ATOM     29  C   UNL     1       6.147  14.800  18.201  0.00  0.00    +0.000 A 
BRANCH  26  30
ATOM     30  O   UNL     1       5.637  18.532  19.966  0.00  0.00    +0.000 OA
ATOM     31  C   UNL     1       5.887  18.629  21.364  0.00  0.00    +0.000 C 
ENDBRANCH  26  30
BRANCH  27  32
ATOM     32  O   UNL     1       3.563  17.408  18.817  0.00  0.00    +0.000 OA
ATOM     33  C   UNL     1       2.684  17.120  19.896  0.00  0.00    +0.000 C 
ENDBRANCH  27  32
BRANCH  28  34
ATOM     34  O   UNL     1       3.801  14.850  17.549  0.00  0.00    +0.000 OA
ATOM     35  C   UNL     1       3.094  13.843  18.265  0.00  0.00    +0.000 C 
ENDBRANCH  28  34
ENDBRANCH   8  24
TORSDOF 8
ENDMDL
MODEL 8
REMARK VINA RESULT:      -5.9      8.519     12.002
REMARK  Name = 
REMARK  14 active torsions:
REMARK  status: ('A' for Active; 'I' for Inactive)
REMARK    1  A    between atoms: C_1  and  O_2
REMARK    2  A    between atoms: O_2  and  C_3
REMARK    3  A    between atoms: C_5  and  N_6
REMARK    4  A    between atoms: C_13  and  C_14
REMARK    5  A    between atoms: C_16  and  O_17
REMARK    6  A    between atoms: O_17  and  C_18
REMARK    7  A    between atoms: C_19  and  O_20
REMARK    8  A    between atoms: O_20  and  C_21
REMARK    9  A    between atoms: C_22  and  O_23
REMARK   10  A    between atoms: O_23  and  C_24
REMARK   11  A    between atoms: C_29  and  O_30
REMARK   12  A    between atoms: O_30  and  C_31
REMARK   13  A    between atoms: C_32  and  O_33
REMARK   14  A    between atoms: O_33  and  C_34
REMARK                            x       y       z     vdW  Elec       q    Type
REMARK                         _______ _______ _______ _____ _____    ______ ____
ROOT
ATOM      1  N   UNL     1       8.477  11.677  21.993  0.00  0.00    +0.000 N 
ATOM      2  C   UNL     1       9.084  12.291  20.916  0.00  0.00    +0.000 C 
ATOM      3  N   UNL     1       8.597  13.418  20.481  0.00  0.00    +0.000 NA
ATOM      4  N   UNL     1       9.220  14.018  19.435  0.00  0.00    +0.000 N 
ATOM      5  C   UNL     1      10.486  13.820  18.952  0.00  0.00    +0.000 A 
ATOM      6  N   UNL     1      10.730  14.613  17.940  0.00  0.00    +0.000 NA
ATOM      7  N   UNL     1       9.582  15.344  17.718  0.00  0.00    +0.000 NA
ATOM      8  C   UNL     1       8.676  14.998  18.623  0.00  0.00    +0.000 A 
ATOM      9  S   UNL     1      11.519  12.639  19.663  0.00  0.00    +0.000 S 
ATOM     10  C   UNL     1      10.214  11.521  20.229  0.00  0.00    +0.000 C 
ATOM     11  H   UNL     1       8.558  10.671  22.093  0.00  0.00    +0.000 HD
ENDROOT
BRANCH   1  14
ATOM     12  C   UNL     1       6.350  12.501  24.924  0.00  0.00    +0.000 A 
ATOM     13  C   UNL     1       6.820  11.940  23.725  0.00  0.00    +0.000 A 
ATOM     14  C   UNL     1       8.030  12.331  23.158  0.00  0.00    +0.000 A 
ATOM     15  C   UNL     1       8.703  13.398  23.754  0.00  0.00    +0.000 A 
ATOM     16  C   UNL     1       8.235  14.019  24.928  0.00  0.00    +0.000 A 
ATOM     17  C   UNL     1       7.050  13.562  25.538  0.00  0.00    +0.000 A 
BRANCH  12  19
ATOM     18  C   UNL     1       5.261  10.844  26.222  0.00  0.00    +0.000 C 
ATOM     19  O   UNL     1       5.173  12.056  25.471  0.00  0.00    +0.000 OA
ENDBRANCH  12  19
BRANCH  16  20
ATOM     20  O   UNL     1       9.077  15.028  25.326  0.00  0.00    +0.000 OA
ATOM     21  C   UNL     1       8.884  16.347  24.839  0.00  0.00    +0.000 C 
ENDBRANCH  16  20
BRANCH  17  22
ATOM     22  O   UNL     1       6.641  14.224  26.667  0.00  0.00    +0.000 OA
ATOM     23  C   UNL     1       7.016  13.725  27.943  0.00  0.00    +0.000 C 
ENDBRANCH  17  22
ENDBRANCH   1  14
BRANCH   8  24
ATOM     24  C   UNL     1       7.281  15.456  18.677  0.00  0.00    +0.000 A 
ATOM     25  C   UNL     1       7.001  16.675  19.294  0.00  0.00    +0.000 A 
ATOM     26  C   UNL     1       5.704  17.197  19.301  0.00  0.00    +0.000 A 
ATOM     27  C   UNL     1       4.643  16.469  18.720  0.00  0.00    +0.000 A 
ATOM     28  C   UNL     1       4.903  15.220  18.121  0.00  0.00    +0.000 A 
ATOM     29  C   UNL     1       6.221  14.737  18.105  0.00  0.00    +0.000 A 
BRANCH  26  30
ATOM     30  O   UNL     1       5.398  18.415  19.864  0.00  0.00    +0.000 OA
ATOM     31  C   UNL     1       5.884  18.631  21.185  0.00  0.00    +0.000 C 
ENDBRANCH  26  30
BRANCH  27  32
ATOM     32  O   UNL     1       3.400  17.045  18.856  0.00  0.00    +0.000 OA
ATOM     33  C   UNL     1       2.640  17.253  17.673  0.00  0.00    +0.000 C 
ENDBRANCH  27  32
BRANCH  28  34
ATOM     34  O   UNL     1       3.850  14.511  17.599  0.00  0.00    +0.000 OA
ATOM     35  C   UNL     1       3.142  13.622  18.456  0.00  0.00    +0.000 C 
ENDBRANCH  28  34
ENDBRANCH   8  24
TORSDOF 8
ENDMDL
MODEL 9
REMARK VINA RESULT:      -5.9      3.220      6.345
REMARK  Name = 
REMARK  14 active torsions:
REMARK  status: ('A' for Active; 'I' for Inactive)
REMARK    1  A    between atoms: C_1  and  O_2
REMARK    2  A    between atoms: O_2  and  C_3
REMARK    3  A    between atoms: C_5  and  N_6
REMARK    4  A    between atoms: C_13  and  C_14
REMARK    5  A    between atoms: C_16  and  O_17
REMARK    6  A    between atoms: O_17  and  C_18
REMARK    7  A    between atoms: C_19  and  O_20
REMARK    8  A    between atoms: O_20  and  C_21
REMARK    9  A    between atoms: C_22  and  O_23
REMARK   10  A    between atoms: O_23  and  C_24
REMARK   11  A    between atoms: C_29  and  O_30
REMARK   12  A    between atoms: O_30  and  C_31
REMARK   13  A    between atoms: C_32  and  O_33
REMARK   14  A    between atoms: O_33  and  C_34
REMARK                            x       y       z     vdW  Elec       q    Type
REMARK                         _______ _______ _______ _____ _____    ______ ____
ROOT
ATOM      1  N   UNL     1       0.360  11.052  19.365  0.00  0.00    +0.000 N 
ATOM      2  C   UNL     1      -0.912  11.070  18.832  0.00  0.00    +0.000 C 
ATOM      3  N   UNL     1      -1.772  11.935  19.291  0.00  0.00    +0.000 NA
ATOM      4  N   UNL     1      -3.013  11.953  18.739  0.00  0.00    +0.000 N 
ATOM      5  C   UNL     1      -3.434  11.442  17.541  0.00  0.00    +0.000 A 
ATOM      6  N   UNL     1      -4.706  11.683  17.350  0.00  0.00    +0.000 NA
ATOM      7  N   UNL     1      -5.159  12.350  18.469  0.00  0.00    +0.000 NA
ATOM      8  C   UNL     1      -4.140  12.525  19.300  0.00  0.00    +0.000 A 
ATOM      9  S   UNL     1      -2.337  10.597  16.515  0.00  0.00    +0.000 S 
ATOM     10  C   UNL     1      -1.254   9.972  17.822  0.00  0.00    +0.000 C 
ATOM     11  H   UNL     1       0.891  10.189  19.335  0.00  0.00    +0.000 HD
ENDROOT
BRANCH   1  14
ATOM     12  C   UNL     1       2.870  13.756  18.935  0.00  0.00    +0.000 A 
ATOM     13  C   UNL     1       2.108  12.591  18.741  0.00  0.00    +0.000 A 
ATOM     14  C   UNL     1       1.138  12.190  19.656  0.00  0.00    +0.000 A 
ATOM     15  C   UNL     1       1.036  12.916  20.843  0.00  0.00    +0.000 A 
ATOM     16  C   UNL     1       1.819  14.059  21.094  0.00  0.00    +0.000 A 
ATOM     17  C   UNL     1       2.742  14.502  20.126  0.00  0.00    +0.000 A 
BRANCH  12  19
ATOM     18  C   UNL     1       3.424  15.277  17.204  0.00  0.00    +0.000 C 
ATOM     19  O   UNL     1       3.786  14.138  17.988  0.00  0.00    +0.000 OA
ENDBRANCH  12  19
BRANCH  16  20
ATOM     20  O   UNL     1       1.524  14.605  22.319  0.00  0.00    +0.000 OA
ATOM     21  C   UNL     1       0.308  15.312  22.506  0.00  0.00    +0.000 C 
ENDBRANCH  16  20
BRANCH  17  22
ATOM     22  O   UNL     1       3.486  15.609  20.444  0.00  0.00    +0.000 OA
ATOM     23  C   UNL     1       2.915  16.901  20.291  0.00  0.00    +0.000 C 
ENDBRANCH  17  22
ENDBRANCH   1  14
BRANCH   8  24
ATOM     24  C   UNL     1      -4.209  13.094  20.653  0.00  0.00    +0.000 A 
ATOM     25  C   UNL     1      -3.553  14.298  20.907  0.00  0.00    +0.000 A 
ATOM     26  C   UNL     1      -3.655  14.925  22.152  0.00  0.00    +0.000 A 
ATOM     27  C   UNL     1      -4.390  14.318  23.194  0.00  0.00    +0.000 A 
ATOM     28  C   UNL     1      -5.032  13.085  22.965  0.00  0.00    +0.000 A 
ATOM     29  C   UNL     1      -4.935  12.496  21.694  0.00  0.00    +0.000 A 
BRANCH  26  30
ATOM     30  O   UNL     1      -3.055  16.133  22.426  0.00  0.00    +0.000 OA
ATOM     31  C   UNL     1      -3.581  17.261  21.733  0.00  0.00    +0.000 C 
ENDBRANCH  26  30
BRANCH  27  32
ATOM     32  O   UNL     1      -4.354  14.988  24.397  0.00  0.00    +0.000 OA
ATOM     33  C   UNL     1      -3.279  14.696  25.279  0.00  0.00    +0.000 C 
ENDBRANCH  27  32
BRANCH  28  34
ATOM     34  O   UNL     1      -5.706  12.493  24.003  0.00  0.00    +0.000 OA
ATOM     35  C   UNL     1      -7.128  12.446  23.949  0.00  0.00    +0.000 C 
ENDBRANCH  28  34
ENDBRANCH   8  24
TORSDOF 8
ENDMDL
