MODEL 1
REMARK VINA RESULT:      -7.7      0.000      0.000
REMARK  Name = 
REMARK  4 active torsions:
REMARK  status: ('A' for Active; 'I' for Inactive)
REMARK    1  A    between atoms: C_1  and  N_2
REMARK    2  A    between atoms: N_7  and  C_8
REMARK    3  A    between atoms: C_8  and  C_9
REMARK    4  A    between atoms: N_14  and  C_15
REMARK                            x       y       z     vdW  Elec       q    Type
REMARK                         _______ _______ _______ _____ _____    ______ ____
ROOT
ATOM      1  C   UNL     1       0.785  11.738  18.811  0.00  0.00    +0.000 C 
ATOM      2  N   UNL     1       0.725  10.485  19.520  0.00  0.00    +0.000 N 
ATOM      3  N   UNL     1      -0.052  10.360  20.620  0.00  0.00    +0.000 NA
ATOM      4  C   UNL     1       0.194   9.109  21.026  0.00  0.00    +0.000 A 
ATOM      5  C   UNL     1       1.102   8.432  20.189  0.00  0.00    +0.000 A 
ATOM      6  C   UNL     1       1.729   7.189  20.135  0.00  0.00    +0.000 A 
ATOM      7  N   UNL     1       1.465   6.199  21.081  0.00  0.00    +0.000 N 
ATOM      8  N   UNL     1       2.614   6.994  19.131  0.00  0.00    +0.000 NA
ATOM      9  C   UNL     1       2.847   7.954  18.206  0.00  0.00    +0.000 A 
ATOM     10  N   UNL     1       3.733   7.676  17.163  0.00  0.00    +0.000 N 
ATOM     11  N   UNL     1       2.262   9.163  18.176  0.00  0.00    +0.000 NA
ATOM     12  C   UNL     1       1.423   9.350  19.207  0.00  0.00    +0.000 A 
ATOM     13  H   UNL     1       0.475   5.977  21.083  0.00  0.00    +0.000 HD
ATOM     14  H   UNL     1       3.736   8.412  16.471  0.00  0.00    +0.000 HD
ENDROOT
BRANCH  10  15
ATOM     15  C   UNL     1       4.767   6.734  17.114  0.00  0.00    +0.000 A 
ATOM     16  C   UNL     1       6.093   7.141  17.347  0.00  0.00    +0.000 A 
ATOM     17  C   UNL     1       7.156   6.243  17.193  0.00  0.00    +0.000 A 
ATOM     18  C   UNL     1       6.896   4.931  16.813  0.00  0.00    +0.000 A 
ATOM     19  F   UNL     1       7.916   4.077  16.652  0.00  0.00    +0.000 F 
ATOM     20  C   UNL     1       5.594   4.512  16.592  0.00  0.00    +0.000 A 
ATOM     21  F   UNL     1       5.339   3.247  16.231  0.00  0.00    +0.000 F 
ATOM     22  C   UNL     1       4.539   5.403  16.731  0.00  0.00    +0.000 A 
ENDBRANCH  10  15
BRANCH   7  23
ATOM     23  C   UNL     1       2.312   5.019  21.035  0.00  0.00    +0.000 C 
BRANCH  23  24
ATOM     24  C   UNL     1       1.426   3.815  20.887  0.00  0.00    +0.000 C 
ATOM     25  C   UNL     1       1.908   2.578  20.166  0.00  0.00    +0.000 C 
ATOM     26  C   UNL     1       1.717   2.552  21.658  0.00  0.00    +0.000 C 
ENDBRANCH  23  24
ENDBRANCH   7  23
TORSDOF 3
ENDMDL
MODEL 2
REMARK VINA RESULT:      -7.6      0.663      1.404
REMARK  Name = 
REMARK  4 active torsions:
REMARK  status: ('A' for Active; 'I' for Inactive)
REMARK    1  A    between atoms: C_1  and  N_2
REMARK    2  A    between atoms: N_7  and  C_8
REMARK    3  A    between atoms: C_8  and  C_9
REMARK    4  A    between atoms: N_14  and  C_15
REMARK                            x       y       z     vdW  Elec       q    Type
REMARK                         _______ _______ _______ _____ _____    ______ ____
ROOT
ATOM      1  C   UNL     1       0.635  11.618  18.867  0.00  0.00    +0.000 C 
ATOM      2  N   UNL     1       0.651  10.350  19.551  0.00  0.00    +0.000 N 
ATOM      3  N   UNL     1      -0.105  10.163  20.658  0.00  0.00    +0.000 NA
ATOM      4  C   UNL     1       0.213   8.920  21.037  0.00  0.00    +0.000 A 
ATOM      5  C   UNL     1       1.145   8.308  20.176  0.00  0.00    +0.000 A 
ATOM      6  C   UNL     1       1.836   7.102  20.091  0.00  0.00    +0.000 A 
ATOM      7  N   UNL     1       1.638   6.081  21.021  0.00  0.00    +0.000 N 
ATOM      8  N   UNL     1       2.718   6.973  19.073  0.00  0.00    +0.000 NA
ATOM      9  C   UNL     1       2.887   7.961  18.164  0.00  0.00    +0.000 A 
ATOM     10  N   UNL     1       3.774   7.751  17.105  0.00  0.00    +0.000 N 
ATOM     11  N   UNL     1       2.239   9.137  18.164  0.00  0.00    +0.000 NA
ATOM     12  C   UNL     1       1.403   9.260  19.208  0.00  0.00    +0.000 A 
ATOM     13  H   UNL     1       0.661   5.807  21.030  0.00  0.00    +0.000 HD
ATOM     14  H   UNL     1       3.728   8.498  16.428  0.00  0.00    +0.000 HD
ENDROOT
BRANCH  10  15
ATOM     15  C   UNL     1       4.856   6.866  17.026  0.00  0.00    +0.000 A 
ATOM     16  C   UNL     1       4.696   5.627  16.381  0.00  0.00    +0.000 A 
ATOM     17  C   UNL     1       5.726   4.678  16.386  0.00  0.00    +0.000 A 
ATOM     18  C   UNL     1       6.924   4.969  17.031  0.00  0.00    +0.000 A 
ATOM     19  F   UNL     1       7.903   4.055  17.046  0.00  0.00    +0.000 F 
ATOM     20  C   UNL     1       7.100   6.191  17.660  0.00  0.00    +0.000 A 
ATOM     21  F   UNL     1       8.254   6.478  18.277  0.00  0.00    +0.000 F 
ATOM     22  C   UNL     1       6.076   7.128  17.668  0.00  0.00    +0.000 A 
ENDBRANCH  10  15
BRANCH   7  23
ATOM     23  C   UNL     1       2.546   4.949  20.942  0.00  0.00    +0.000 C 
BRANCH  23  24
ATOM     24  C   UNL     1       1.760   3.701  21.227  0.00  0.00    +0.000 C 
ATOM     25  C   UNL     1       1.778   2.535  20.268  0.00  0.00    +0.000 C 
ATOM     26  C   UNL     1       2.466   2.422  21.600  0.00  0.00    +0.000 C 
ENDBRANCH  23  24
ENDBRANCH   7  23
TORSDOF 3
ENDMDL
MODEL 3
REMARK VINA RESULT:      -7.2      4.384      7.446
REMARK  Name = 
REMARK  4 active torsions:
REMARK  status: ('A' for Active; 'I' for Inactive)
REMARK    1  A    between atoms: C_1  and  N_2
REMARK    2  A    between atoms: N_7  and  C_8
REMARK    3  A    between atoms: C_8  and  C_9
REMARK    4  A    between atoms: N_14  and  C_15
REMARK                            x       y       z     vdW  Elec       q    Type
REMARK                         _______ _______ _______ _____ _____    ______ ____
ROOT
ATOM      1  C   UNL     1       5.692   2.736  11.912  0.00  0.00    +0.000 C 
ATOM      2  N   UNL     1       6.319   3.721  12.757  0.00  0.00    +0.000 N 
ATOM      3  N   UNL     1       7.470   4.319  12.370  0.00  0.00    +0.000 NA
ATOM      4  C   UNL     1       7.770   5.103  13.412  0.00  0.00    +0.000 A 
ATOM      5  C   UNL     1       6.817   5.026  14.446  0.00  0.00    +0.000 A 
ATOM      6  C   UNL     1       6.629   5.557  15.720  0.00  0.00    +0.000 A 
ATOM      7  N   UNL     1       7.527   6.474  16.267  0.00  0.00    +0.000 N 
ATOM      8  N   UNL     1       5.545   5.130  16.407  0.00  0.00    +0.000 NA
ATOM      9  C   UNL     1       4.669   4.256  15.859  0.00  0.00    +0.000 A 
ATOM     10  N   UNL     1       3.540   3.891  16.596  0.00  0.00    +0.000 N 
ATOM     11  N   UNL     1       4.767   3.723  14.630  0.00  0.00    +0.000 NA
ATOM     12  C   UNL     1       5.875   4.126  13.986  0.00  0.00    +0.000 A 
ATOM     13  H   UNL     1       7.596   7.290  15.666  0.00  0.00    +0.000 HD
ATOM     14  H   UNL     1       2.900   3.336  16.046  0.00  0.00    +0.000 HD
ENDROOT
BRANCH  10  15
ATOM     15  C   UNL     1       3.343   3.929  17.981  0.00  0.00    +0.000 A 
ATOM     16  C   UNL     1       3.798   2.864  18.779  0.00  0.00    +0.000 A 
ATOM     17  C   UNL     1       3.515   2.823  20.149  0.00  0.00    +0.000 A 
ATOM     18  C   UNL     1       2.781   3.852  20.729  0.00  0.00    +0.000 A 
ATOM     19  F   UNL     1       2.499   3.804  22.038  0.00  0.00    +0.000 F 
ATOM     20  C   UNL     1       2.335   4.914  19.958  0.00  0.00    +0.000 A 
ATOM     21  F   UNL     1       1.633   5.911  20.514  0.00  0.00    +0.000 F 
ATOM     22  C   UNL     1       2.603   4.950  18.597  0.00  0.00    +0.000 A 
ENDBRANCH  10  15
BRANCH   7  23
ATOM     23  C   UNL     1       7.333   6.814  17.666  0.00  0.00    +0.000 C 
BRANCH  23  24
ATOM     24  C   UNL     1       7.583   5.578  18.484  0.00  0.00    +0.000 C 
ATOM     25  C   UNL     1       8.029   5.676  19.923  0.00  0.00    +0.000 C 
ATOM     26  C   UNL     1       6.641   5.196  19.597  0.00  0.00    +0.000 C 
ENDBRANCH  23  24
ENDBRANCH   7  23
TORSDOF 3
ENDMDL
MODEL 4
REMARK VINA RESULT:      -7.2      3.485      6.385
REMARK  Name = 
REMARK  4 active torsions:
REMARK  status: ('A' for Active; 'I' for Inactive)
REMARK    1  A    between atoms: C_1  and  N_2
REMARK    2  A    between atoms: N_7  and  C_8
REMARK    3  A    between atoms: C_8  and  C_9
REMARK    4  A    between atoms: N_14  and  C_15
REMARK                            x       y       z     vdW  Elec       q    Type
REMARK                         _______ _______ _______ _____ _____    ______ ____
ROOT
ATOM      1  C   UNL     1       6.551   5.645  15.125  0.00  0.00    +0.000 C 
ATOM      2  N   UNL     1       5.650   4.890  15.958  0.00  0.00    +0.000 N 
ATOM      3  N   UNL     1       5.660   3.537  15.923  0.00  0.00    +0.000 NA
ATOM      4  C   UNL     1       4.672   3.204  16.762  0.00  0.00    +0.000 A 
ATOM      5  C   UNL     1       4.047   4.324  17.342  0.00  0.00    +0.000 A 
ATOM      6  C   UNL     1       2.992   4.583  18.214  0.00  0.00    +0.000 A 
ATOM      7  N   UNL     1       2.263   3.550  18.803  0.00  0.00    +0.000 N 
ATOM      8  N   UNL     1       2.699   5.882  18.451  0.00  0.00    +0.000 NA
ATOM      9  C   UNL     1       3.426   6.877  17.892  0.00  0.00    +0.000 A 
ATOM     10  N   UNL     1       3.110   8.199  18.214  0.00  0.00    +0.000 N 
ATOM     11  N   UNL     1       4.472   6.707  17.066  0.00  0.00    +0.000 NA
ATOM     12  C   UNL     1       4.714   5.411  16.810  0.00  0.00    +0.000 A 
ATOM     13  H   UNL     1       2.883   2.949  19.336  0.00  0.00    +0.000 HD
ATOM     14  H   UNL     1       3.788   8.846  17.839  0.00  0.00    +0.000 HD
ENDROOT
BRANCH  10  15
ATOM     15  C   UNL     1       1.901   8.725  18.684  0.00  0.00    +0.000 A 
ATOM     16  C   UNL     1       1.041   9.397  17.797  0.00  0.00    +0.000 A 
ATOM     17  C   UNL     1      -0.118  10.029  18.263  0.00  0.00    +0.000 A 
ATOM     18  C   UNL     1      -0.426   9.985  19.618  0.00  0.00    +0.000 A 
ATOM     19  F   UNL     1      -1.528  10.603  20.064  0.00  0.00    +0.000 F 
ATOM     20  C   UNL     1       0.405   9.317  20.503  0.00  0.00    +0.000 A 
ATOM     21  F   UNL     1       0.109   9.266  21.809  0.00  0.00    +0.000 F 
ATOM     22  C   UNL     1       1.562   8.700  20.046  0.00  0.00    +0.000 A 
ENDBRANCH  10  15
BRANCH   7  23
ATOM     23  C   UNL     1       1.072   3.937  19.540  0.00  0.00    +0.000 C 
BRANCH  23  24
ATOM     24  C   UNL     1       1.390   3.864  21.008  0.00  0.00    +0.000 C 
ATOM     25  C   UNL     1       1.187   2.585  21.784  0.00  0.00    +0.000 C 
ATOM     26  C   UNL     1       2.579   3.075  21.493  0.00  0.00    +0.000 C 
ENDBRANCH  23  24
ENDBRANCH   7  23
TORSDOF 3
ENDMDL
MODEL 5
REMARK VINA RESULT:      -7.0      0.919      1.020
REMARK  Name = 
REMARK  4 active torsions:
REMARK  status: ('A' for Active; 'I' for Inactive)
REMARK    1  A    between atoms: C_1  and  N_2
REMARK    2  A    between atoms: N_7  and  C_8
REMARK    3  A    between atoms: C_8  and  C_9
REMARK    4  A    between atoms: N_14  and  C_15
REMARK                            x       y       z     vdW  Elec       q    Type
REMARK                         _______ _______ _______ _____ _____    ______ ____
ROOT
ATOM      1  C   UNL     1       0.733  11.277  19.305  0.00  0.00    +0.000 C 
ATOM      2  N   UNL     1       0.860   9.968  19.893  0.00  0.00    +0.000 N 
ATOM      3  N   UNL     1       0.264   9.691  21.076  0.00  0.00    +0.000 NA
ATOM      4  C   UNL     1       0.648   8.433  21.323  0.00  0.00    +0.000 A 
ATOM      5  C   UNL     1       1.464   7.901  20.306  0.00  0.00    +0.000 A 
ATOM      6  C   UNL     1       2.155   6.720  20.046  0.00  0.00    +0.000 A 
ATOM      7  N   UNL     1       2.100   5.636  20.923  0.00  0.00    +0.000 N 
ATOM      8  N   UNL     1       2.893   6.679  18.914  0.00  0.00    +0.000 NA
ATOM      9  C   UNL     1       2.923   7.728  18.059  0.00  0.00    +0.000 A 
ATOM     10  N   UNL     1       3.661   7.609  16.880  0.00  0.00    +0.000 N 
ATOM     11  N   UNL     1       2.264   8.886  18.226  0.00  0.00    +0.000 NA
ATOM     12  C   UNL     1       1.575   8.920  19.379  0.00  0.00    +0.000 A 
ATOM     13  H   UNL     1       1.136   5.339  21.044  0.00  0.00    +0.000 HD
ATOM     14  H   UNL     1       3.514   8.398  16.267  0.00  0.00    +0.000 HD
ENDROOT
BRANCH  10  15
ATOM     15  C   UNL     1       4.735   6.758  16.596  0.00  0.00    +0.000 A 
ATOM     16  C   UNL     1       5.905   6.829  17.372  0.00  0.00    +0.000 A 
ATOM     17  C   UNL     1       7.034   6.070  17.040  0.00  0.00    +0.000 A 
ATOM     18  C   UNL     1       6.993   5.229  15.933  0.00  0.00    +0.000 A 
ATOM     19  F   UNL     1       8.079   4.514  15.609  0.00  0.00    +0.000 F 
ATOM     20  C   UNL     1       5.843   5.139  15.165  0.00  0.00    +0.000 A 
ATOM     21  F   UNL     1       5.798   4.325  14.102  0.00  0.00    +0.000 F 
ATOM     22  C   UNL     1       4.727   5.901  15.485  0.00  0.00    +0.000 A 
ENDBRANCH  10  15
BRANCH   7  23
ATOM     23  C   UNL     1       3.005   4.534  20.646  0.00  0.00    +0.000 C 
BRANCH  23  24
ATOM     24  C   UNL     1       2.178   3.311  20.367  0.00  0.00    +0.000 C 
ATOM     25  C   UNL     1       1.381   2.645  21.463  0.00  0.00    +0.000 C 
ATOM     26  C   UNL     1       0.672   3.391  20.367  0.00  0.00    +0.000 C 
ENDBRANCH  23  24
ENDBRANCH   7  23
TORSDOF 3
ENDMDL
MODEL 6
REMARK VINA RESULT:      -6.8      4.196      7.382
REMARK  Name = 
REMARK  4 active torsions:
REMARK  status: ('A' for Active; 'I' for Inactive)
REMARK    1  A    between atoms: C_1  and  N_2
REMARK    2  A    between atoms: N_7  and  C_8
REMARK    3  A    between atoms: C_8  and  C_9
REMARK    4  A    between atoms: N_14  and  C_15
REMARK                            x       y       z     vdW  Elec       q    Type
REMARK                         _______ _______ _______ _____ _____    ______ ____
ROOT
ATOM      1  C   UNL     1       5.807   2.702  11.835  0.00  0.00    +0.000 C 
ATOM      2  N   UNL     1       6.397   3.689  12.703  0.00  0.00    +0.000 N 
ATOM      3  N   UNL     1       7.564   4.284  12.364  0.00  0.00    +0.000 NA
ATOM      4  C   UNL     1       7.820   5.072  13.415  0.00  0.00    +0.000 A 
ATOM      5  C   UNL     1       6.824   4.998  14.408  0.00  0.00    +0.000 A 
ATOM      6  C   UNL     1       6.582   5.533  15.672  0.00  0.00    +0.000 A 
ATOM      7  N   UNL     1       7.457   6.452  16.253  0.00  0.00    +0.000 N 
ATOM      8  N   UNL     1       5.469   5.110  16.312  0.00  0.00    +0.000 NA
ATOM      9  C   UNL     1       4.616   4.235  15.730  0.00  0.00    +0.000 A 
ATOM     10  N   UNL     1       3.456   3.873  16.419  0.00  0.00    +0.000 N 
ATOM     11  N   UNL     1       4.767   3.698  14.508  0.00  0.00    +0.000 NA
ATOM     12  C   UNL     1       5.901   4.098  13.911  0.00  0.00    +0.000 A 
ATOM     13  H   UNL     1       7.553   7.265  15.653  0.00  0.00    +0.000 HD
ATOM     14  H   UNL     1       2.841   3.317  15.844  0.00  0.00    +0.000 HD
ENDROOT
BRANCH  10  15
ATOM     15  C   UNL     1       3.200   3.915  17.795  0.00  0.00    +0.000 A 
ATOM     16  C   UNL     1       2.445   4.973  18.331  0.00  0.00    +0.000 A 
ATOM     17  C   UNL     1       2.270   5.100  19.714  0.00  0.00    +0.000 A 
ATOM     18  C   UNL     1       2.844   4.164  20.567  0.00  0.00    +0.000 A 
ATOM     19  F   UNL     1       2.688   4.295  21.891  0.00  0.00    +0.000 F 
ATOM     20  C   UNL     1       3.581   3.109  20.053  0.00  0.00    +0.000 A 
ATOM     21  F   UNL     1       4.131   2.201  20.871  0.00  0.00    +0.000 F 
ATOM     22  C   UNL     1       3.768   2.988  18.682  0.00  0.00    +0.000 A 
ENDBRANCH  10  15
BRANCH   7  23
ATOM     23  C   UNL     1       7.203   6.795  17.642  0.00  0.00    +0.000 C 
BRANCH  23  24
ATOM     24  C   UNL     1       7.483   5.580  18.481  0.00  0.00    +0.000 C 
ATOM     25  C   UNL     1       7.981   5.714  19.900  0.00  0.00    +0.000 C 
ATOM     26  C   UNL     1       6.583   5.227  19.637  0.00  0.00    +0.000 C 
ENDBRANCH  23  24
ENDBRANCH   7  23
TORSDOF 3
ENDMDL
MODEL 7
REMARK VINA RESULT:      -6.8      1.133      1.380
REMARK  Name = 
REMARK  4 active torsions:
REMARK  status: ('A' for Active; 'I' for Inactive)
REMARK    1  A    between atoms: C_1  and  N_2
REMARK    2  A    between atoms: N_7  and  C_8
REMARK    3  A    between atoms: C_8  and  C_9
REMARK    4  A    between atoms: N_14  and  C_15
REMARK                            x       y       z     vdW  Elec       q    Type
REMARK                         _______ _______ _______ _____ _____    ______ ____
ROOT
ATOM      1  C   UNL     1       0.803  11.290  20.154  0.00  0.00    +0.000 C 
ATOM      2  N   UNL     1       0.750   9.905  20.549  0.00  0.00    +0.000 N 
ATOM      3  N   UNL     1       0.040   9.535  21.641  0.00  0.00    +0.000 NA
ATOM      4  C   UNL     1       0.272   8.219  21.722  0.00  0.00    +0.000 A 
ATOM      5  C   UNL     1       1.104   7.747  20.688  0.00  0.00    +0.000 A 
ATOM      6  C   UNL     1       1.687   6.543  20.299  0.00  0.00    +0.000 A 
ATOM      7  N   UNL     1       1.454   5.360  21.002  0.00  0.00    +0.000 N 
ATOM      8  N   UNL     1       2.500   6.578  19.219  0.00  0.00    +0.000 NA
ATOM      9  C   UNL     1       2.703   7.726  18.532  0.00  0.00    +0.000 A 
ATOM     10  N   UNL     1       3.512   7.691  17.394  0.00  0.00    +0.000 N 
ATOM     11  N   UNL     1       2.156   8.917  18.828  0.00  0.00    +0.000 NA
ATOM     12  C   UNL     1       1.390   8.866  19.930  0.00  0.00    +0.000 A 
ATOM     13  H   UNL     1       0.459   5.159  21.019  0.00  0.00    +0.000 HD
ATOM     14  H   UNL     1       3.494   8.569  16.897  0.00  0.00    +0.000 HD
ENDROOT
BRANCH  10  15
ATOM     15  C   UNL     1       4.511   6.771  17.053  0.00  0.00    +0.000 A 
ATOM     16  C   UNL     1       4.868   6.599  15.704  0.00  0.00    +0.000 A 
ATOM     17  C   UNL     1       5.781   5.608  15.325  0.00  0.00    +0.000 A 
ATOM     18  C   UNL     1       6.348   4.789  16.296  0.00  0.00    +0.000 A 
ATOM     19  F   UNL     1       7.211   3.832  15.930  0.00  0.00    +0.000 F 
ATOM     20  C   UNL     1       6.015   4.955  17.631  0.00  0.00    +0.000 A 
ATOM     21  F   UNL     1       6.563   4.172  18.571  0.00  0.00    +0.000 F 
ATOM     22  C   UNL     1       5.099   5.928  18.008  0.00  0.00    +0.000 A 
ENDBRANCH  10  15
BRANCH   7  23
ATOM     23  C   UNL     1       2.259   4.212  20.620  0.00  0.00    +0.000 C 
BRANCH  23  24
ATOM     24  C   UNL     1       1.374   3.248  19.881  0.00  0.00    +0.000 C 
ATOM     25  C   UNL     1       1.424   3.146  18.375  0.00  0.00    +0.000 C 
ATOM     26  C   UNL     1       1.961   2.025  19.222  0.00  0.00    +0.000 C 
ENDBRANCH  23  24
ENDBRANCH   7  23
TORSDOF 3
ENDMDL
MODEL 8
REMARK VINA RESULT:      -6.8      1.872      4.482
REMARK  Name = 
REMARK  4 active torsions:
REMARK  status: ('A' for Active; 'I' for Inactive)
REMARK    1  A    between atoms: C_1  and  N_2
REMARK    2  A    between atoms: N_7  and  C_8
REMARK    3  A    between atoms: C_8  and  C_9
REMARK    4  A    between atoms: N_14  and  C_15
REMARK                            x       y       z     vdW  Elec       q    Type
REMARK                         _______ _______ _______ _____ _____    ______ ____
ROOT
ATOM      1  C   UNL     1      -0.601  10.145  22.399  0.00  0.00    +0.000 C 
ATOM      2  N   UNL     1       0.181  10.055  21.193  0.00  0.00    +0.000 N 
ATOM      3  N   UNL     1       0.270  11.114  20.356  0.00  0.00    +0.000 NA
ATOM      4  C   UNL     1       1.010  10.643  19.346  0.00  0.00    +0.000 A 
ATOM      5  C   UNL     1       1.407   9.306  19.537  0.00  0.00    +0.000 A 
ATOM      6  C   UNL     1       2.118   8.329  18.844  0.00  0.00    +0.000 A 
ATOM      7  N   UNL     1       2.705   8.596  17.606  0.00  0.00    +0.000 N 
ATOM      8  N   UNL     1       2.200   7.108  19.418  0.00  0.00    +0.000 NA
ATOM      9  C   UNL     1       1.645   6.865  20.629  0.00  0.00    +0.000 A 
ATOM     10  N   UNL     1       1.806   5.599  21.197  0.00  0.00    +0.000 N 
ATOM     11  N   UNL     1       0.970   7.760  21.369  0.00  0.00    +0.000 NA
ATOM     12  C   UNL     1       0.863   8.951  20.757  0.00  0.00    +0.000 A 
ATOM     13  H   UNL     1       3.362   9.366  17.694  0.00  0.00    +0.000 HD
ATOM     14  H   UNL     1       1.459   5.570  22.144  0.00  0.00    +0.000 HD
ENDROOT
BRANCH  10  15
ATOM     15  C   UNL     1       2.078   4.380  20.565  0.00  0.00    +0.000 A 
ATOM     16  C   UNL     1       3.404   3.922  20.476  0.00  0.00    +0.000 A 
ATOM     17  C   UNL     1       3.715   2.764  19.753  0.00  0.00    +0.000 A 
ATOM     18  C   UNL     1       2.699   2.055  19.122  0.00  0.00    +0.000 A 
ATOM     19  F   UNL     1       3.001   0.955  18.418  0.00  0.00    +0.000 F 
ATOM     20  C   UNL     1       1.386   2.487  19.211  0.00  0.00    +0.000 A 
ATOM     21  F   UNL     1       0.402   1.804  18.610  0.00  0.00    +0.000 F 
ATOM     22  C   UNL     1       1.076   3.642  19.916  0.00  0.00    +0.000 A 
ENDBRANCH  10  15
BRANCH   7  23
ATOM     23  C   UNL     1       3.256   7.457  16.893  0.00  0.00    +0.000 C 
BRANCH  23  24
ATOM     24  C   UNL     1       4.694   7.301  17.304  0.00  0.00    +0.000 C 
ATOM     25  C   UNL     1       5.205   5.994  17.863  0.00  0.00    +0.000 C 
ATOM     26  C   UNL     1       5.631   6.443  16.493  0.00  0.00    +0.000 C 
ENDBRANCH  23  24
ENDBRANCH   7  23
TORSDOF 3
ENDMDL
MODEL 9
REMARK VINA RESULT:      -6.7      4.076      7.085
REMARK  Name = 
REMARK  4 active torsions:
REMARK  status: ('A' for Active; 'I' for Inactive)
REMARK    1  A    between atoms: C_1  and  N_2
REMARK    2  A    between atoms: N_7  and  C_8
REMARK    3  A    between atoms: C_8  and  C_9
REMARK    4  A    between atoms: N_14  and  C_15
REMARK                            x       y       z     vdW  Elec       q    Type
REMARK                         _______ _______ _______ _____ _____    ______ ____
ROOT
ATOM      1  C   UNL     1       4.883   6.720  16.051  0.00  0.00    +0.000 C 
ATOM      2  N   UNL     1       4.289   6.580  17.356  0.00  0.00    +0.000 N 
ATOM      3  N   UNL     1       4.646   5.553  18.161  0.00  0.00    +0.000 NA
ATOM      4  C   UNL     1       3.859   5.718  19.231  0.00  0.00    +0.000 A 
ATOM      5  C   UNL     1       3.021   6.844  19.125  0.00  0.00    +0.000 A 
ATOM      6  C   UNL     1       2.019   7.462  19.870  0.00  0.00    +0.000 A 
ATOM      7  N   UNL     1       1.640   6.978  21.122  0.00  0.00    +0.000 N 
ATOM      8  N   UNL     1       1.422   8.542  19.316  0.00  0.00    +0.000 NA
ATOM      9  C   UNL     1       1.813   9.016  18.110  0.00  0.00    +0.000 A 
ATOM     10  N   UNL     1       1.195  10.165  17.612  0.00  0.00    +0.000 N 
ATOM     11  N   UNL     1       2.786   8.493  17.347  0.00  0.00    +0.000 NA
ATOM     12  C   UNL     1       3.332   7.396  17.896  0.00  0.00    +0.000 A 
ATOM     13  H   UNL     1       2.441   6.966  21.745  0.00  0.00    +0.000 HD
ATOM     14  H   UNL     1       1.645  10.495  16.771  0.00  0.00    +0.000 HD
ENDROOT
BRANCH  10  15
ATOM     15  C   UNL     1      -0.061  10.697  17.928  0.00  0.00    +0.000 A 
ATOM     16  C   UNL     1      -0.146  11.893  18.662  0.00  0.00    +0.000 A 
ATOM     17  C   UNL     1      -1.386  12.386  19.088  0.00  0.00    +0.000 A 
ATOM     18  C   UNL     1      -2.546  11.687  18.775  0.00  0.00    +0.000 A 
ATOM     19  F   UNL     1      -3.730  12.153  19.195  0.00  0.00    +0.000 F 
ATOM     20  C   UNL     1      -2.479  10.513  18.041  0.00  0.00    +0.000 A 
ATOM     21  F   UNL     1      -3.596   9.840  17.732  0.00  0.00    +0.000 F 
ATOM     22  C   UNL     1      -1.251  10.015  17.629  0.00  0.00    +0.000 A 
ENDBRANCH  10  15
BRANCH   7  23
ATOM     23  C   UNL     1       0.463   7.584  21.720  0.00  0.00    +0.000 C 
BRANCH  23  24
ATOM     24  C   UNL     1       0.868   8.908  22.306  0.00  0.00    +0.000 C 
ATOM     25  C   UNL     1       0.066  10.158  22.029  0.00  0.00    +0.000 C 
ATOM     26  C   UNL     1       0.047   9.541  23.401  0.00  0.00    +0.000 C 
ENDBRANCH  23  24
ENDBRANCH   7  23
TORSDOF 3
ENDMDL
