MODEL 1
REMARK VINA RESULT:      -9.2      0.000      0.000
REMARK  Name = 
REMARK  8 active torsions:
REMARK  status: ('A' for Active; 'I' for Inactive)
REMARK    1  A    between atoms: N_1  and  C_2
REMARK    2  A    between atoms: C_7  and  N_8
REMARK    3  A    between atoms: C_9  and  C_11
REMARK    4  A    between atoms: C_11  and  C_12
REMARK    5  A    between atoms: C_15  and  N_16
REMARK    6  A    between atoms: C_17  and  C_19
REMARK    7  A    between atoms: C_23  and  N_24
REMARK    8  A    between atoms: C_25  and  C_27
REMARK                            x       y       z     vdW  Elec       q    Type
REMARK                         _______ _______ _______ _____ _____    ______ ____
ROOT
ATOM      1  N   UNL     1       2.020   6.115  20.899  0.00  0.00    +0.000 N 
ATOM      2  C   UNL     1       1.775   4.992  20.124  0.00  0.00    +0.000 C 
ATOM      3  O   UNL     1       1.139   4.948  19.076  0.00  0.00    +0.000 OA
ATOM      4  H   UNL     1       2.547   5.916  21.747  0.00  0.00    +0.000 HD
ENDROOT
BRANCH   1   8
ATOM      5  C   UNL     1       0.819  10.115  20.239  0.00  0.00    +0.000 A 
ATOM      6  C   UNL     1       1.494   9.417  19.234  0.00  0.00    +0.000 A 
ATOM      7  C   UNL     1       1.901   8.096  19.436  0.00  0.00    +0.000 A 
ATOM      8  C   UNL     1       1.638   7.444  20.640  0.00  0.00    +0.000 A 
ATOM      9  C   UNL     1       0.969   8.146  21.652  0.00  0.00    +0.000 A 
ATOM     10  C   UNL     1       0.562   9.471  21.454  0.00  0.00    +0.000 A 
BRANCH   5  11
ATOM     11  C   UNL     1       0.381  11.538  20.002  0.00  0.00    +0.000 C 
BRANCH  11  13
ATOM     12  N   UNL     1      -1.574  10.855  18.634  0.00  0.00    +0.000 N 
ATOM     13  C   UNL     1      -0.598  11.805  18.867  0.00  0.00    +0.000 C 
ATOM     14  O   UNL     1      -0.470  12.859  18.239  0.00  0.00    +0.000 OA
ATOM     15  H   UNL     1      -1.731  10.163  19.351  0.00  0.00    +0.000 HD
BRANCH  12  21
ATOM     16  C   UNL     1      -3.758  11.503  17.734  0.00  0.00    +0.000 A 
ATOM     17  C   UNL     1      -4.630  11.587  16.632  0.00  0.00    +0.000 A 
ATOM     18  C   UNL     1      -4.336  10.951  15.426  0.00  0.00    +0.000 A 
ATOM     19  C   UNL     1      -3.147  10.250  15.293  0.00  0.00    +0.000 A 
ATOM     20  C   UNL     1      -2.244  10.204  16.354  0.00  0.00    +0.000 A 
ATOM     21  C   UNL     1      -2.512  10.852  17.567  0.00  0.00    +0.000 A 
BRANCH  16  22
ATOM     22  N   UNL     1      -4.069  12.264  18.882  0.00  0.00    +0.000 N 
ATOM     23  H   UNL     1      -4.426  11.692  19.643  0.00  0.00    +0.000 HD
ATOM     24  H   UNL     1      -3.314  12.856  19.207  0.00  0.00    +0.000 HD
ENDBRANCH  16  22
ENDBRANCH  12  21
ENDBRANCH  11  13
ENDBRANCH   5  11
ENDBRANCH   1   8
BRANCH   2  25
ATOM     25  C   UNL     1       2.372   3.774  20.695  0.00  0.00    +0.000 A 
ATOM     26  N   UNL     1       1.928   3.249  21.859  0.00  0.00    +0.000 NA
ATOM     27  N   UNL     1       2.717   2.172  22.041  0.00  0.00    +0.000 N 
ATOM     28  C   UNL     1       3.637   1.991  21.057  0.00  0.00    +0.000 A 
ATOM     29  C   UNL     1       3.457   3.008  20.153  0.00  0.00    +0.000 A 
ATOM     30  H   UNL     1       2.574   1.601  22.868  0.00  0.00    +0.000 HD
BRANCH  29  31
ATOM     31  N   UNL     1       4.164   3.253  18.981  0.00  0.00    +0.000 N 
ATOM     32  C   UNL     1       4.850   4.422  18.701  0.00  0.00    +0.000 C 
ATOM     33  O   UNL     1       4.945   5.383  19.465  0.00  0.00    +0.000 OA
ATOM     34  H   UNL     1       4.125   2.514  18.282  0.00  0.00    +0.000 HD
BRANCH  32  35
ATOM     35  C   UNL     1       5.568   4.511  17.392  0.00  0.00    +0.000 A 
ATOM     36  C   UNL     1       4.804   4.188  16.250  0.00  0.00    +0.000 A 
ATOM     37  C   UNL     1       5.365   4.209  14.971  0.00  0.00    +0.000 A 
ATOM     38  C   UNL     1       6.702   4.553  14.810  0.00  0.00    +0.000 A 
ATOM     39  C   UNL     1       7.476   4.866  15.928  0.00  0.00    +0.000 A 
ATOM     40  C   UNL     1       6.919   4.841  17.217  0.00  0.00    +0.000 A 
ATOM     41 CL   UNL     1       8.002   5.174  18.520  0.00  0.00    +0.000 Cl
ENDBRANCH  32  35
ENDBRANCH  29  31
ENDBRANCH   2  25
TORSDOF 8
ENDMDL
MODEL 2
REMARK VINA RESULT:      -9.1      2.823      3.847
REMARK  Name = 
REMARK  8 active torsions:
REMARK  status: ('A' for Active; 'I' for Inactive)
REMARK    1  A    between atoms: N_1  and  C_2
REMARK    2  A    between atoms: C_7  and  N_8
REMARK    3  A    between atoms: C_9  and  C_11
REMARK    4  A    between atoms: C_11  and  C_12
REMARK    5  A    between atoms: C_15  and  N_16
REMARK    6  A    between atoms: C_17  and  C_19
REMARK    7  A    between atoms: C_23  and  N_24
REMARK    8  A    between atoms: C_25  and  C_27
REMARK                            x       y       z     vdW  Elec       q    Type
REMARK                         _______ _______ _______ _____ _____    ______ ____
ROOT
ATOM      1  N   UNL     1       1.692   6.754  20.977  0.00  0.00    +0.000 N 
ATOM      2  C   UNL     1       2.181   6.014  19.911  0.00  0.00    +0.000 C 
ATOM      3  O   UNL     1       2.285   6.386  18.747  0.00  0.00    +0.000 OA
ATOM      4  H   UNL     1       1.668   6.236  21.853  0.00  0.00    +0.000 HD
ENDROOT
BRANCH   1   8
ATOM      5  C   UNL     1       0.336  10.757  21.089  0.00  0.00    +0.000 A 
ATOM      6  C   UNL     1       0.871  10.237  19.907  0.00  0.00    +0.000 A 
ATOM      7  C   UNL     1       1.327   8.918  19.853  0.00  0.00    +0.000 A 
ATOM      8  C   UNL     1       1.253   8.090  20.973  0.00  0.00    +0.000 A 
ATOM      9  C   UNL     1       0.726   8.614  22.161  0.00  0.00    +0.000 A 
ATOM     10  C   UNL     1       0.271   9.937  22.220  0.00  0.00    +0.000 A 
BRANCH   5  11
ATOM     11  C   UNL     1      -0.157  12.182  21.129  0.00  0.00    +0.000 C 
BRANCH  11  13
ATOM     12  N   UNL     1       0.722  13.799  19.463  0.00  0.00    +0.000 N 
ATOM     13  C   UNL     1       0.818  13.286  20.743  0.00  0.00    +0.000 C 
ATOM     14  O   UNL     1       1.618  13.666  21.601  0.00  0.00    +0.000 OA
ATOM     15  H   UNL     1      -0.112  13.587  18.937  0.00  0.00    +0.000 HD
BRANCH  12  21
ATOM     16  C   UNL     1       2.724  14.296  18.142  0.00  0.00    +0.000 A 
ATOM     17  C   UNL     1       3.516  15.243  17.465  0.00  0.00    +0.000 A 
ATOM     18  C   UNL     1       3.272  16.611  17.587  0.00  0.00    +0.000 A 
ATOM     19  C   UNL     1       2.210  17.051  18.361  0.00  0.00    +0.000 A 
ATOM     20  C   UNL     1       1.378  16.127  18.993  0.00  0.00    +0.000 A 
ATOM     21  C   UNL     1       1.595  14.748  18.867  0.00  0.00    +0.000 A 
BRANCH  16  22
ATOM     22  N   UNL     1       2.960  12.928  17.882  0.00  0.00    +0.000 N 
ATOM     23  H   UNL     1       2.100  12.409  17.722  0.00  0.00    +0.000 HD
ATOM     24  H   UNL     1       3.624  12.754  17.138  0.00  0.00    +0.000 HD
ENDBRANCH  16  22
ENDBRANCH  12  21
ENDBRANCH  11  13
ENDBRANCH   5  11
ENDBRANCH   1   8
BRANCH   2  25
ATOM     25  C   UNL     1       2.589   4.657  20.308  0.00  0.00    +0.000 A 
ATOM     26  N   UNL     1       2.149   4.097  21.458  0.00  0.00    +0.000 NA
ATOM     27  N   UNL     1       2.740   2.885  21.464  0.00  0.00    +0.000 N 
ATOM     28  C   UNL     1       3.530   2.653  20.383  0.00  0.00    +0.000 A 
ATOM     29  C   UNL     1       3.468   3.777  19.598  0.00  0.00    +0.000 A 
ATOM     30  H   UNL     1       2.561   2.263  22.246  0.00  0.00    +0.000 HD
BRANCH  29  31
ATOM     31  N   UNL     1       4.114   4.019  18.389  0.00  0.00    +0.000 N 
ATOM     32  C   UNL     1       5.438   4.401  18.263  0.00  0.00    +0.000 C 
ATOM     33  O   UNL     1       6.221   4.547  19.202  0.00  0.00    +0.000 OA
ATOM     34  H   UNL     1       3.533   3.936  17.557  0.00  0.00    +0.000 HD
BRANCH  32  35
ATOM     35  C   UNL     1       5.974   4.608  16.882  0.00  0.00    +0.000 A 
ATOM     36  C   UNL     1       5.538   3.683  15.910  0.00  0.00    +0.000 A 
ATOM     37  C   UNL     1       5.985   3.753  14.588  0.00  0.00    +0.000 A 
ATOM     38  C   UNL     1       6.877   4.751  14.214  0.00  0.00    +0.000 A 
ATOM     39  C   UNL     1       7.326   5.669  15.164  0.00  0.00    +0.000 A 
ATOM     40  C   UNL     1       6.885   5.600  16.495  0.00  0.00    +0.000 A 
ATOM     41 CL   UNL     1       7.576   6.747  17.585  0.00  0.00    +0.000 Cl
ENDBRANCH  32  35
ENDBRANCH  29  31
ENDBRANCH   2  25
TORSDOF 8
ENDMDL
MODEL 3
REMARK VINA RESULT:      -9.0      2.131      3.079
REMARK  Name = 
REMARK  8 active torsions:
REMARK  status: ('A' for Active; 'I' for Inactive)
REMARK    1  A    between atoms: N_1  and  C_2
REMARK    2  A    between atoms: C_7  and  N_8
REMARK    3  A    between atoms: C_9  and  C_11
REMARK    4  A    between atoms: C_11  and  C_12
REMARK    5  A    between atoms: C_15  and  N_16
REMARK    6  A    between atoms: C_17  and  C_19
REMARK    7  A    between atoms: C_23  and  N_24
REMARK    8  A    between atoms: C_25  and  C_27
REMARK                            x       y       z     vdW  Elec       q    Type
REMARK                         _______ _______ _______ _____ _____    ______ ____
ROOT
ATOM      1  N   UNL     1       2.616   5.659  20.380  0.00  0.00    +0.000 N 
ATOM      2  C   UNL     1       2.043   4.421  20.132  0.00  0.00    +0.000 C 
ATOM      3  O   UNL     1       0.954   4.209  19.608  0.00  0.00    +0.000 OA
ATOM      4  H   UNL     1       3.517   5.601  20.852  0.00  0.00    +0.000 HD
ENDROOT
BRANCH   1   8
ATOM      5  C   UNL     1       1.148   9.468  19.280  0.00  0.00    +0.000 A 
ATOM      6  C   UNL     1       0.871   8.956  20.551  0.00  0.00    +0.000 A 
ATOM      7  C   UNL     1       1.345   7.698  20.929  0.00  0.00    +0.000 A 
ATOM      8  C   UNL     1       2.109   6.929  20.053  0.00  0.00    +0.000 A 
ATOM      9  C   UNL     1       2.380   7.437  18.775  0.00  0.00    +0.000 A 
ATOM     10  C   UNL     1       1.903   8.697  18.390  0.00  0.00    +0.000 A 
BRANCH   5  11
ATOM     11  C   UNL     1       0.633  10.830  18.889  0.00  0.00    +0.000 C 
BRANCH  11  13
ATOM     12  N   UNL     1      -0.625  12.076  20.628  0.00  0.00    +0.000 N 
ATOM     13  C   UNL     1      -0.686  11.295  19.489  0.00  0.00    +0.000 C 
ATOM     14  O   UNL     1      -1.724  10.962  18.912  0.00  0.00    +0.000 OA
ATOM     15  H   UNL     1       0.267  12.481  20.868  0.00  0.00    +0.000 HD
BRANCH  12  21
ATOM     16  C   UNL     1      -2.033  11.866  22.621  0.00  0.00    +0.000 A 
ATOM     17  C   UNL     1      -3.057  12.387  23.433  0.00  0.00    +0.000 A 
ATOM     18  C   UNL     1      -3.840  13.462  23.010  0.00  0.00    +0.000 A 
ATOM     19  C   UNL     1      -3.586  14.053  21.782  0.00  0.00    +0.000 A 
ATOM     20  C   UNL     1      -2.538  13.588  20.989  0.00  0.00    +0.000 A 
ATOM     21  C   UNL     1      -1.728  12.522  21.405  0.00  0.00    +0.000 A 
BRANCH  16  22
ATOM     22  N   UNL     1      -1.211  10.852  23.163  0.00  0.00    +0.000 N 
ATOM     23  H   UNL     1      -1.491   9.922  22.860  0.00  0.00    +0.000 HD
ATOM     24  H   UNL     1      -0.221  10.993  23.011  0.00  0.00    +0.000 HD
ENDBRANCH  16  22
ENDBRANCH  12  21
ENDBRANCH  11  13
ENDBRANCH   5  11
ENDBRANCH   1   8
BRANCH   2  25
ATOM     25  C   UNL     1       2.893   3.307  20.579  0.00  0.00    +0.000 A 
ATOM     26  N   UNL     1       2.661   2.667  21.748  0.00  0.00    +0.000 NA
ATOM     27  N   UNL     1       3.638   1.740  21.799  0.00  0.00    +0.000 N 
ATOM     28  C   UNL     1       4.475   1.762  20.728  0.00  0.00    +0.000 A 
ATOM     29  C   UNL     1       4.035   2.766  19.902  0.00  0.00    +0.000 A 
ATOM     30  H   UNL     1       3.676   1.121  22.602  0.00  0.00    +0.000 HD
BRANCH  29  31
ATOM     31  N   UNL     1       4.573   3.177  18.687  0.00  0.00    +0.000 N 
ATOM     32  C   UNL     1       5.235   4.374  18.480  0.00  0.00    +0.000 C 
ATOM     33  O   UNL     1       5.460   5.214  19.351  0.00  0.00    +0.000 OA
ATOM     34  H   UNL     1       4.418   2.546  17.902  0.00  0.00    +0.000 HD
BRANCH  32  35
ATOM     35  C   UNL     1       5.760   4.651  17.106  0.00  0.00    +0.000 A 
ATOM     36  C   UNL     1       5.132   3.948  16.057  0.00  0.00    +0.000 A 
ATOM     37  C   UNL     1       5.546   4.099  14.731  0.00  0.00    +0.000 A 
ATOM     38  C   UNL     1       6.597   4.957  14.431  0.00  0.00    +0.000 A 
ATOM     39  C   UNL     1       7.236   5.654  15.457  0.00  0.00    +0.000 A 
ATOM     40  C   UNL     1       6.829   5.501  16.792  0.00  0.00    +0.000 A 
ATOM     41 CL   UNL     1       7.752   6.360  17.971  0.00  0.00    +0.000 Cl
ENDBRANCH  32  35
ENDBRANCH  29  31
ENDBRANCH   2  25
TORSDOF 8
ENDMDL
MODEL 4
REMARK VINA RESULT:      -8.9      1.984      2.685
REMARK  Name = 
REMARK  8 active torsions:
REMARK  status: ('A' for Active; 'I' for Inactive)
REMARK    1  A    between atoms: N_1  and  C_2
REMARK    2  A    between atoms: C_7  and  N_8
REMARK    3  A    between atoms: C_9  and  C_11
REMARK    4  A    between atoms: C_11  and  C_12
REMARK    5  A    between atoms: C_15  and  N_16
REMARK    6  A    between atoms: C_17  and  C_19
REMARK    7  A    between atoms: C_23  and  N_24
REMARK    8  A    between atoms: C_25  and  C_27
REMARK                            x       y       z     vdW  Elec       q    Type
REMARK                         _______ _______ _______ _____ _____    ______ ____
ROOT
ATOM      1  N   UNL     1       2.629   5.707  20.259  0.00  0.00    +0.000 N 
ATOM      2  C   UNL     1       1.953   4.500  20.171  0.00  0.00    +0.000 C 
ATOM      3  O   UNL     1       0.816   4.326  19.743  0.00  0.00    +0.000 OA
ATOM      4  H   UNL     1       3.556   5.623  20.673  0.00  0.00    +0.000 HD
ENDROOT
BRANCH   1   8
ATOM      5  C   UNL     1       1.258   9.543  19.129  0.00  0.00    +0.000 A 
ATOM      6  C   UNL     1       1.941   8.749  18.204  0.00  0.00    +0.000 A 
ATOM      7  C   UNL     1       2.404   7.480  18.561  0.00  0.00    +0.000 A 
ATOM      8  C   UNL     1       2.190   6.977  19.844  0.00  0.00    +0.000 A 
ATOM      9  C   UNL     1       1.513   7.776  20.775  0.00  0.00    +0.000 A 
ATOM     10  C   UNL     1       1.050   9.050  20.421  0.00  0.00    +0.000 A 
BRANCH   5  11
ATOM     11  C   UNL     1       0.759  10.908  18.725  0.00  0.00    +0.000 C 
BRANCH  11  13
ATOM     12  N   UNL     1      -1.174  11.305  20.230  0.00  0.00    +0.000 N 
ATOM     13  C   UNL     1       0.054  11.751  19.779  0.00  0.00    +0.000 C 
ATOM     14  O   UNL     1       0.630  12.765  20.178  0.00  0.00    +0.000 OA
ATOM     15  H   UNL     1      -1.433  10.354  20.017  0.00  0.00    +0.000 HD
BRANCH  12  21
ATOM     16  C   UNL     1      -3.140  12.720  20.602  0.00  0.00    +0.000 A 
ATOM     17  C   UNL     1      -4.054  13.299  21.501  0.00  0.00    +0.000 A 
ATOM     18  C   UNL     1      -3.840  13.257  22.879  0.00  0.00    +0.000 A 
ATOM     19  C   UNL     1      -2.723  12.605  23.379  0.00  0.00    +0.000 A 
ATOM     20  C   UNL     1      -1.836  11.975  22.508  0.00  0.00    +0.000 A 
ATOM     21  C   UNL     1      -2.045  11.989  21.122  0.00  0.00    +0.000 A 
BRANCH  16  22
ATOM     22  N   UNL     1      -3.481  12.703  19.231  0.00  0.00    +0.000 N 
ATOM     23  H   UNL     1      -3.799  13.610  18.899  0.00  0.00    +0.000 HD
ATOM     24  H   UNL     1      -2.757  12.337  18.626  0.00  0.00    +0.000 HD
ENDBRANCH  16  22
ENDBRANCH  12  21
ENDBRANCH  11  13
ENDBRANCH   5  11
ENDBRANCH   1   8
BRANCH   2  25
ATOM     25  C   UNL     1       2.753   3.369  20.666  0.00  0.00    +0.000 A 
ATOM     26  N   UNL     1       2.493   2.790  21.861  0.00  0.00    +0.000 NA
ATOM     27  N   UNL     1       3.427   1.823  21.953  0.00  0.00    +0.000 N 
ATOM     28  C   UNL     1       4.263   1.762  20.883  0.00  0.00    +0.000 A 
ATOM     29  C   UNL     1       3.869   2.749  20.014  0.00  0.00    +0.000 A 
ATOM     30  H   UNL     1       3.438   1.239  22.782  0.00  0.00    +0.000 HD
BRANCH  29  31
ATOM     31  N   UNL     1       4.423   3.083  18.783  0.00  0.00    +0.000 N 
ATOM     32  C   UNL     1       5.111   4.254  18.517  0.00  0.00    +0.000 C 
ATOM     33  O   UNL     1       5.345   5.135  19.344  0.00  0.00    +0.000 OA
ATOM     34  H   UNL     1       4.261   2.413  18.033  0.00  0.00    +0.000 HD
BRANCH  32  35
ATOM     35  C   UNL     1       5.651   4.445  17.135  0.00  0.00    +0.000 A 
ATOM     36  C   UNL     1       4.694   4.466  16.100  0.00  0.00    +0.000 A 
ATOM     37  C   UNL     1       5.072   4.614  14.763  0.00  0.00    +0.000 A 
ATOM     38  C   UNL     1       6.416   4.743  14.437  0.00  0.00    +0.000 A 
ATOM     39  C   UNL     1       7.379   4.714  15.447  0.00  0.00    +0.000 A 
ATOM     40  C   UNL     1       7.005   4.561  16.792  0.00  0.00    +0.000 A 
ATOM     41 CL   UNL     1       8.297   4.465  17.934  0.00  0.00    +0.000 Cl
ENDBRANCH  32  35
ENDBRANCH  29  31
ENDBRANCH   2  25
TORSDOF 8
ENDMDL
MODEL 5
REMARK VINA RESULT:      -8.9      1.319      1.935
REMARK  Name = 
REMARK  8 active torsions:
REMARK  status: ('A' for Active; 'I' for Inactive)
REMARK    1  A    between atoms: N_1  and  C_2
REMARK    2  A    between atoms: C_7  and  N_8
REMARK    3  A    between atoms: C_9  and  C_11
REMARK    4  A    between atoms: C_11  and  C_12
REMARK    5  A    between atoms: C_15  and  N_16
REMARK    6  A    between atoms: C_17  and  C_19
REMARK    7  A    between atoms: C_23  and  N_24
REMARK    8  A    between atoms: C_25  and  C_27
REMARK                            x       y       z     vdW  Elec       q    Type
REMARK                         _______ _______ _______ _____ _____    ______ ____
ROOT
ATOM      1  N   UNL     1       1.593   6.908  20.929  0.00  0.00    +0.000 N 
ATOM      2  C   UNL     1       2.292   6.238  19.937  0.00  0.00    +0.000 C 
ATOM      3  O   UNL     1       2.640   6.691  18.851  0.00  0.00    +0.000 OA
ATOM      4  H   UNL     1       1.384   6.329  21.740  0.00  0.00    +0.000 HD
ENDROOT
BRANCH   1   8
ATOM      5  C   UNL     1       0.363  10.952  20.822  0.00  0.00    +0.000 A 
ATOM      6  C   UNL     1       0.192  10.204  21.990  0.00  0.00    +0.000 A 
ATOM      7  C   UNL     1       0.589   8.866  22.042  0.00  0.00    +0.000 A 
ATOM      8  C   UNL     1       1.170   8.250  20.934  0.00  0.00    +0.000 A 
ATOM      9  C   UNL     1       1.334   8.996  19.760  0.00  0.00    +0.000 A 
ATOM     10  C   UNL     1       0.934  10.337  19.703  0.00  0.00    +0.000 A 
BRANCH   5  11
ATOM     11  C   UNL     1      -0.066  12.397  20.784  0.00  0.00    +0.000 C 
BRANCH  11  13
ATOM     12  N   UNL     1      -2.083  11.704  19.516  0.00  0.00    +0.000 N 
ATOM     13  C   UNL     1      -1.422  12.724  20.174  0.00  0.00    +0.000 C 
ATOM     14  O   UNL     1      -1.854  13.869  20.322  0.00  0.00    +0.000 OA
ATOM     15  H   UNL     1      -1.754  10.762  19.664  0.00  0.00    +0.000 HD
BRANCH  12  21
ATOM     16  C   UNL     1      -3.286  11.650  17.382  0.00  0.00    +0.000 A 
ATOM     17  C   UNL     1      -4.511  11.657  16.689  0.00  0.00    +0.000 A 
ATOM     18  C   UNL     1      -5.711  11.933  17.344  0.00  0.00    +0.000 A 
ATOM     19  C   UNL     1      -5.708  12.174  18.709  0.00  0.00    +0.000 A 
ATOM     20  C   UNL     1      -4.512  12.114  19.423  0.00  0.00    +0.000 A 
ATOM     21  C   UNL     1      -3.299  11.819  18.788  0.00  0.00    +0.000 A 
BRANCH  16  22
ATOM     22  N   UNL     1      -2.129  11.252  16.676  0.00  0.00    +0.000 N 
ATOM     23  H   UNL     1      -2.295  10.441  16.084  0.00  0.00    +0.000 HD
ATOM     24  H   UNL     1      -1.687  11.993  16.148  0.00  0.00    +0.000 HD
ENDBRANCH  16  22
ENDBRANCH  12  21
ENDBRANCH  11  13
ENDBRANCH   5  11
ENDBRANCH   1   8
BRANCH   2  25
ATOM     25  C   UNL     1       2.603   4.849  20.308  0.00  0.00    +0.000 A 
ATOM     26  N   UNL     1       2.133   4.302  21.453  0.00  0.00    +0.000 NA
ATOM     27  N   UNL     1       2.633   3.051  21.434  0.00  0.00    +0.000 N 
ATOM     28  C   UNL     1       3.395   2.780  20.341  0.00  0.00    +0.000 A 
ATOM     29  C   UNL     1       3.409   3.918  19.574  0.00  0.00    +0.000 A 
ATOM     30  H   UNL     1       2.416   2.431  22.207  0.00  0.00    +0.000 HD
BRANCH  29  31
ATOM     31  N   UNL     1       4.061   4.132  18.364  0.00  0.00    +0.000 N 
ATOM     32  C   UNL     1       5.410   4.405  18.230  0.00  0.00    +0.000 C 
ATOM     33  O   UNL     1       6.212   4.464  19.162  0.00  0.00    +0.000 OA
ATOM     34  H   UNL     1       3.466   4.118  17.537  0.00  0.00    +0.000 HD
BRANCH  32  35
ATOM     35  C   UNL     1       5.947   4.598  16.847  0.00  0.00    +0.000 A 
ATOM     36  C   UNL     1       5.559   3.630  15.897  0.00  0.00    +0.000 A 
ATOM     37  C   UNL     1       6.012   3.684  14.577  0.00  0.00    +0.000 A 
ATOM     38  C   UNL     1       6.864   4.708  14.182  0.00  0.00    +0.000 A 
ATOM     39  C   UNL     1       7.267   5.669  15.110  0.00  0.00    +0.000 A 
ATOM     40  C   UNL     1       6.819   5.617  16.440  0.00  0.00    +0.000 A 
ATOM     41 CL   UNL     1       7.453   6.821  17.503  0.00  0.00    +0.000 Cl
ENDBRANCH  32  35
ENDBRANCH  29  31
ENDBRANCH   2  25
TORSDOF 8
ENDMDL
MODEL 6
REMARK VINA RESULT:      -8.8      2.834      3.728
REMARK  Name = 
REMARK  8 active torsions:
REMARK  status: ('A' for Active; 'I' for Inactive)
REMARK    1  A    between atoms: N_1  and  C_2
REMARK    2  A    between atoms: C_7  and  N_8
REMARK    3  A    between atoms: C_9  and  C_11
REMARK    4  A    between atoms: C_11  and  C_12
REMARK    5  A    between atoms: C_15  and  N_16
REMARK    6  A    between atoms: C_17  and  C_19
REMARK    7  A    between atoms: C_23  and  N_24
REMARK    8  A    between atoms: C_25  and  C_27
REMARK                            x       y       z     vdW  Elec       q    Type
REMARK                         _______ _______ _______ _____ _____    ______ ____
ROOT
ATOM      1  N   UNL     1       1.557   6.875  20.930  0.00  0.00    +0.000 N 
ATOM      2  C   UNL     1       2.464   6.280  20.066  0.00  0.00    +0.000 C 
ATOM      3  O   UNL     1       3.069   6.826  19.149  0.00  0.00    +0.000 OA
ATOM      4  H   UNL     1       1.151   6.226  21.601  0.00  0.00    +0.000 HD
ENDROOT
BRANCH   1   8
ATOM      5  C   UNL     1       0.366  10.923  21.203  0.00  0.00    +0.000 A 
ATOM      6  C   UNL     1       0.652  10.365  19.954  0.00  0.00    +0.000 A 
ATOM      7  C   UNL     1       1.051   9.030  19.846  0.00  0.00    +0.000 A 
ATOM      8  C   UNL     1       1.166   8.225  20.978  0.00  0.00    +0.000 A 
ATOM      9  C   UNL     1       0.888   8.786  22.232  0.00  0.00    +0.000 A 
ATOM     10  C   UNL     1       0.491  10.124  22.345  0.00  0.00    +0.000 A 
BRANCH   5  11
ATOM     11  C   UNL     1      -0.068  12.363  21.302  0.00  0.00    +0.000 C 
BRANCH  11  13
ATOM     12  N   UNL     1       0.646  13.932  19.516  0.00  0.00    +0.000 N 
ATOM     13  C   UNL     1       0.883  13.433  20.783  0.00  0.00    +0.000 C 
ATOM     14  O   UNL     1       1.791  13.801  21.532  0.00  0.00    +0.000 OA
ATOM     15  H   UNL     1      -0.251  13.738  19.098  0.00  0.00    +0.000 HD
BRANCH  12  21
ATOM     16  C   UNL     1       1.064  16.200  18.691  0.00  0.00    +0.000 A 
ATOM     17  C   UNL     1       1.939  17.117  18.078  0.00  0.00    +0.000 A 
ATOM     18  C   UNL     1       3.132  16.697  17.489  0.00  0.00    +0.000 A 
ATOM     19  C   UNL     1       3.484  15.357  17.535  0.00  0.00    +0.000 A 
ATOM     20  C   UNL     1       2.659  14.442  18.189  0.00  0.00    +0.000 A 
ATOM     21  C   UNL     1       1.466  14.848  18.803  0.00  0.00    +0.000 A 
BRANCH  16  22
ATOM     22  N   UNL     1      -0.067  16.714  19.363  0.00  0.00    +0.000 N 
ATOM     23  H   UNL     1       0.057  16.736  20.372  0.00  0.00    +0.000 HD
ATOM     24  H   UNL     1      -0.380  17.614  19.023  0.00  0.00    +0.000 HD
ENDBRANCH  16  22
ENDBRANCH  12  21
ENDBRANCH  11  13
ENDBRANCH   5  11
ENDBRANCH   1   8
BRANCH   2  25
ATOM     25  C   UNL     1       2.655   4.849  20.349  0.00  0.00    +0.000 A 
ATOM     26  N   UNL     1       2.158   4.279  21.470  0.00  0.00    +0.000 NA
ATOM     27  N   UNL     1       2.545   2.992  21.367  0.00  0.00    +0.000 N 
ATOM     28  C   UNL     1       3.261   2.721  20.244  0.00  0.00    +0.000 A 
ATOM     29  C   UNL     1       3.363   3.897  19.545  0.00  0.00    +0.000 A 
ATOM     30  H   UNL     1       2.286   2.348  22.107  0.00  0.00    +0.000 HD
BRANCH  29  31
ATOM     31  N   UNL     1       4.010   4.125  18.335  0.00  0.00    +0.000 N 
ATOM     32  C   UNL     1       5.366   4.363  18.196  0.00  0.00    +0.000 C 
ATOM     33  O   UNL     1       6.177   4.375  19.122  0.00  0.00    +0.000 OA
ATOM     34  H   UNL     1       3.409   4.149  17.513  0.00  0.00    +0.000 HD
BRANCH  32  35
ATOM     35  C   UNL     1       5.897   4.577  16.814  0.00  0.00    +0.000 A 
ATOM     36  C   UNL     1       5.479   3.642  15.844  0.00  0.00    +0.000 A 
ATOM     37  C   UNL     1       5.923   3.718  14.521  0.00  0.00    +0.000 A 
ATOM     38  C   UNL     1       6.796   4.732  14.145  0.00  0.00    +0.000 A 
ATOM     39  C   UNL     1       7.228   5.661  15.093  0.00  0.00    +0.000 A 
ATOM     40  C   UNL     1       6.790   5.586  16.424  0.00  0.00    +0.000 A 
ATOM     41 CL   UNL     1       7.459   6.748  17.512  0.00  0.00    +0.000 Cl
ENDBRANCH  32  35
ENDBRANCH  29  31
ENDBRANCH   2  25
TORSDOF 8
ENDMDL
MODEL 7
REMARK VINA RESULT:      -8.8      2.586      3.300
REMARK  Name = 
REMARK  8 active torsions:
REMARK  status: ('A' for Active; 'I' for Inactive)
REMARK    1  A    between atoms: N_1  and  C_2
REMARK    2  A    between atoms: C_7  and  N_8
REMARK    3  A    between atoms: C_9  and  C_11
REMARK    4  A    between atoms: C_11  and  C_12
REMARK    5  A    between atoms: C_15  and  N_16
REMARK    6  A    between atoms: C_17  and  C_19
REMARK    7  A    between atoms: C_23  and  N_24
REMARK    8  A    between atoms: C_25  and  C_27
REMARK                            x       y       z     vdW  Elec       q    Type
REMARK                         _______ _______ _______ _____ _____    ______ ____
ROOT
ATOM      1  N   UNL     1       2.215   6.098  20.673  0.00  0.00    +0.000 N 
ATOM      2  C   UNL     1       1.516   4.908  20.546  0.00  0.00    +0.000 C 
ATOM      3  O   UNL     1       0.337   4.779  20.234  0.00  0.00    +0.000 OA
ATOM      4  H   UNL     1       3.181   5.972  20.971  0.00  0.00    +0.000 HD
ENDROOT
BRANCH   1   8
ATOM      5  C   UNL     1       0.772  10.026  20.071  0.00  0.00    +0.000 A 
ATOM      6  C   UNL     1       1.413   9.354  19.027  0.00  0.00    +0.000 A 
ATOM      7  C   UNL     1       1.899   8.057  19.210  0.00  0.00    +0.000 A 
ATOM      8  C   UNL     1       1.750   7.404  20.433  0.00  0.00    +0.000 A 
ATOM      9  C   UNL     1       1.116   8.080  21.483  0.00  0.00    +0.000 A 
ATOM     10  C   UNL     1       0.630   9.382  21.305  0.00  0.00    +0.000 A 
BRANCH   5  11
ATOM     11  C   UNL     1       0.248  11.424  19.857  0.00  0.00    +0.000 C 
BRANCH  11  13
ATOM     12  N   UNL     1      -1.811  12.014  21.110  0.00  0.00    +0.000 N 
ATOM     13  C   UNL     1      -0.435  12.118  21.027  0.00  0.00    +0.000 C 
ATOM     14  O   UNL     1       0.281  12.712  21.836  0.00  0.00    +0.000 OA
ATOM     15  H   UNL     1      -2.262  11.313  20.541  0.00  0.00    +0.000 HD
BRANCH  12  21
ATOM     16  C   UNL     1      -3.233  13.915  21.715  0.00  0.00    +0.000 A 
ATOM     17  C   UNL     1      -4.149  14.497  22.611  0.00  0.00    +0.000 A 
ATOM     18  C   UNL     1      -4.405  13.926  23.858  0.00  0.00    +0.000 A 
ATOM     19  C   UNL     1      -3.773  12.744  24.213  0.00  0.00    +0.000 A 
ATOM     20  C   UNL     1      -2.907  12.121  23.315  0.00  0.00    +0.000 A 
ATOM     21  C   UNL     1      -2.652  12.669  22.051  0.00  0.00    +0.000 A 
BRANCH  16  22
ATOM     22  N   UNL     1      -3.110  14.487  20.429  0.00  0.00    +0.000 N 
ATOM     23  H   UNL     1      -3.824  15.189  20.247  0.00  0.00    +0.000 HD
ATOM     24  H   UNL     1      -2.190  14.853  20.222  0.00  0.00    +0.000 HD
ENDBRANCH  16  22
ENDBRANCH  12  21
ENDBRANCH  11  13
ENDBRANCH   5  11
ENDBRANCH   1   8
BRANCH   2  25
ATOM     25  C   UNL     1       2.350   3.731  20.839  0.00  0.00    +0.000 A 
ATOM     26  N   UNL     1       2.232   3.055  22.004  0.00  0.00    +0.000 NA
ATOM     27  N   UNL     1       3.152   2.076  21.895  0.00  0.00    +0.000 N 
ATOM     28  C   UNL     1       3.845   2.100  20.726  0.00  0.00    +0.000 A 
ATOM     29  C   UNL     1       3.363   3.160  20.001  0.00  0.00    +0.000 A 
ATOM     30  H   UNL     1       3.256   1.422  22.664  0.00  0.00    +0.000 HD
BRANCH  29  31
ATOM     31  N   UNL     1       3.765   3.595  18.742  0.00  0.00    +0.000 N 
ATOM     32  C   UNL     1       4.993   4.164  18.456  0.00  0.00    +0.000 C 
ATOM     33  O   UNL     1       5.898   4.332  19.273  0.00  0.00    +0.000 OA
ATOM     34  H   UNL     1       3.067   3.508  18.005  0.00  0.00    +0.000 HD
BRANCH  32  35
ATOM     35  C   UNL     1       5.262   4.564  17.040  0.00  0.00    +0.000 A 
ATOM     36  C   UNL     1       5.812   3.563  16.213  0.00  0.00    +0.000 A 
ATOM     37  C   UNL     1       6.131   3.817  14.876  0.00  0.00    +0.000 A 
ATOM     38  C   UNL     1       5.906   5.081  14.343  0.00  0.00    +0.000 A 
ATOM     39  C   UNL     1       5.372   6.087  15.149  0.00  0.00    +0.000 A 
ATOM     40  C   UNL     1       5.055   5.839  16.494  0.00  0.00    +0.000 A 
ATOM     41 CL   UNL     1       4.473   7.189  17.400  0.00  0.00    +0.000 Cl
ENDBRANCH  32  35
ENDBRANCH  29  31
ENDBRANCH   2  25
TORSDOF 8
ENDMDL
MODEL 8
REMARK VINA RESULT:      -8.8      1.698      2.277
REMARK  Name = 
REMARK  8 active torsions:
REMARK  status: ('A' for Active; 'I' for Inactive)
REMARK    1  A    between atoms: N_1  and  C_2
REMARK    2  A    between atoms: C_7  and  N_8
REMARK    3  A    between atoms: C_9  and  C_11
REMARK    4  A    between atoms: C_11  and  C_12
REMARK    5  A    between atoms: C_15  and  N_16
REMARK    6  A    between atoms: C_17  and  C_19
REMARK    7  A    between atoms: C_23  and  N_24
REMARK    8  A    between atoms: C_25  and  C_27
REMARK                            x       y       z     vdW  Elec       q    Type
REMARK                         _______ _______ _______ _____ _____    ______ ____
ROOT
ATOM      1  N   UNL     1       2.427   5.341  19.461  0.00  0.00    +0.000 N 
ATOM      2  C   UNL     1       1.689   4.192  19.697  0.00  0.00    +0.000 C 
ATOM      3  O   UNL     1       0.539   4.133  20.123  0.00  0.00    +0.000 OA
ATOM      4  H   UNL     1       3.374   5.155  19.135  0.00  0.00    +0.000 HD
ENDROOT
BRANCH   1   8
ATOM      5  C   UNL     1       1.233   9.383  19.791  0.00  0.00    +0.000 A 
ATOM      6  C   UNL     1       1.120   8.533  20.894  0.00  0.00    +0.000 A 
ATOM      7  C   UNL     1       1.506   7.194  20.802  0.00  0.00    +0.000 A 
ATOM      8  C   UNL     1       2.018   6.678  19.612  0.00  0.00    +0.000 A 
ATOM      9  C   UNL     1       2.124   7.528  18.502  0.00  0.00    +0.000 A 
ATOM     10  C   UNL     1       1.734   8.870  18.590  0.00  0.00    +0.000 A 
BRANCH   5  11
ATOM     11  C   UNL     1       0.816  10.828  19.908  0.00  0.00    +0.000 C 
BRANCH  11  13
ATOM     12  N   UNL     1      -1.392  10.541  18.813  0.00  0.00    +0.000 N 
ATOM     13  C   UNL     1      -0.273  11.336  18.973  0.00  0.00    +0.000 C 
ATOM     14  O   UNL     1      -0.097  12.431  18.434  0.00  0.00    +0.000 OA
ATOM     15  H   UNL     1      -1.535   9.796  19.478  0.00  0.00    +0.000 HD
BRANCH  12  21
ATOM     16  C   UNL     1      -3.547  11.594  18.314  0.00  0.00    +0.000 A 
ATOM     17  C   UNL     1      -4.549  11.901  17.375  0.00  0.00    +0.000 A 
ATOM     18  C   UNL     1      -4.552  11.324  16.104  0.00  0.00    +0.000 A 
ATOM     19  C   UNL     1      -3.532  10.456  15.744  0.00  0.00    +0.000 A 
ATOM     20  C   UNL     1      -2.499  10.185  16.640  0.00  0.00    +0.000 A 
ATOM     21  C   UNL     1      -2.468  10.770  17.913  0.00  0.00    +0.000 A 
BRANCH  16  22
ATOM     22  N   UNL     1      -3.547  12.302  19.537  0.00  0.00    +0.000 N 
ATOM     23  H   UNL     1      -4.484  12.423  19.915  0.00  0.00    +0.000 HD
ATOM     24  H   UNL     1      -2.927  11.921  20.239  0.00  0.00    +0.000 HD
ENDBRANCH  16  22
ENDBRANCH  12  21
ENDBRANCH  11  13
ENDBRANCH   5  11
ENDBRANCH   1   8
BRANCH   2  25
ATOM     25  C   UNL     1       2.439   2.966  19.382  0.00  0.00    +0.000 A 
ATOM     26  N   UNL     1       1.843   1.752  19.392  0.00  0.00    +0.000 NA
ATOM     27  N   UNL     1       2.842   0.907  19.069  0.00  0.00    +0.000 N 
ATOM     28  C   UNL     1       4.036   1.522  18.859  0.00  0.00    +0.000 A 
ATOM     29  C   UNL     1       3.830   2.865  19.051  0.00  0.00    +0.000 A 
ATOM     30  H   UNL     1       2.638  -0.085  19.012  0.00  0.00    +0.000 HD
BRANCH  29  31
ATOM     31  N   UNL     1       4.755   3.900  18.955  0.00  0.00    +0.000 N 
ATOM     32  C   UNL     1       5.280   4.384  17.770  0.00  0.00    +0.000 C 
ATOM     33  O   UNL     1       4.974   3.980  16.648  0.00  0.00    +0.000 OA
ATOM     34  H   UNL     1       5.078   4.283  19.842  0.00  0.00    +0.000 HD
BRANCH  32  35
ATOM     35  C   UNL     1       6.259   5.512  17.852  0.00  0.00    +0.000 A 
ATOM     36  C   UNL     1       7.234   5.406  18.866  0.00  0.00    +0.000 A 
ATOM     37  C   UNL     1       8.191   6.405  19.063  0.00  0.00    +0.000 A 
ATOM     38  C   UNL     1       8.188   7.531  18.248  0.00  0.00    +0.000 A 
ATOM     39  C   UNL     1       7.226   7.658  17.246  0.00  0.00    +0.000 A 
ATOM     40  C   UNL     1       6.259   6.660  17.047  0.00  0.00    +0.000 A 
ATOM     41 CL   UNL     1       5.080   6.975  15.826  0.00  0.00    +0.000 Cl
ENDBRANCH  32  35
ENDBRANCH  29  31
ENDBRANCH   2  25
TORSDOF 8
ENDMDL
MODEL 9
REMARK VINA RESULT:      -8.8      1.307      1.885
REMARK  Name = 
REMARK  8 active torsions:
REMARK  status: ('A' for Active; 'I' for Inactive)
REMARK    1  A    between atoms: N_1  and  C_2
REMARK    2  A    between atoms: C_7  and  N_8
REMARK    3  A    between atoms: C_9  and  C_11
REMARK    4  A    between atoms: C_11  and  C_12
REMARK    5  A    between atoms: C_15  and  N_16
REMARK    6  A    between atoms: C_17  and  C_19
REMARK    7  A    between atoms: C_23  and  N_24
REMARK    8  A    between atoms: C_25  and  C_27
REMARK                            x       y       z     vdW  Elec       q    Type
REMARK                         _______ _______ _______ _____ _____    ______ ____
ROOT
ATOM      1  N   UNL     1       2.398   6.132  20.314  0.00  0.00    +0.000 N 
ATOM      2  C   UNL     1       1.613   4.999  20.460  0.00  0.00    +0.000 C 
ATOM      3  O   UNL     1       0.392   4.934  20.351  0.00  0.00    +0.000 OA
ATOM      4  H   UNL     1       3.389   5.962  20.477  0.00  0.00    +0.000 HD
ENDROOT
BRANCH   1   8
ATOM      5  C   UNL     1       1.211  10.023  19.162  0.00  0.00    +0.000 A 
ATOM      6  C   UNL     1       0.957   9.575  20.461  0.00  0.00    +0.000 A 
ATOM      7  C   UNL     1       1.339   8.291  20.857  0.00  0.00    +0.000 A 
ATOM      8  C   UNL     1       1.987   7.432  19.970  0.00  0.00    +0.000 A 
ATOM      9  C   UNL     1       2.234   7.877  18.665  0.00  0.00    +0.000 A 
ATOM     10  C   UNL     1       1.849   9.162  18.262  0.00  0.00    +0.000 A 
BRANCH   5  11
ATOM     11  C   UNL     1       0.797  11.413  18.751  0.00  0.00    +0.000 C 
BRANCH  11  13
ATOM     12  N   UNL     1      -1.596  11.222  18.122  0.00  0.00    +0.000 N 
ATOM     13  C   UNL     1      -0.659  11.813  18.949  0.00  0.00    +0.000 C 
ATOM     14  O   UNL     1      -0.912  12.622  19.844  0.00  0.00    +0.000 OA
ATOM     15  H   UNL     1      -1.310  10.408  17.599  0.00  0.00    +0.000 HD
BRANCH  12  21
ATOM     16  C   UNL     1      -3.644  11.527  16.812  0.00  0.00    +0.000 A 
ATOM     17  C   UNL     1      -5.037  11.724  16.783  0.00  0.00    +0.000 A 
ATOM     18  C   UNL     1      -5.750  12.027  17.943  0.00  0.00    +0.000 A 
ATOM     19  C   UNL     1      -5.083  12.105  19.156  0.00  0.00    +0.000 A 
ATOM     20  C   UNL     1      -3.713  11.855  19.215  0.00  0.00    +0.000 A 
ATOM     21  C   UNL     1      -2.983  11.529  18.064  0.00  0.00    +0.000 A 
BRANCH  16  22
ATOM     22  N   UNL     1      -3.009  11.113  15.620  0.00  0.00    +0.000 N 
ATOM     23  H   UNL     1      -2.921  11.868  14.945  0.00  0.00    +0.000 HD
ATOM     24  H   UNL     1      -2.118  10.654  15.760  0.00  0.00    +0.000 HD
ENDBRANCH  16  22
ENDBRANCH  12  21
ENDBRANCH  11  13
ENDBRANCH   5  11
ENDBRANCH   1   8
BRANCH   2  25
ATOM     25  C   UNL     1       2.405   3.802  20.782  0.00  0.00    +0.000 A 
ATOM     26  N   UNL     1       2.250   3.148  21.956  0.00  0.00    +0.000 NA
ATOM     27  N   UNL     1       3.140   2.138  21.874  0.00  0.00    +0.000 N 
ATOM     28  C   UNL     1       3.849   2.123  20.714  0.00  0.00    +0.000 A 
ATOM     29  C   UNL     1       3.411   3.186  19.966  0.00  0.00    +0.000 A 
ATOM     30  H   UNL     1       3.213   1.494  22.654  0.00  0.00    +0.000 HD
BRANCH  29  31
ATOM     31  N   UNL     1       3.842   3.588  18.706  0.00  0.00    +0.000 N 
ATOM     32  C   UNL     1       5.066   4.177  18.440  0.00  0.00    +0.000 C 
ATOM     33  O   UNL     1       5.940   4.393  19.279  0.00  0.00    +0.000 OA
ATOM     34  H   UNL     1       3.170   3.460  17.951  0.00  0.00    +0.000 HD
BRANCH  32  35
ATOM     35  C   UNL     1       5.371   4.537  17.020  0.00  0.00    +0.000 A 
ATOM     36  C   UNL     1       5.659   3.455  16.162  0.00  0.00    +0.000 A 
ATOM     37  C   UNL     1       5.983   3.660  14.818  0.00  0.00    +0.000 A 
ATOM     38  C   UNL     1       6.026   4.952  14.309  0.00  0.00    +0.000 A 
ATOM     39  C   UNL     1       5.753   6.035  15.146  0.00  0.00    +0.000 A 
ATOM     40  C   UNL     1       5.432   5.836  16.498  0.00  0.00    +0.000 A 
ATOM     41 CL   UNL     1       5.192   7.262  17.441  0.00  0.00    +0.000 Cl
ENDBRANCH  32  35
ENDBRANCH  29  31
ENDBRANCH   2  25
TORSDOF 8
ENDMDL
