MODEL 1
REMARK VINA RESULT:      -7.6      0.000      0.000
REMARK  Name = 
REMARK  5 active torsions:
REMARK  status: ('A' for Active; 'I' for Inactive)
REMARK    1  A    between atoms: C_5  and  C_6
REMARK    2  A    between atoms: C_10  and  C_11
REMARK    3  A    between atoms: N_13  and  C_14
REMARK    4  A    between atoms: C_14  and  C_15
REMARK    5  A    between atoms: C_15  and  N_16
REMARK                            x       y       z     vdW  Elec       q    Type
REMARK                         _______ _______ _______ _____ _____    ______ ____
ROOT
ATOM      1  C   UNL     1      -0.722  12.182  22.065  0.00  0.00    +0.000 A 
ATOM      2  C   UNL     1      -0.579  10.856  22.260  0.00  0.00    +0.000 A 
ATOM      3  N   UNL     1       0.182  10.141  21.366  0.00  0.00    +0.000 N 
ATOM      4  C   UNL     1       0.504   8.821  21.316  0.00  0.00    +0.000 A 
ATOM      5  C   UNL     1       1.316   8.680  20.204  0.00  0.00    +0.000 A 
ATOM      6  N   UNL     1       1.466   9.897  19.557  0.00  0.00    +0.000 NA
ATOM      7  C   UNL     1       0.789  10.752  20.304  0.00  0.00    +0.000 A 
ATOM      8  C   UNL     1       0.613  12.191  20.122  0.00  0.00    +0.000 A 
ATOM      9  N   UNL     1       1.220  12.898  19.095  0.00  0.00    +0.000 N 
ATOM     10  C   UNL     1       2.457  12.464  18.437  0.00  0.00    +0.000 C 
ATOM     11  C   UNL     1       3.446  13.637  18.389  0.00  0.00    +0.000 C 
ATOM     12  O   UNL     1       2.871  14.785  17.748  0.00  0.00    +0.000 OA
ATOM     13  C   UNL     1       1.696  15.216  18.456  0.00  0.00    +0.000 C 
ATOM     14  C   UNL     1       0.638  14.108  18.511  0.00  0.00    +0.000 C 
ATOM     15  N   UNL     1      -0.148  12.845  20.983  0.00  0.00    +0.000 NA
ENDROOT
BRANCH   1  20
ATOM     16  N   UNL     1      -3.865  15.299  25.471  0.00  0.00    +0.000 N 
ATOM     17  C   UNL     1      -3.074  14.507  24.669  0.00  0.00    +0.000 A 
ATOM     18  N   UNL     1      -3.590  13.351  24.250  0.00  0.00    +0.000 NA
ATOM     19  C   UNL     1      -2.808  12.608  23.435  0.00  0.00    +0.000 A 
ATOM     20  C   UNL     1      -1.540  12.965  23.013  0.00  0.00    +0.000 A 
ATOM     21  C   UNL     1      -1.099  14.148  23.571  0.00  0.00    +0.000 A 
ATOM     22  N   UNL     1      -1.837  14.931  24.394  0.00  0.00    +0.000 NA
ATOM     23  H   UNL     1      -4.567  14.732  25.924  0.00  0.00    +0.000 HD
ATOM     24  H   UNL     1      -3.285  15.883  26.056  0.00  0.00    +0.000 HD
ENDBRANCH   1  20
BRANCH   5  25
ATOM     25  C   UNL     1       1.947   7.433  19.789  0.00  0.00    +0.000 C 
ATOM     26  O   UNL     1       1.899   6.420  20.487  0.00  0.00    +0.000 OA
ATOM     27  N   UNL     1       2.600   7.489  18.571  0.00  0.00    +0.000 N 
ATOM     28  H   UNL     1       2.407   8.303  17.992  0.00  0.00    +0.000 HD
BRANCH  27  29
ATOM     29  C   UNL     1       3.115   6.262  18.002  0.00  0.00    +0.000 C 
BRANCH  29  30
ATOM     30  C   UNL     1       4.583   5.953  18.351  0.00  0.00    +0.000 C 
BRANCH  30  31
ATOM     31  N   UNL     1       5.519   6.427  17.312  0.00  0.00    +0.000 NA
ATOM     32  C   UNL     1       5.524   5.611  16.074  0.00  0.00    +0.000 C 
ATOM     33  C   UNL     1       6.262   4.266  16.190  0.00  0.00    +0.000 C 
ATOM     34  O   UNL     1       7.602   4.442  16.665  0.00  0.00    +0.000 OA
ATOM     35  C   UNL     1       7.611   5.133  17.918  0.00  0.00    +0.000 C 
ATOM     36  C   UNL     1       6.911   6.500  17.808  0.00  0.00    +0.000 C 
ENDBRANCH  30  31
ENDBRANCH  29  30
ENDBRANCH  27  29
ENDBRANCH   5  25
TORSDOF 5
ENDMDL
MODEL 2
REMARK VINA RESULT:      -7.4      3.377      4.120
REMARK  Name = 
REMARK  5 active torsions:
REMARK  status: ('A' for Active; 'I' for Inactive)
REMARK    1  A    between atoms: C_5  and  C_6
REMARK    2  A    between atoms: C_10  and  C_11
REMARK    3  A    between atoms: N_13  and  C_14
REMARK    4  A    between atoms: C_14  and  C_15
REMARK    5  A    between atoms: C_15  and  N_16
REMARK                            x       y       z     vdW  Elec       q    Type
REMARK                         _______ _______ _______ _____ _____    ______ ____
ROOT
ATOM      1  C   UNL     1      -1.218  12.454  20.766  0.00  0.00    +0.000 A 
ATOM      2  C   UNL     1      -0.011  11.864  20.878  0.00  0.00    +0.000 A 
ATOM      3  N   UNL     1       0.316  10.868  19.990  0.00  0.00    +0.000 N 
ATOM      4  C   UNL     1       1.442  10.117  19.857  0.00  0.00    +0.000 A 
ATOM      5  C   UNL     1       1.209   9.289  18.773  0.00  0.00    +0.000 A 
ATOM      6  N   UNL     1      -0.061   9.506  18.263  0.00  0.00    +0.000 NA
ATOM      7  C   UNL     1      -0.553  10.481  19.008  0.00  0.00    +0.000 A 
ATOM      8  C   UNL     1      -1.853  11.140  18.915  0.00  0.00    +0.000 A 
ATOM      9  N   UNL     1      -2.781  10.836  17.930  0.00  0.00    +0.000 N 
ATOM     10  C   UNL     1      -2.418  10.272  16.625  0.00  0.00    +0.000 C 
ATOM     11  C   UNL     1      -3.099  11.084  15.514  0.00  0.00    +0.000 C 
ATOM     12  O   UNL     1      -4.521  11.140  15.698  0.00  0.00    +0.000 OA
ATOM     13  C   UNL     1      -4.837  11.754  16.960  0.00  0.00    +0.000 C 
ATOM     14  C   UNL     1      -4.225  10.973  18.129  0.00  0.00    +0.000 C 
ATOM     15  N   UNL     1      -2.148  12.075  19.802  0.00  0.00    +0.000 NA
ENDROOT
BRANCH   1  20
ATOM     16  N   UNL     1      -2.838  16.399  24.373  0.00  0.00    +0.000 N 
ATOM     17  C   UNL     1      -2.400  15.452  23.474  0.00  0.00    +0.000 A 
ATOM     18  N   UNL     1      -1.580  14.505  23.932  0.00  0.00    +0.000 NA
ATOM     19  C   UNL     1      -1.191  13.567  23.040  0.00  0.00    +0.000 A 
ATOM     20  C   UNL     1      -1.588  13.523  21.715  0.00  0.00    +0.000 A 
ATOM     21  C   UNL     1      -2.379  14.595  21.353  0.00  0.00    +0.000 A 
ATOM     22  N   UNL     1      -2.796  15.563  22.204  0.00  0.00    +0.000 NA
ATOM     23  H   UNL     1      -2.192  16.458  25.148  0.00  0.00    +0.000 HD
ATOM     24  H   UNL     1      -3.066  17.254  23.887  0.00  0.00    +0.000 HD
ENDBRANCH   1  20
BRANCH   5  25
ATOM     25  C   UNL     1       2.176   8.343  18.228  0.00  0.00    +0.000 C 
ATOM     26  O   UNL     1       2.789   8.573  17.185  0.00  0.00    +0.000 OA
ATOM     27  N   UNL     1       2.334   7.184  18.966  0.00  0.00    +0.000 N 
ATOM     28  H   UNL     1       1.937   7.186  19.902  0.00  0.00    +0.000 HD
BRANCH  27  29
ATOM     29  C   UNL     1       3.385   6.262  18.593  0.00  0.00    +0.000 C 
BRANCH  29  30
ATOM     30  C   UNL     1       2.905   4.988  17.872  0.00  0.00    +0.000 C 
BRANCH  30  31
ATOM     31  N   UNL     1       3.363   3.756  18.545  0.00  0.00    +0.000 NA
ATOM     32  C   UNL     1       2.653   2.525  18.118  0.00  0.00    +0.000 C 
ATOM     33  C   UNL     1       1.234   2.367  18.692  0.00  0.00    +0.000 C 
ATOM     34  O   UNL     1       1.232   2.461  20.121  0.00  0.00    +0.000 OA
ATOM     35  C   UNL     1       1.815   3.696  20.550  0.00  0.00    +0.000 C 
ATOM     36  C   UNL     1       3.251   3.851  20.018  0.00  0.00    +0.000 C 
ENDBRANCH  30  31
ENDBRANCH  29  30
ENDBRANCH  27  29
ENDBRANCH   5  25
TORSDOF 5
ENDMDL
MODEL 3
REMARK VINA RESULT:      -7.4      2.355      2.744
REMARK  Name = 
REMARK  5 active torsions:
REMARK  status: ('A' for Active; 'I' for Inactive)
REMARK    1  A    between atoms: C_5  and  C_6
REMARK    2  A    between atoms: C_10  and  C_11
REMARK    3  A    between atoms: N_13  and  C_14
REMARK    4  A    between atoms: C_14  and  C_15
REMARK    5  A    between atoms: C_15  and  N_16
REMARK                            x       y       z     vdW  Elec       q    Type
REMARK                         _______ _______ _______ _____ _____    ______ ____
ROOT
ATOM      1  C   UNL     1      -1.269  12.853  21.158  0.00  0.00    +0.000 A 
ATOM      2  C   UNL     1      -1.170  11.520  20.984  0.00  0.00    +0.000 A 
ATOM      3  N   UNL     1      -0.186  11.040  20.154  0.00  0.00    +0.000 N 
ATOM      4  C   UNL     1       0.154   9.770  19.804  0.00  0.00    +0.000 A 
ATOM      5  C   UNL     1       1.239   9.897  18.956  0.00  0.00    +0.000 A 
ATOM      6  N   UNL     1       1.545  11.235  18.760  0.00  0.00    +0.000 NA
ATOM      7  C   UNL     1       0.680  11.885  19.519  0.00  0.00    +0.000 A 
ATOM      8  C   UNL     1       0.544  13.325  19.728  0.00  0.00    +0.000 A 
ATOM      9  N   UNL     1       1.399  14.252  19.152  0.00  0.00    +0.000 N 
ATOM     10  C   UNL     1       2.774  13.939  18.747  0.00  0.00    +0.000 C 
ATOM     11  C   UNL     1       3.725  15.006  19.309  0.00  0.00    +0.000 C 
ATOM     12  O   UNL     1       3.333  16.326  18.905  0.00  0.00    +0.000 OA
ATOM     13  C   UNL     1       2.004  16.617  19.373  0.00  0.00    +0.000 C 
ATOM     14  C   UNL     1       0.985  15.616  18.818  0.00  0.00    +0.000 C 
ATOM     15  N   UNL     1      -0.431  13.756  20.511  0.00  0.00    +0.000 NA
ENDROOT
BRANCH   1  20
ATOM     16  N   UNL     1      -5.383  14.940  24.308  0.00  0.00    +0.000 N 
ATOM     17  C   UNL     1      -4.341  14.422  23.571  0.00  0.00    +0.000 A 
ATOM     18  N   UNL     1      -4.262  13.095  23.471  0.00  0.00    +0.000 NA
ATOM     19  C   UNL     1      -3.253  12.611  22.713  0.00  0.00    +0.000 A 
ATOM     20  C   UNL     1      -2.324  13.387  22.043  0.00  0.00    +0.000 A 
ATOM     21  C   UNL     1      -2.477  14.738  22.283  0.00  0.00    +0.000 A 
ATOM     22  N   UNL     1      -3.466  15.277  23.035  0.00  0.00    +0.000 NA
ATOM     23  H   UNL     1      -5.713  14.247  24.965  0.00  0.00    +0.000 HD
ATOM     24  H   UNL     1      -5.127  15.846  24.672  0.00  0.00    +0.000 HD
ENDBRANCH   1  20
BRANCH   5  25
ATOM     25  C   UNL     1       1.974   8.780  18.374  0.00  0.00    +0.000 C 
ATOM     26  O   UNL     1       2.402   8.817  17.220  0.00  0.00    +0.000 OA
ATOM     27  N   UNL     1       2.138   7.693  19.213  0.00  0.00    +0.000 N 
ATOM     28  H   UNL     1       1.927   7.845  20.196  0.00  0.00    +0.000 HD
BRANCH  27  29
ATOM     29  C   UNL     1       2.991   6.606  18.782  0.00  0.00    +0.000 C 
BRANCH  29  30
ATOM     30  C   UNL     1       2.251   5.417  18.140  0.00  0.00    +0.000 C 
BRANCH  30  31
ATOM     31  N   UNL     1       1.910   4.370  19.124  0.00  0.00    +0.000 NA
ATOM     32  C   UNL     1       3.039   3.955  19.991  0.00  0.00    +0.000 C 
ATOM     33  C   UNL     1       4.074   3.043  19.311  0.00  0.00    +0.000 C 
ATOM     34  O   UNL     1       3.456   1.890  18.728  0.00  0.00    +0.000 OA
ATOM     35  C   UNL     1       2.434   2.274  17.801  0.00  0.00    +0.000 C 
ATOM     36  C   UNL     1       1.368   3.154  18.478  0.00  0.00    +0.000 C 
ENDBRANCH  30  31
ENDBRANCH  29  30
ENDBRANCH  27  29
ENDBRANCH   5  25
TORSDOF 5
ENDMDL
MODEL 4
REMARK VINA RESULT:      -7.4      1.220      1.542
REMARK  Name = 
REMARK  5 active torsions:
REMARK  status: ('A' for Active; 'I' for Inactive)
REMARK    1  A    between atoms: C_5  and  C_6
REMARK    2  A    between atoms: C_10  and  C_11
REMARK    3  A    between atoms: N_13  and  C_14
REMARK    4  A    between atoms: C_14  and  C_15
REMARK    5  A    between atoms: C_15  and  N_16
REMARK                            x       y       z     vdW  Elec       q    Type
REMARK                         _______ _______ _______ _____ _____    ______ ____
ROOT
ATOM      1  C   UNL     1      -0.509  12.463  21.492  0.00  0.00    +0.000 A 
ATOM      2  C   UNL     1      -0.421  11.122  21.384  0.00  0.00    +0.000 A 
ATOM      3  N   UNL     1       0.374  10.596  20.393  0.00  0.00    +0.000 N 
ATOM      4  C   UNL     1       0.657   9.309  20.058  0.00  0.00    +0.000 A 
ATOM      5  C   UNL     1       1.534   9.389  18.990  0.00  0.00    +0.000 A 
ATOM      6  N   UNL     1       1.763  10.713  18.651  0.00  0.00    +0.000 NA
ATOM      7  C   UNL     1       1.067  11.405  19.536  0.00  0.00    +0.000 A 
ATOM      8  C   UNL     1       0.947  12.854  19.680  0.00  0.00    +0.000 A 
ATOM      9  N   UNL     1       1.641  13.748  18.879  0.00  0.00    +0.000 N 
ATOM     10  C   UNL     1       2.904  13.421  18.209  0.00  0.00    +0.000 C 
ATOM     11  C   UNL     1       3.929  14.528  18.488  0.00  0.00    +0.000 C 
ATOM     12  O   UNL     1       3.433  15.817  18.097  0.00  0.00    +0.000 OA
ATOM     13  C   UNL     1       2.229  16.128  18.819  0.00  0.00    +0.000 C 
ATOM     14  C   UNL     1       1.136  15.085  18.558  0.00  0.00    +0.000 C 
ATOM     15  N   UNL     1       0.153  13.328  20.626  0.00  0.00    +0.000 NA
ENDROOT
BRANCH   1  20
ATOM     16  N   UNL     1      -3.774  14.856  25.341  0.00  0.00    +0.000 N 
ATOM     17  C   UNL     1      -2.954  14.234  24.425  0.00  0.00    +0.000 A 
ATOM     18  N   UNL     1      -3.463  13.203  23.749  0.00  0.00    +0.000 NA
ATOM     19  C   UNL     1      -2.652  12.632  22.830  0.00  0.00    +0.000 A 
ATOM     20  C   UNL     1      -1.362  13.045  22.548  0.00  0.00    +0.000 A 
ATOM     21  C   UNL     1      -0.935  14.075  23.362  0.00  0.00    +0.000 A 
ATOM     22  N   UNL     1      -1.702  14.682  24.298  0.00  0.00    +0.000 NA
ATOM     23  H   UNL     1      -4.502  14.220  25.633  0.00  0.00    +0.000 HD
ATOM     24  H   UNL     1      -3.215  15.291  26.060  0.00  0.00    +0.000 HD
ENDBRANCH   1  20
BRANCH   5  25
ATOM     25  C   UNL     1       2.152   8.242  18.335  0.00  0.00    +0.000 C 
ATOM     26  O   UNL     1       2.610   8.318  17.195  0.00  0.00    +0.000 OA
ATOM     27  N   UNL     1       2.169   7.082  19.088  0.00  0.00    +0.000 N 
ATOM     28  H   UNL     1       1.951   7.182  20.076  0.00  0.00    +0.000 HD
BRANCH  27  29
ATOM     29  C   UNL     1       2.903   5.941  18.587  0.00  0.00    +0.000 C 
BRANCH  29  30
ATOM     30  C   UNL     1       4.319   5.773  19.172  0.00  0.00    +0.000 C 
BRANCH  30  31
ATOM     31  N   UNL     1       5.182   4.930  18.322  0.00  0.00    +0.000 NA
ATOM     32  C   UNL     1       6.636   5.156  18.511  0.00  0.00    +0.000 C 
ATOM     33  C   UNL     1       7.178   6.442  17.865  0.00  0.00    +0.000 C 
ATOM     34  O   UNL     1       6.850   6.510  16.472  0.00  0.00    +0.000 OA
ATOM     35  C   UNL     1       5.436   6.404  16.277  0.00  0.00    +0.000 C 
ATOM     36  C   UNL     1       4.884   5.101  16.882  0.00  0.00    +0.000 C 
ENDBRANCH  30  31
ENDBRANCH  29  30
ENDBRANCH  27  29
ENDBRANCH   5  25
TORSDOF 5
ENDMDL
MODEL 5
REMARK VINA RESULT:      -7.4      2.433      2.977
REMARK  Name = 
REMARK  5 active torsions:
REMARK  status: ('A' for Active; 'I' for Inactive)
REMARK    1  A    between atoms: C_5  and  C_6
REMARK    2  A    between atoms: C_10  and  C_11
REMARK    3  A    between atoms: N_13  and  C_14
REMARK    4  A    between atoms: C_14  and  C_15
REMARK    5  A    between atoms: C_15  and  N_16
REMARK                            x       y       z     vdW  Elec       q    Type
REMARK                         _______ _______ _______ _____ _____    ______ ____
ROOT
ATOM      1  C   UNL     1      -1.081  12.755  21.164  0.00  0.00    +0.000 A 
ATOM      2  C   UNL     1      -0.982  11.426  20.962  0.00  0.00    +0.000 A 
ATOM      3  N   UNL     1      -0.011  10.965  20.107  0.00  0.00    +0.000 N 
ATOM      4  C   UNL     1       0.325   9.702  19.726  0.00  0.00    +0.000 A 
ATOM      5  C   UNL     1       1.397   9.849  18.863  0.00  0.00    +0.000 A 
ATOM      6  N   UNL     1       1.698  11.191  18.689  0.00  0.00    +0.000 NA
ATOM      7  C   UNL     1       0.844  11.824  19.474  0.00  0.00    +0.000 A 
ATOM      8  C   UNL     1       0.708  13.259  19.714  0.00  0.00    +0.000 A 
ATOM      9  N   UNL     1       1.552  14.199  19.143  0.00  0.00    +0.000 N 
ATOM     10  C   UNL     1       2.921  13.898  18.710  0.00  0.00    +0.000 C 
ATOM     11  C   UNL     1       3.878  14.955  19.278  0.00  0.00    +0.000 C 
ATOM     12  O   UNL     1       3.478  16.282  18.907  0.00  0.00    +0.000 OA
ATOM     13  C   UNL     1       2.157  16.561  19.402  0.00  0.00    +0.000 C 
ATOM     14  C   UNL     1       1.130  15.569  18.843  0.00  0.00    +0.000 C 
ATOM     15  N   UNL     1      -0.255  13.672  20.521  0.00  0.00    +0.000 NA
ENDROOT
BRANCH   1  20
ATOM     16  N   UNL     1      -5.124  14.809  24.425  0.00  0.00    +0.000 N 
ATOM     17  C   UNL     1      -4.103  14.290  23.660  0.00  0.00    +0.000 A 
ATOM     18  N   UNL     1      -4.162  12.992  23.359  0.00  0.00    +0.000 NA
ATOM     19  C   UNL     1      -3.168  12.514  22.578  0.00  0.00    +0.000 A 
ATOM     20  C   UNL     1      -2.123  13.269  22.076  0.00  0.00    +0.000 A 
ATOM     21  C   UNL     1      -2.142  14.577  22.516  0.00  0.00    +0.000 A 
ATOM     22  N   UNL     1      -3.111  15.109  23.300  0.00  0.00    +0.000 NA
ATOM     23  H   UNL     1      -5.565  14.069  24.952  0.00  0.00    +0.000 HD
ATOM     24  H   UNL     1      -4.794  15.615  24.936  0.00  0.00    +0.000 HD
ENDBRANCH   1  20
BRANCH   5  25
ATOM     25  C   UNL     1       2.124   8.745  18.248  0.00  0.00    +0.000 C 
ATOM     26  O   UNL     1       2.631   8.847  17.130  0.00  0.00    +0.000 OA
ATOM     27  N   UNL     1       2.187   7.593  19.011  0.00  0.00    +0.000 N 
ATOM     28  H   UNL     1       1.916   7.683  19.987  0.00  0.00    +0.000 HD
BRANCH  27  29
ATOM     29  C   UNL     1       3.023   6.504  18.555  0.00  0.00    +0.000 C 
BRANCH  29  30
ATOM     30  C   UNL     1       2.258   5.255  18.078  0.00  0.00    +0.000 C 
BRANCH  30  31
ATOM     31  N   UNL     1       2.820   4.006  18.630  0.00  0.00    +0.000 NA
ATOM     32  C   UNL     1       2.009   2.795  18.354  0.00  0.00    +0.000 C 
ATOM     33  C   UNL     1       0.741   2.659  19.215  0.00  0.00    +0.000 C 
ATOM     34  O   UNL     1       1.044   2.736  20.612  0.00  0.00    +0.000 OA
ATOM     35  C   UNL     1       1.732   3.954  20.917  0.00  0.00    +0.000 C 
ATOM     36  C   UNL     1       3.025   4.086  20.093  0.00  0.00    +0.000 C 
ENDBRANCH  30  31
ENDBRANCH  29  30
ENDBRANCH  27  29
ENDBRANCH   5  25
TORSDOF 5
ENDMDL
MODEL 6
REMARK VINA RESULT:      -7.4      2.598      3.161
REMARK  Name = 
REMARK  5 active torsions:
REMARK  status: ('A' for Active; 'I' for Inactive)
REMARK    1  A    between atoms: C_5  and  C_6
REMARK    2  A    between atoms: C_10  and  C_11
REMARK    3  A    between atoms: N_13  and  C_14
REMARK    4  A    between atoms: C_14  and  C_15
REMARK    5  A    between atoms: C_15  and  N_16
REMARK                            x       y       z     vdW  Elec       q    Type
REMARK                         _______ _______ _______ _____ _____    ______ ____
ROOT
ATOM      1  C   UNL     1      -1.320  13.107  21.035  0.00  0.00    +0.000 A 
ATOM      2  C   UNL     1      -1.272  11.771  20.859  0.00  0.00    +0.000 A 
ATOM      3  N   UNL     1      -0.268  11.249  20.079  0.00  0.00    +0.000 N 
ATOM      4  C   UNL     1       0.030   9.966  19.739  0.00  0.00    +0.000 A 
ATOM      5  C   UNL     1       1.165  10.046  18.951  0.00  0.00    +0.000 A 
ATOM      6  N   UNL     1       1.542  11.369  18.780  0.00  0.00    +0.000 NA
ATOM      7  C   UNL     1       0.669  12.056  19.496  0.00  0.00    +0.000 A 
ATOM      8  C   UNL     1       0.587  13.499  19.707  0.00  0.00    +0.000 A 
ATOM      9  N   UNL     1       1.515  14.388  19.184  0.00  0.00    +0.000 N 
ATOM     10  C   UNL     1       2.893  14.014  18.851  0.00  0.00    +0.000 C 
ATOM     11  C   UNL     1       3.860  15.033  19.470  0.00  0.00    +0.000 C 
ATOM     12  O   UNL     1       3.552  16.372  19.055  0.00  0.00    +0.000 OA
ATOM     13  C   UNL     1       2.215  16.722  19.453  0.00  0.00    +0.000 C 
ATOM     14  C   UNL     1       1.182  15.771  18.838  0.00  0.00    +0.000 C 
ATOM     15  N   UNL     1      -0.407  13.972  20.440  0.00  0.00    +0.000 NA
ENDROOT
BRANCH   1  20
ATOM     16  N   UNL     1      -5.288  15.185  24.372  0.00  0.00    +0.000 N 
ATOM     17  C   UNL     1      -4.335  14.686  23.511  0.00  0.00    +0.000 A 
ATOM     18  N   UNL     1      -3.389  15.527  23.091  0.00  0.00    +0.000 NA
ATOM     19  C   UNL     1      -2.445  15.006  22.276  0.00  0.00    +0.000 A 
ATOM     20  C   UNL     1      -2.395  13.685  21.867  0.00  0.00    +0.000 A 
ATOM     21  C   UNL     1      -3.466  12.940  22.316  0.00  0.00    +0.000 A 
ATOM     22  N   UNL     1      -4.440  13.410  23.131  0.00  0.00    +0.000 NA
ATOM     23  H   UNL     1      -5.349  16.188  24.267  0.00  0.00    +0.000 HD
ATOM     24  H   UNL     1      -6.140  14.652  24.286  0.00  0.00    +0.000 HD
ENDBRANCH   1  20
BRANCH   5  25
ATOM     25  C   UNL     1       1.877   8.899  18.402  0.00  0.00    +0.000 C 
ATOM     26  O   UNL     1       2.280   8.883  17.238  0.00  0.00    +0.000 OA
ATOM     27  N   UNL     1       2.050   7.847  19.283  0.00  0.00    +0.000 N 
ATOM     28  H   UNL     1       1.862   8.042  20.263  0.00  0.00    +0.000 HD
BRANCH  27  29
ATOM     29  C   UNL     1       2.885   6.735  18.880  0.00  0.00    +0.000 C 
BRANCH  29  30
ATOM     30  C   UNL     1       2.668   5.438  19.683  0.00  0.00    +0.000 C 
BRANCH  30  31
ATOM     31  N   UNL     1       1.446   4.720  19.270  0.00  0.00    +0.000 NA
ATOM     32  C   UNL     1       0.991   3.685  20.231  0.00  0.00    +0.000 C 
ATOM     33  C   UNL     1       1.814   2.386  20.218  0.00  0.00    +0.000 C 
ATOM     34  O   UNL     1       1.896   1.828  18.902  0.00  0.00    +0.000 OA
ATOM     35  C   UNL     1       2.439   2.779  17.979  0.00  0.00    +0.000 C 
ATOM     36  C   UNL     1       1.601   4.070  17.950  0.00  0.00    +0.000 C 
ENDBRANCH  30  31
ENDBRANCH  29  30
ENDBRANCH  27  29
ENDBRANCH   5  25
TORSDOF 5
ENDMDL
MODEL 7
REMARK VINA RESULT:      -7.3      2.188      2.549
REMARK  Name = 
REMARK  5 active torsions:
REMARK  status: ('A' for Active; 'I' for Inactive)
REMARK    1  A    between atoms: C_5  and  C_6
REMARK    2  A    between atoms: C_10  and  C_11
REMARK    3  A    between atoms: N_13  and  C_14
REMARK    4  A    between atoms: C_14  and  C_15
REMARK    5  A    between atoms: C_15  and  N_16
REMARK                            x       y       z     vdW  Elec       q    Type
REMARK                         _______ _______ _______ _____ _____    ______ ____
ROOT
ATOM      1  C   UNL     1      -0.918  13.134  21.317  0.00  0.00    +0.000 A 
ATOM      2  C   UNL     1      -0.877  11.792  21.191  0.00  0.00    +0.000 A 
ATOM      3  N   UNL     1       0.008  11.247  20.292  0.00  0.00    +0.000 N 
ATOM      4  C   UNL     1       0.273   9.953  19.966  0.00  0.00    +0.000 A 
ATOM      5  C   UNL     1       1.277  10.010  19.015  0.00  0.00    +0.000 A 
ATOM      6  N   UNL     1       1.605  11.327  18.735  0.00  0.00    +0.000 NA
ATOM      7  C   UNL     1       0.836  12.036  19.544  0.00  0.00    +0.000 A 
ATOM      8  C   UNL     1       0.765  13.486  19.705  0.00  0.00    +0.000 A 
ATOM      9  N   UNL     1       1.590  14.360  19.014  0.00  0.00    +0.000 N 
ATOM     10  C   UNL     1       2.910  13.985  18.495  0.00  0.00    +0.000 C 
ATOM     11  C   UNL     1       3.942  15.038  18.921  0.00  0.00    +0.000 C 
ATOM     12  O   UNL     1       3.556  16.355  18.501  0.00  0.00    +0.000 OA
ATOM     13  C   UNL     1       2.287  16.710  19.079  0.00  0.00    +0.000 C 
ATOM     14  C   UNL     1       1.189  15.724  18.663  0.00  0.00    +0.000 C 
ATOM     15  N   UNL     1      -0.117  13.981  20.557  0.00  0.00    +0.000 NA
ENDROOT
BRANCH   1  20
ATOM     16  N   UNL     1      -4.408  15.635  24.890  0.00  0.00    +0.000 N 
ATOM     17  C   UNL     1      -3.561  14.976  24.026  0.00  0.00    +0.000 A 
ATOM     18  N   UNL     1      -4.065  14.584  22.855  0.00  0.00    +0.000 NA
ATOM     19  C   UNL     1      -3.205  13.971  22.010  0.00  0.00    +0.000 A 
ATOM     20  C   UNL     1      -1.867  13.738  22.274  0.00  0.00    +0.000 A 
ATOM     21  C   UNL     1      -1.491  14.130  23.543  0.00  0.00    +0.000 A 
ATOM     22  N   UNL     1      -2.310  14.745  24.430  0.00  0.00    +0.000 NA
ATOM     23  H   UNL     1      -5.367  15.400  24.672  0.00  0.00    +0.000 HD
ATOM     24  H   UNL     1      -4.098  15.503  25.841  0.00  0.00    +0.000 HD
ENDBRANCH   1  20
BRANCH   5  25
ATOM     25  C   UNL     1       1.918   8.846  18.414  0.00  0.00    +0.000 C 
ATOM     26  O   UNL     1       2.282   8.842  17.238  0.00  0.00    +0.000 OA
ATOM     27  N   UNL     1       2.072   7.765  19.263  0.00  0.00    +0.000 N 
ATOM     28  H   UNL     1       1.925   7.943  20.253  0.00  0.00    +0.000 HD
BRANCH  27  29
ATOM     29  C   UNL     1       2.841   6.628  18.805  0.00  0.00    +0.000 C 
BRANCH  29  30
ATOM     30  C   UNL     1       2.750   5.379  19.703  0.00  0.00    +0.000 C 
BRANCH  30  31
ATOM     31  N   UNL     1       3.706   4.328  19.303  0.00  0.00    +0.000 NA
ATOM     32  C   UNL     1       3.772   4.085  17.841  0.00  0.00    +0.000 C 
ATOM     33  C   UNL     1       2.587   3.292  17.264  0.00  0.00    +0.000 C 
ATOM     34  O   UNL     1       2.398   2.053  17.957  0.00  0.00    +0.000 OA
ATOM     35  C   UNL     1       2.221   2.276  19.360  0.00  0.00    +0.000 C 
ATOM     36  C   UNL     1       3.418   3.034  19.960  0.00  0.00    +0.000 C 
ENDBRANCH  30  31
ENDBRANCH  29  30
ENDBRANCH  27  29
ENDBRANCH   5  25
TORSDOF 5
ENDMDL
MODEL 8
REMARK VINA RESULT:      -7.3      3.439      4.218
REMARK  Name = 
REMARK  5 active torsions:
REMARK  status: ('A' for Active; 'I' for Inactive)
REMARK    1  A    between atoms: C_5  and  C_6
REMARK    2  A    between atoms: C_10  and  C_11
REMARK    3  A    between atoms: N_13  and  C_14
REMARK    4  A    between atoms: C_14  and  C_15
REMARK    5  A    between atoms: C_15  and  N_16
REMARK                            x       y       z     vdW  Elec       q    Type
REMARK                         _______ _______ _______ _____ _____    ______ ____
ROOT
ATOM      1  C   UNL     1      -1.529  12.603  20.821  0.00  0.00    +0.000 A 
ATOM      2  C   UNL     1      -0.314  12.042  20.985  0.00  0.00    +0.000 A 
ATOM      3  N   UNL     1       0.068  11.046  20.119  0.00  0.00    +0.000 N 
ATOM      4  C   UNL     1       1.215  10.319  20.036  0.00  0.00    +0.000 A 
ATOM      5  C   UNL     1       1.042   9.477  18.952  0.00  0.00    +0.000 A 
ATOM      6  N   UNL     1      -0.212   9.661  18.391  0.00  0.00    +0.000 NA
ATOM      7  C   UNL     1      -0.754  10.631  19.108  0.00  0.00    +0.000 A 
ATOM      8  C   UNL     1      -2.064  11.260  18.960  0.00  0.00    +0.000 A 
ATOM      9  N   UNL     1      -2.946  10.927  17.943  0.00  0.00    +0.000 N 
ATOM     10  C   UNL     1      -2.522  10.361  16.658  0.00  0.00    +0.000 C 
ATOM     11  C   UNL     1      -3.177  11.147  15.515  0.00  0.00    +0.000 C 
ATOM     12  O   UNL     1      -4.606  11.174  15.643  0.00  0.00    +0.000 OA
ATOM     13  C   UNL     1      -4.983  11.791  16.887  0.00  0.00    +0.000 C 
ATOM     14  C   UNL     1      -4.400  11.034  18.086  0.00  0.00    +0.000 C 
ATOM     15  N   UNL     1      -2.413  12.196  19.826  0.00  0.00    +0.000 NA
ENDROOT
BRANCH   1  20
ATOM     16  N   UNL     1      -3.205  16.782  24.127  0.00  0.00    +0.000 N 
ATOM     17  C   UNL     1      -2.773  15.730  23.350  0.00  0.00    +0.000 A 
ATOM     18  N   UNL     1      -3.588  14.681  23.232  0.00  0.00    +0.000 NA
ATOM     19  C   UNL     1      -3.157  13.676  22.437  0.00  0.00    +0.000 A 
ATOM     20  C   UNL     1      -1.959  13.672  21.746  0.00  0.00    +0.000 A 
ATOM     21  C   UNL     1      -1.182  14.783  22.007  0.00  0.00    +0.000 A 
ATOM     22  N   UNL     1      -1.561  15.816  22.796  0.00  0.00    +0.000 NA
ATOM     23  H   UNL     1      -3.899  16.457  24.785  0.00  0.00    +0.000 HD
ATOM     24  H   UNL     1      -2.411  17.287  24.492  0.00  0.00    +0.000 HD
ENDBRANCH   1  20
BRANCH   5  25
ATOM     25  C   UNL     1       2.049   8.548  18.452  0.00  0.00    +0.000 C 
ATOM     26  O   UNL     1       2.598   8.713  17.362  0.00  0.00    +0.000 OA
ATOM     27  N   UNL     1       2.323   7.482  19.290  0.00  0.00    +0.000 N 
ATOM     28  H   UNL     1       1.968   7.552  20.241  0.00  0.00    +0.000 HD
BRANCH  27  29
ATOM     29  C   UNL     1       3.421   6.601  18.955  0.00  0.00    +0.000 C 
BRANCH  29  30
ATOM     30  C   UNL     1       3.214   5.128  19.355  0.00  0.00    +0.000 C 
BRANCH  30  31
ATOM     31  N   UNL     1       1.829   4.672  19.126  0.00  0.00    +0.000 NA
ATOM     32  C   UNL     1       1.220   3.960  20.276  0.00  0.00    +0.000 C 
ATOM     33  C   UNL     1       1.711   2.515  20.473  0.00  0.00    +0.000 C 
ATOM     34  O   UNL     1       1.555   1.740  19.280  0.00  0.00    +0.000 OA
ATOM     35  C   UNL     1       2.231   2.357  18.180  0.00  0.00    +0.000 C 
ATOM     36  C   UNL     1       1.721   3.790  17.943  0.00  0.00    +0.000 C 
ENDBRANCH  30  31
ENDBRANCH  29  30
ENDBRANCH  27  29
ENDBRANCH   5  25
TORSDOF 5
ENDMDL
MODEL 9
REMARK VINA RESULT:      -7.3      2.446      2.835
REMARK  Name = 
REMARK  5 active torsions:
REMARK  status: ('A' for Active; 'I' for Inactive)
REMARK    1  A    between atoms: C_5  and  C_6
REMARK    2  A    between atoms: C_10  and  C_11
REMARK    3  A    between atoms: N_13  and  C_14
REMARK    4  A    between atoms: C_14  and  C_15
REMARK    5  A    between atoms: C_15  and  N_16
REMARK                            x       y       z     vdW  Elec       q    Type
REMARK                         _______ _______ _______ _____ _____    ______ ____
ROOT
ATOM      1  C   UNL     1      -1.771  12.302  21.164  0.00  0.00    +0.000 A 
ATOM      2  C   UNL     1      -1.456  11.009  20.950  0.00  0.00    +0.000 A 
ATOM      3  N   UNL     1      -0.427  10.720  20.086  0.00  0.00    +0.000 N 
ATOM      4  C   UNL     1       0.109   9.533  19.693  0.00  0.00    +0.000 A 
ATOM      5  C   UNL     1       1.137   9.860  18.826  0.00  0.00    +0.000 A 
ATOM      6  N   UNL     1       1.213  11.235  18.663  0.00  0.00    +0.000 NA
ATOM      7  C   UNL     1       0.271  11.713  19.458  0.00  0.00    +0.000 A 
ATOM      8  C   UNL     1      -0.097  13.104  19.711  0.00  0.00    +0.000 A 
ATOM      9  N   UNL     1       0.579  14.175  19.146  0.00  0.00    +0.000 N 
ATOM     10  C   UNL     1       1.977  14.106  18.704  0.00  0.00    +0.000 C 
ATOM     11  C   UNL     1       2.751  15.301  19.277  0.00  0.00    +0.000 C 
ATOM     12  O   UNL     1       2.136  16.547  18.920  0.00  0.00    +0.000 OA
ATOM     13  C   UNL     1       0.790  16.602  19.423  0.00  0.00    +0.000 C 
ATOM     14  C   UNL     1      -0.064  15.459  18.860  0.00  0.00    +0.000 C 
ATOM     15  N   UNL     1      -1.109  13.347  20.526  0.00  0.00    +0.000 NA
ENDROOT
BRANCH   1  20
ATOM     16  N   UNL     1      -6.083  13.363  24.552  0.00  0.00    +0.000 N 
ATOM     17  C   UNL     1      -5.000  13.143  23.729  0.00  0.00    +0.000 A 
ATOM     18  N   UNL     1      -3.933  12.550  24.267  0.00  0.00    +0.000 NA
ATOM     19  C   UNL     1      -2.897  12.313  23.431  0.00  0.00    +0.000 A 
ATOM     20  C   UNL     1      -2.877  12.631  22.085  0.00  0.00    +0.000 A 
ATOM     21  C   UNL     1      -4.012  13.299  21.672  0.00  0.00    +0.000 A 
ATOM     22  N   UNL     1      -5.078  13.565  22.465  0.00  0.00    +0.000 NA
ATOM     23  H   UNL     1      -5.780  13.383  25.515  0.00  0.00    +0.000 HD
ATOM     24  H   UNL     1      -6.618  14.148  24.212  0.00  0.00    +0.000 HD
ENDBRANCH   1  20
BRANCH   5  25
ATOM     25  C   UNL     1       2.033   8.896  18.198  0.00  0.00    +0.000 C 
ATOM     26  O   UNL     1       2.598   9.138  17.131  0.00  0.00    +0.000 OA
ATOM     27  N   UNL     1       2.180   7.706  18.887  0.00  0.00    +0.000 N 
ATOM     28  H   UNL     1       1.834   7.691  19.843  0.00  0.00    +0.000 HD
BRANCH  27  29
ATOM     29  C   UNL     1       3.171   6.757  18.426  0.00  0.00    +0.000 C 
BRANCH  29  30
ATOM     30  C   UNL     1       3.528   5.651  19.438  0.00  0.00    +0.000 C 
BRANCH  30  31
ATOM     31  N   UNL     1       2.488   4.606  19.519  0.00  0.00    +0.000 NA
ATOM     32  C   UNL     1       2.864   3.431  20.343  0.00  0.00    +0.000 C 
ATOM     33  C   UNL     1       3.852   2.461  19.672  0.00  0.00    +0.000 C 
ATOM     34  O   UNL     1       3.376   2.029  18.393  0.00  0.00    +0.000 OA
ATOM     35  C   UNL     1       3.112   3.150  17.542  0.00  0.00    +0.000 C 
ATOM     36  C   UNL     1       2.093   4.109  18.182  0.00  0.00    +0.000 C 
ENDBRANCH  30  31
ENDBRANCH  29  30
ENDBRANCH  27  29
ENDBRANCH   5  25
TORSDOF 5
ENDMDL
