MODEL 1
REMARK VINA RESULT:      -8.1      0.000      0.000
REMARK  Name = 
REMARK  6 active torsions:
REMARK  status: ('A' for Active; 'I' for Inactive)
REMARK    1  A    between atoms: C_2  and  C_3
REMARK    2  A    between atoms: C_7  and  N_8
REMARK    3  A    between atoms: N_8  and  C_9
REMARK    4  A    between atoms: N_16  and  C_17
REMARK    5  A    between atoms: C_20  and  C_21
REMARK    6  A    between atoms: C_21  and  N_22
REMARK                            x       y       z     vdW  Elec       q    Type
REMARK                         _______ _______ _______ _____ _____    ______ ____
ROOT
ATOM      1  C   UNL     1       4.302   3.588  17.464  0.00  0.00    +0.000 A 
ATOM      2  N   UNL     1       3.540   2.490  17.682  0.00  0.00    +0.000 NA
ATOM      3  C   UNL     1       2.281   2.629  18.123  0.00  0.00    +0.000 A 
ATOM      4  N   UNL     1       1.647   3.765  18.399  0.00  0.00    +0.000 NA
ATOM      5  C   UNL     1       2.402   4.865  18.194  0.00  0.00    +0.000 A 
ATOM      6  N   UNL     1       1.883   6.123  18.377  0.00  0.00    +0.000 NA
ATOM      7  C   UNL     1       2.770   7.037  18.062  0.00  0.00    +0.000 A 
ATOM      8  N   UNL     1       2.582   8.373  18.029  0.00  0.00    +0.000 N 
ATOM      9  S   UNL     1       4.312   6.417  17.600  0.00  0.00    +0.000 S 
ATOM     10  C   UNL     1       3.715   4.818  17.751  0.00  0.00    +0.000 A 
ATOM     11  H   UNL     1       3.359   8.939  17.711  0.00  0.00    +0.000 HD
ENDROOT
BRANCH   8  12
ATOM     12  C   UNL     1       1.569   9.124  18.651  0.00  0.00    +0.000 A 
ATOM     13  C   UNL     1       0.603   9.864  17.961  0.00  0.00    +0.000 A 
ATOM     14  C   UNL     1      -0.418  10.535  18.644  0.00  0.00    +0.000 A 
ATOM     15  C   UNL     1      -0.479  10.511  20.040  0.00  0.00    +0.000 A 
ATOM     16  C   UNL     1       0.553   9.869  20.736  0.00  0.00    +0.000 A 
ATOM     17  C   UNL     1       1.560   9.186  20.050  0.00  0.00    +0.000 A 
BRANCH  15  18
ATOM     18  C   UNL     1      -1.590  11.203  20.793  0.00  0.00    +0.000 C 
BRANCH  18  19
ATOM     19  N   UNL     1      -1.555  12.662  20.917  0.00  0.00    +0.000 NA
ATOM     20  C   UNL     1      -0.648  13.240  21.915  0.00  0.00    +0.000 C 
ATOM     21  C   UNL     1      -1.276  13.504  23.297  0.00  0.00    +0.000 C 
ATOM     22  O   UNL     1      -2.509  14.230  23.201  0.00  0.00    +0.000 OA
ATOM     23  C   UNL     1      -3.437  13.554  22.345  0.00  0.00    +0.000 C 
ATOM     24  C   UNL     1      -2.852  13.345  20.943  0.00  0.00    +0.000 C 
ENDBRANCH  18  19
ENDBRANCH  15  18
ENDBRANCH   8  12
BRANCH   1  25
ATOM     25  N   UNL     1       5.590   3.514  16.902  0.00  0.00    +0.000 N 
ATOM     26  H   UNL     1       6.315   3.684  17.589  0.00  0.00    +0.000 HD
BRANCH  25  31
ATOM     27  C   UNL     1       5.656   3.828  13.174  0.00  0.00    +0.000 A 
ATOM     28  C   UNL     1       6.774   4.639  13.000  0.00  0.00    +0.000 A 
ATOM     29  C   UNL     1       7.520   5.026  14.113  0.00  0.00    +0.000 A 
ATOM     30  C   UNL     1       7.132   4.618  15.393  0.00  0.00    +0.000 A 
ATOM     31  C   UNL     1       5.983   3.837  15.586  0.00  0.00    +0.000 A 
ATOM     32  C   UNL     1       5.273   3.428  14.455  0.00  0.00    +0.000 A 
BRANCH  27  34
ATOM     33  C   UNL     1       4.210   3.092  11.106  0.00  0.00    +0.000 C 
ATOM     34  C   UNL     1       4.882   3.396  12.048  0.00  0.00    +0.000 C 
ENDBRANCH  27  34
ENDBRANCH  25  31
ENDBRANCH   1  25
TORSDOF 6
ENDMDL
MODEL 2
REMARK VINA RESULT:      -8.0      3.517     11.972
REMARK  Name = 
REMARK  6 active torsions:
REMARK  status: ('A' for Active; 'I' for Inactive)
REMARK    1  A    between atoms: C_2  and  C_3
REMARK    2  A    between atoms: C_7  and  N_8
REMARK    3  A    between atoms: N_8  and  C_9
REMARK    4  A    between atoms: N_16  and  C_17
REMARK    5  A    between atoms: C_20  and  C_21
REMARK    6  A    between atoms: C_21  and  N_22
REMARK                            x       y       z     vdW  Elec       q    Type
REMARK                         _______ _______ _______ _____ _____    ______ ____
ROOT
ATOM      1  C   UNL     1      -0.487  11.862  21.386  0.00  0.00    +0.000 A 
ATOM      2  N   UNL     1      -0.991  12.583  20.356  0.00  0.00    +0.000 NA
ATOM      3  C   UNL     1      -0.862  12.131  19.100  0.00  0.00    +0.000 A 
ATOM      4  N   UNL     1      -0.264  11.010  18.707  0.00  0.00    +0.000 NA
ATOM      5  C   UNL     1       0.250  10.290  19.725  0.00  0.00    +0.000 A 
ATOM      6  N   UNL     1       0.854   9.077  19.500  0.00  0.00    +0.000 NA
ATOM      7  C   UNL     1       1.221   8.528  20.634  0.00  0.00    +0.000 A 
ATOM      8  N   UNL     1       1.757   7.301  20.806  0.00  0.00    +0.000 N 
ATOM      9  S   UNL     1       0.924   9.493  22.033  0.00  0.00    +0.000 S 
ATOM     10  C   UNL     1       0.175  10.683  21.053  0.00  0.00    +0.000 A 
ATOM     11  H   UNL     1       1.936   7.007  21.758  0.00  0.00    +0.000 HD
ENDROOT
BRANCH   8  12
ATOM     12  C   UNL     1       2.381   6.483  19.847  0.00  0.00    +0.000 A 
ATOM     13  C   UNL     1       2.576   5.107  19.997  0.00  0.00    +0.000 A 
ATOM     14  C   UNL     1       3.146   4.341  18.973  0.00  0.00    +0.000 A 
ATOM     15  C   UNL     1       3.567   4.941  17.783  0.00  0.00    +0.000 A 
ATOM     16  C   UNL     1       3.480   6.335  17.679  0.00  0.00    +0.000 A 
ATOM     17  C   UNL     1       2.894   7.092  18.696  0.00  0.00    +0.000 A 
BRANCH  15  18
ATOM     18  C   UNL     1       4.155   4.128  16.655  0.00  0.00    +0.000 C 
BRANCH  18  19
ATOM     19  N   UNL     1       5.598   3.872  16.648  0.00  0.00    +0.000 NA
ATOM     20  C   UNL     1       6.446   4.725  17.488  0.00  0.00    +0.000 C 
ATOM     21  C   UNL     1       7.032   5.963  16.784  0.00  0.00    +0.000 C 
ATOM     22  O   UNL     1       7.663   5.630  15.540  0.00  0.00    +0.000 OA
ATOM     23  C   UNL     1       6.757   4.939  14.674  0.00  0.00    +0.000 C 
ATOM     24  C   UNL     1       6.216   3.664  15.334  0.00  0.00    +0.000 C 
ENDBRANCH  18  19
ENDBRANCH  15  18
ENDBRANCH   8  12
BRANCH   1  25
ATOM     25  N   UNL     1      -0.683  12.228  22.730  0.00  0.00    +0.000 N 
ATOM     26  H   UNL     1      -0.219  11.593  23.368  0.00  0.00    +0.000 HD
BRANCH  25  31
ATOM     27  C   UNL     1      -2.893  14.792  24.327  0.00  0.00    +0.000 A 
ATOM     28  C   UNL     1      -4.117  14.130  24.305  0.00  0.00    +0.000 A 
ATOM     29  C   UNL     1      -4.184  12.827  23.813  0.00  0.00    +0.000 A 
ATOM     30  C   UNL     1      -3.032  12.202  23.325  0.00  0.00    +0.000 A 
ATOM     31  C   UNL     1      -1.800  12.873  23.301  0.00  0.00    +0.000 A 
ATOM     32  C   UNL     1      -1.748  14.162  23.835  0.00  0.00    +0.000 A 
BRANCH  27  34
ATOM     33  C   UNL     1      -2.721  17.255  25.225  0.00  0.00    +0.000 C 
ATOM     34  C   UNL     1      -2.788  16.122  24.846  0.00  0.00    +0.000 C 
ENDBRANCH  27  34
ENDBRANCH  25  31
ENDBRANCH   1  25
TORSDOF 6
ENDMDL
MODEL 3
REMARK VINA RESULT:      -8.0      3.779     11.299
REMARK  Name = 
REMARK  6 active torsions:
REMARK  status: ('A' for Active; 'I' for Inactive)
REMARK    1  A    between atoms: C_2  and  C_3
REMARK    2  A    between atoms: C_7  and  N_8
REMARK    3  A    between atoms: N_8  and  C_9
REMARK    4  A    between atoms: N_16  and  C_17
REMARK    5  A    between atoms: C_20  and  C_21
REMARK    6  A    between atoms: C_21  and  N_22
REMARK                            x       y       z     vdW  Elec       q    Type
REMARK                         _______ _______ _______ _____ _____    ______ ____
ROOT
ATOM      1  C   UNL     1      -1.775  12.544  20.183  0.00  0.00    +0.000 A 
ATOM      2  N   UNL     1      -1.433  13.178  21.330  0.00  0.00    +0.000 NA
ATOM      3  C   UNL     1      -0.326  12.809  21.991  0.00  0.00    +0.000 A 
ATOM      4  N   UNL     1       0.525  11.844  21.658  0.00  0.00    +0.000 NA
ATOM      5  C   UNL     1       0.187  11.199  20.521  0.00  0.00    +0.000 A 
ATOM      6  N   UNL     1       0.988  10.211  20.004  0.00  0.00    +0.000 NA
ATOM      7  C   UNL     1       0.500   9.771  18.868  0.00  0.00    +0.000 A 
ATOM      8  N   UNL     1       1.067   8.872  18.035  0.00  0.00    +0.000 N 
ATOM      9  S   UNL     1      -1.003  10.479  18.405  0.00  0.00    +0.000 S 
ATOM     10  C   UNL     1      -0.943  11.504  19.778  0.00  0.00    +0.000 A 
ATOM     11  H   UNL     1       0.581   8.679  17.168  0.00  0.00    +0.000 HD
ENDROOT
BRANCH   8  12
ATOM     12  C   UNL     1       2.079   7.938  18.322  0.00  0.00    +0.000 A 
ATOM     13  C   UNL     1       2.097   7.125  19.459  0.00  0.00    +0.000 A 
ATOM     14  C   UNL     1       3.102   6.169  19.649  0.00  0.00    +0.000 A 
ATOM     15  C   UNL     1       4.135   6.025  18.718  0.00  0.00    +0.000 A 
ATOM     16  C   UNL     1       4.182   6.917  17.639  0.00  0.00    +0.000 A 
ATOM     17  C   UNL     1       3.168   7.858  17.446  0.00  0.00    +0.000 A 
BRANCH  15  18
ATOM     18  C   UNL     1       5.209   4.979  18.889  0.00  0.00    +0.000 C 
BRANCH  18  19
ATOM     19  N   UNL     1       4.919   3.599  18.490  0.00  0.00    +0.000 NA
ATOM     20  C   UNL     1       4.171   3.392  17.245  0.00  0.00    +0.000 C 
ATOM     21  C   UNL     1       2.643   3.278  17.410  0.00  0.00    +0.000 C 
ATOM     22  O   UNL     1       2.278   2.333  18.425  0.00  0.00    +0.000 OA
ATOM     23  C   UNL     1       2.897   2.657  19.674  0.00  0.00    +0.000 C 
ATOM     24  C   UNL     1       4.425   2.707  19.544  0.00  0.00    +0.000 C 
ENDBRANCH  18  19
ENDBRANCH  15  18
ENDBRANCH   8  12
BRANCH   1  25
ATOM     25  N   UNL     1      -2.862  12.954  19.389  0.00  0.00    +0.000 N 
ATOM     26  H   UNL     1      -2.813  13.940  19.159  0.00  0.00    +0.000 HD
BRANCH  25  31
ATOM     27  C   UNL     1      -6.343  12.066  20.438  0.00  0.00    +0.000 A 
ATOM     28  C   UNL     1      -6.839  11.521  19.258  0.00  0.00    +0.000 A 
ATOM     29  C   UNL     1      -6.001  11.406  18.150  0.00  0.00    +0.000 A 
ATOM     30  C   UNL     1      -4.679  11.856  18.220  0.00  0.00    +0.000 A 
ATOM     31  C   UNL     1      -4.178  12.447  19.390  0.00  0.00    +0.000 A 
ATOM     32  C   UNL     1      -5.022  12.517  20.500  0.00  0.00    +0.000 A 
BRANCH  27  34
ATOM     33  C   UNL     1      -7.916  12.268  22.534  0.00  0.00    +0.000 C 
ATOM     34  C   UNL     1      -7.173  12.178  21.600  0.00  0.00    +0.000 C 
ENDBRANCH  27  34
ENDBRANCH  25  31
ENDBRANCH   1  25
TORSDOF 6
ENDMDL
MODEL 4
REMARK VINA RESULT:      -7.9      3.552     11.740
REMARK  Name = 
REMARK  6 active torsions:
REMARK  status: ('A' for Active; 'I' for Inactive)
REMARK    1  A    between atoms: C_2  and  C_3
REMARK    2  A    between atoms: C_7  and  N_8
REMARK    3  A    between atoms: N_8  and  C_9
REMARK    4  A    between atoms: N_16  and  C_17
REMARK    5  A    between atoms: C_20  and  C_21
REMARK    6  A    between atoms: C_21  and  N_22
REMARK                            x       y       z     vdW  Elec       q    Type
REMARK                         _______ _______ _______ _____ _____    ______ ____
ROOT
ATOM      1  C   UNL     1      -0.333  11.877  21.546  0.00  0.00    +0.000 A 
ATOM      2  N   UNL     1      -0.619  12.731  20.535  0.00  0.00    +0.000 NA
ATOM      3  C   UNL     1      -0.336  12.385  19.271  0.00  0.00    +0.000 A 
ATOM      4  N   UNL     1       0.227  11.255  18.853  0.00  0.00    +0.000 NA
ATOM      5  C   UNL     1       0.524  10.402  19.854  0.00  0.00    +0.000 A 
ATOM      6  N   UNL     1       1.060   9.165  19.594  0.00  0.00    +0.000 NA
ATOM      7  C   UNL     1       1.208   8.483  20.705  0.00  0.00    +0.000 A 
ATOM      8  N   UNL     1       1.616   7.202  20.824  0.00  0.00    +0.000 N 
ATOM      9  S   UNL     1       0.778   9.340  22.140  0.00  0.00    +0.000 S 
ATOM     10  C   UNL     1       0.279  10.677  21.191  0.00  0.00    +0.000 A 
ATOM     11  H   UNL     1       1.626   6.807  21.757  0.00  0.00    +0.000 HD
ENDROOT
BRANCH   8  12
ATOM     12  C   UNL     1       2.314   6.421  19.886  0.00  0.00    +0.000 A 
ATOM     13  C   UNL     1       2.587   6.827  18.576  0.00  0.00    +0.000 A 
ATOM     14  C   UNL     1       3.347   6.026  17.714  0.00  0.00    +0.000 A 
ATOM     15  C   UNL     1       3.823   4.779  18.132  0.00  0.00    +0.000 A 
ATOM     16  C   UNL     1       3.451   4.322  19.403  0.00  0.00    +0.000 A 
ATOM     17  C   UNL     1       2.709   5.133  20.265  0.00  0.00    +0.000 A 
BRANCH  15  18
ATOM     18  C   UNL     1       4.669   3.916  17.229  0.00  0.00    +0.000 C 
BRANCH  18  19
ATOM     19  N   UNL     1       6.122   4.102  17.235  0.00  0.00    +0.000 NA
ATOM     20  C   UNL     1       6.663   5.224  18.009  0.00  0.00    +0.000 C 
ATOM     21  C   UNL     1       6.868   6.529  17.215  0.00  0.00    +0.000 C 
ATOM     22  O   UNL     1       7.591   6.313  15.996  0.00  0.00    +0.000 OA
ATOM     23  C   UNL     1       6.947   5.324  15.185  0.00  0.00    +0.000 C 
ATOM     24  C   UNL     1       6.798   3.996  15.937  0.00  0.00    +0.000 C 
ENDBRANCH  18  19
ENDBRANCH  15  18
ENDBRANCH   8  12
BRANCH   1  25
ATOM     25  N   UNL     1      -0.701  12.135  22.879  0.00  0.00    +0.000 N 
ATOM     26  H   UNL     1      -0.542  11.335  23.480  0.00  0.00    +0.000 HD
BRANCH  25  31
ATOM     27  C   UNL     1      -4.041  13.462  23.925  0.00  0.00    +0.000 A 
ATOM     28  C   UNL     1      -3.681  14.711  24.423  0.00  0.00    +0.000 A 
ATOM     29  C   UNL     1      -2.349  15.118  24.357  0.00  0.00    +0.000 A 
ATOM     30  C   UNL     1      -1.381  14.266  23.815  0.00  0.00    +0.000 A 
ATOM     31  C   UNL     1      -1.724  12.987  23.349  0.00  0.00    +0.000 A 
ATOM     32  C   UNL     1      -3.069  12.616  23.387  0.00  0.00    +0.000 A 
BRANCH  27  34
ATOM     33  C   UNL     1      -6.531  12.632  24.041  0.00  0.00    +0.000 C 
ATOM     34  C   UNL     1      -5.404  13.025  23.958  0.00  0.00    +0.000 C 
ENDBRANCH  27  34
ENDBRANCH  25  31
ENDBRANCH   1  25
TORSDOF 6
ENDMDL
MODEL 5
REMARK VINA RESULT:      -7.9      2.060      3.301
REMARK  Name = 
REMARK  6 active torsions:
REMARK  status: ('A' for Active; 'I' for Inactive)
REMARK    1  A    between atoms: C_2  and  C_3
REMARK    2  A    between atoms: C_7  and  N_8
REMARK    3  A    between atoms: N_8  and  C_9
REMARK    4  A    between atoms: N_16  and  C_17
REMARK    5  A    between atoms: C_20  and  C_21
REMARK    6  A    between atoms: C_21  and  N_22
REMARK                            x       y       z     vdW  Elec       q    Type
REMARK                         _______ _______ _______ _____ _____    ______ ____
ROOT
ATOM      1  C   UNL     1       3.596   3.357  19.541  0.00  0.00    +0.000 A 
ATOM      2  N   UNL     1       3.028   2.318  20.198  0.00  0.00    +0.000 NA
ATOM      3  C   UNL     1       1.987   2.535  21.015  0.00  0.00    +0.000 A 
ATOM      4  N   UNL     1       1.409   3.701  21.289  0.00  0.00    +0.000 NA
ATOM      5  C   UNL     1       1.974   4.744  20.646  0.00  0.00    +0.000 A 
ATOM      6  N   UNL     1       1.465   6.012  20.772  0.00  0.00    +0.000 NA
ATOM      7  C   UNL     1       2.129   6.853  20.014  0.00  0.00    +0.000 A 
ATOM      8  N   UNL     1       1.851   8.159  19.813  0.00  0.00    +0.000 N 
ATOM      9  S   UNL     1       3.461   6.161  19.164  0.00  0.00    +0.000 S 
ATOM     10  C   UNL     1       3.059   4.617  19.792  0.00  0.00    +0.000 A 
ATOM     11  H   UNL     1       2.435   8.656  19.152  0.00  0.00    +0.000 HD
ENDROOT
BRANCH   8  12
ATOM     12  C   UNL     1       1.061   9.011  20.604  0.00  0.00    +0.000 A 
ATOM     13  C   UNL     1       0.786   8.795  21.958  0.00  0.00    +0.000 A 
ATOM     14  C   UNL     1       0.047   9.721  22.703  0.00  0.00    +0.000 A 
ATOM     15  C   UNL     1      -0.467  10.874  22.102  0.00  0.00    +0.000 A 
ATOM     16  C   UNL     1      -0.292  11.033  20.721  0.00  0.00    +0.000 A 
ATOM     17  C   UNL     1       0.462  10.115  19.986  0.00  0.00    +0.000 A 
BRANCH  15  18
ATOM     18  C   UNL     1      -1.240  11.899  22.895  0.00  0.00    +0.000 C 
BRANCH  18  19
ATOM     19  N   UNL     1      -2.690  11.989  22.707  0.00  0.00    +0.000 NA
ATOM     20  C   UNL     1      -3.184  12.813  21.598  0.00  0.00    +0.000 C 
ATOM     21  C   UNL     1      -3.509  14.275  21.962  0.00  0.00    +0.000 C 
ATOM     22  O   UNL     1      -4.347  14.370  23.122  0.00  0.00    +0.000 OA
ATOM     23  C   UNL     1      -3.758  13.691  24.237  0.00  0.00    +0.000 C 
ATOM     24  C   UNL     1      -3.491  12.215  23.914  0.00  0.00    +0.000 C 
ENDBRANCH  18  19
ENDBRANCH  15  18
ENDBRANCH   8  12
BRANCH   1  25
ATOM     25  N   UNL     1       4.619   3.181  18.591  0.00  0.00    +0.000 N 
ATOM     26  H   UNL     1       5.318   2.517  18.904  0.00  0.00    +0.000 HD
BRANCH  25  31
ATOM     27  C   UNL     1       6.497   6.044  17.082  0.00  0.00    +0.000 A 
ATOM     28  C   UNL     1       6.177   5.887  15.737  0.00  0.00    +0.000 A 
ATOM     29  C   UNL     1       5.302   4.870  15.355  0.00  0.00    +0.000 A 
ATOM     30  C   UNL     1       4.772   4.004  16.316  0.00  0.00    +0.000 A 
ATOM     31  C   UNL     1       5.120   4.124  17.670  0.00  0.00    +0.000 A 
ATOM     32  C   UNL     1       5.966   5.174  18.036  0.00  0.00    +0.000 A 
BRANCH  27  34
ATOM     33  C   UNL     1       8.059   8.005  17.871  0.00  0.00    +0.000 C 
ATOM     34  C   UNL     1       7.375   7.093  17.509  0.00  0.00    +0.000 C 
ENDBRANCH  27  34
ENDBRANCH  25  31
ENDBRANCH   1  25
TORSDOF 6
ENDMDL
MODEL 6
REMARK VINA RESULT:      -7.8      0.944      1.318
REMARK  Name = 
REMARK  6 active torsions:
REMARK  status: ('A' for Active; 'I' for Inactive)
REMARK    1  A    between atoms: C_2  and  C_3
REMARK    2  A    between atoms: C_7  and  N_8
REMARK    3  A    between atoms: N_8  and  C_9
REMARK    4  A    between atoms: N_16  and  C_17
REMARK    5  A    between atoms: C_20  and  C_21
REMARK    6  A    between atoms: C_21  and  N_22
REMARK                            x       y       z     vdW  Elec       q    Type
REMARK                         _______ _______ _______ _____ _____    ______ ____
ROOT
ATOM      1  C   UNL     1       4.516   4.080  17.922  0.00  0.00    +0.000 A 
ATOM      2  N   UNL     1       3.779   3.062  18.426  0.00  0.00    +0.000 NA
ATOM      3  C   UNL     1       2.542   3.298  18.886  0.00  0.00    +0.000 A 
ATOM      4  N   UNL     1       1.907   4.466  18.922  0.00  0.00    +0.000 NA
ATOM      5  C   UNL     1       2.637   5.489  18.431  0.00  0.00    +0.000 A 
ATOM      6  N   UNL     1       2.112   6.755  18.343  0.00  0.00    +0.000 NA
ATOM      7  C   UNL     1       2.970   7.572  17.780  0.00  0.00    +0.000 A 
ATOM      8  N   UNL     1       2.764   8.864  17.447  0.00  0.00    +0.000 N 
ATOM      9  S   UNL     1       4.496   6.864  17.397  0.00  0.00    +0.000 S 
ATOM     10  C   UNL     1       3.927   5.343  17.945  0.00  0.00    +0.000 A 
ATOM     11  H   UNL     1       3.517   9.341  16.968  0.00  0.00    +0.000 HD
ENDROOT
BRANCH   8  12
ATOM     12  C   UNL     1       1.773   9.738  17.929  0.00  0.00    +0.000 A 
ATOM     13  C   UNL     1       0.409   9.432  17.968  0.00  0.00    +0.000 A 
ATOM     14  C   UNL     1      -0.517  10.324  18.523  0.00  0.00    +0.000 A 
ATOM     15  C   UNL     1      -0.103  11.563  19.023  0.00  0.00    +0.000 A 
ATOM     16  C   UNL     1       1.244  11.917  18.878  0.00  0.00    +0.000 A 
ATOM     17  C   UNL     1       2.166  11.017  18.340  0.00  0.00    +0.000 A 
BRANCH  15  18
ATOM     18  C   UNL     1      -1.081  12.525  19.653  0.00  0.00    +0.000 C 
BRANCH  18  19
ATOM     19  N   UNL     1      -1.856  12.081  20.815  0.00  0.00    +0.000 NA
ATOM     20  C   UNL     1      -3.149  12.729  21.059  0.00  0.00    +0.000 C 
ATOM     21  C   UNL     1      -3.107  13.940  22.010  0.00  0.00    +0.000 C 
ATOM     22  O   UNL     1      -2.410  13.647  23.228  0.00  0.00    +0.000 OA
ATOM     23  C   UNL     1      -1.088  13.169  22.961  0.00  0.00    +0.000 C 
ATOM     24  C   UNL     1      -1.115  11.920  22.070  0.00  0.00    +0.000 C 
ENDBRANCH  18  19
ENDBRANCH  15  18
ENDBRANCH   8  12
BRANCH   1  25
ATOM     25  N   UNL     1       5.776   3.879  17.329  0.00  0.00    +0.000 N 
ATOM     26  H   UNL     1       6.531   3.988  17.994  0.00  0.00    +0.000 HD
BRANCH  25  31
ATOM     27  C   UNL     1       5.843   4.013  13.589  0.00  0.00    +0.000 A 
ATOM     28  C   UNL     1       6.935   4.849  13.378  0.00  0.00    +0.000 A 
ATOM     29  C   UNL     1       7.666   5.312  14.471  0.00  0.00    +0.000 A 
ATOM     30  C   UNL     1       7.287   4.956  15.769  0.00  0.00    +0.000 A 
ATOM     31  C   UNL     1       6.162   4.150  15.999  0.00  0.00    +0.000 A 
ATOM     32  C   UNL     1       5.469   3.664  14.888  0.00  0.00    +0.000 A 
BRANCH  27  34
ATOM     33  C   UNL     1       4.409   3.117  11.577  0.00  0.00    +0.000 C 
ATOM     34  C   UNL     1       5.086   3.503  12.485  0.00  0.00    +0.000 C 
ENDBRANCH  27  34
ENDBRANCH  25  31
ENDBRANCH   1  25
TORSDOF 6
ENDMDL
MODEL 7
REMARK VINA RESULT:      -7.8      3.658     11.708
REMARK  Name = 
REMARK  6 active torsions:
REMARK  status: ('A' for Active; 'I' for Inactive)
REMARK    1  A    between atoms: C_2  and  C_3
REMARK    2  A    between atoms: C_7  and  N_8
REMARK    3  A    between atoms: N_8  and  C_9
REMARK    4  A    between atoms: N_16  and  C_17
REMARK    5  A    between atoms: C_20  and  C_21
REMARK    6  A    between atoms: C_21  and  N_22
REMARK                            x       y       z     vdW  Elec       q    Type
REMARK                         _______ _______ _______ _____ _____    ______ ____
ROOT
ATOM      1  C   UNL     1      -2.859  12.369  19.329  0.00  0.00    +0.000 A 
ATOM      2  N   UNL     1      -3.898  12.055  18.519  0.00  0.00    +0.000 NA
ATOM      3  C   UNL     1      -3.864  10.925  17.798  0.00  0.00    +0.000 A 
ATOM      4  N   UNL     1      -2.887  10.024  17.762  0.00  0.00    +0.000 NA
ATOM      5  C   UNL     1      -1.842  10.333  18.559  0.00  0.00    +0.000 A 
ATOM      6  N   UNL     1      -0.772   9.482  18.684  0.00  0.00    +0.000 NA
ATOM      7  C   UNL     1       0.091   9.952  19.553  0.00  0.00    +0.000 A 
ATOM      8  N   UNL     1       1.211   9.342  19.997  0.00  0.00    +0.000 N 
ATOM      9  S   UNL     1      -0.313  11.496  20.209  0.00  0.00    +0.000 S 
ATOM     10  C   UNL     1      -1.785  11.483  19.331  0.00  0.00    +0.000 A 
ATOM     11  H   UNL     1       1.743   9.822  20.712  0.00  0.00    +0.000 HD
ENDROOT
BRANCH   8  12
ATOM     12  C   UNL     1       1.914   8.278  19.405  0.00  0.00    +0.000 A 
ATOM     13  C   UNL     1       2.133   7.043  20.022  0.00  0.00    +0.000 A 
ATOM     14  C   UNL     1       2.785   6.003  19.347  0.00  0.00    +0.000 A 
ATOM     15  C   UNL     1       3.265   6.186  18.047  0.00  0.00    +0.000 A 
ATOM     16  C   UNL     1       3.150   7.458  17.473  0.00  0.00    +0.000 A 
ATOM     17  C   UNL     1       2.483   8.486  18.143  0.00  0.00    +0.000 A 
BRANCH  15  18
ATOM     18  C   UNL     1       3.942   5.067  17.292  0.00  0.00    +0.000 C 
BRANCH  18  19
ATOM     19  N   UNL     1       5.360   4.803  17.547  0.00  0.00    +0.000 NA
ATOM     20  C   UNL     1       6.152   5.869  18.170  0.00  0.00    +0.000 C 
ATOM     21  C   UNL     1       6.881   6.805  17.186  0.00  0.00    +0.000 C 
ATOM     22  O   UNL     1       7.630   6.078  16.203  0.00  0.00    +0.000 OA
ATOM     23  C   UNL     1       6.791   5.157  15.497  0.00  0.00    +0.000 C 
ATOM     24  C   UNL     1       6.111   4.172  16.456  0.00  0.00    +0.000 C 
ENDBRANCH  18  19
ENDBRANCH  15  18
ENDBRANCH   8  12
BRANCH   1  25
ATOM     25  N   UNL     1      -2.882  13.482  20.189  0.00  0.00    +0.000 N 
ATOM     26  H   UNL     1      -2.156  14.152  19.964  0.00  0.00    +0.000 HD
BRANCH  25  31
ATOM     27  C   UNL     1      -4.919  13.243  23.320  0.00  0.00    +0.000 A 
ATOM     28  C   UNL     1      -3.950  13.512  24.282  0.00  0.00    +0.000 A 
ATOM     29  C   UNL     1      -2.651  13.822  23.880  0.00  0.00    +0.000 A 
ATOM     30  C   UNL     1      -2.323  13.838  22.521  0.00  0.00    +0.000 A 
ATOM     31  C   UNL     1      -3.279  13.526  21.542  0.00  0.00    +0.000 A 
ATOM     32  C   UNL     1      -4.583  13.258  21.965  0.00  0.00    +0.000 A 
BRANCH  27  34
ATOM     33  C   UNL     1      -7.401  12.668  23.962  0.00  0.00    +0.000 C 
ATOM     34  C   UNL     1      -6.267  12.943  23.701  0.00  0.00    +0.000 C 
ENDBRANCH  27  34
ENDBRANCH  25  31
ENDBRANCH   1  25
TORSDOF 6
ENDMDL
MODEL 8
REMARK VINA RESULT:      -7.7      4.086     11.956
REMARK  Name = 
REMARK  6 active torsions:
REMARK  status: ('A' for Active; 'I' for Inactive)
REMARK    1  A    between atoms: C_2  and  C_3
REMARK    2  A    between atoms: C_7  and  N_8
REMARK    3  A    between atoms: N_8  and  C_9
REMARK    4  A    between atoms: N_16  and  C_17
REMARK    5  A    between atoms: C_20  and  C_21
REMARK    6  A    between atoms: C_21  and  N_22
REMARK                            x       y       z     vdW  Elec       q    Type
REMARK                         _______ _______ _______ _____ _____    ______ ____
ROOT
ATOM      1  C   UNL     1      -3.661  12.148  18.586  0.00  0.00    +0.000 A 
ATOM      2  N   UNL     1      -4.568  11.696  17.688  0.00  0.00    +0.000 NA
ATOM      3  C   UNL     1      -4.320  10.574  16.997  0.00  0.00    +0.000 A 
ATOM      4  N   UNL     1      -3.238   9.805  17.073  0.00  0.00    +0.000 NA
ATOM      5  C   UNL     1      -2.323  10.253  17.959  0.00  0.00    +0.000 A 
ATOM      6  N   UNL     1      -1.170   9.549  18.202  0.00  0.00    +0.000 NA
ATOM      7  C   UNL     1      -0.462  10.133  19.140  0.00  0.00    +0.000 A 
ATOM      8  N   UNL     1       0.678   9.676  19.700  0.00  0.00    +0.000 N 
ATOM      9  S   UNL     1      -1.121  11.617  19.722  0.00  0.00    +0.000 S 
ATOM     10  C   UNL     1      -2.488  11.407  18.709  0.00  0.00    +0.000 A 
ATOM     11  H   UNL     1       1.073  10.226  20.453  0.00  0.00    +0.000 HD
ENDROOT
BRANCH   8  12
ATOM     12  C   UNL     1       1.565   8.706  19.199  0.00  0.00    +0.000 A 
ATOM     13  C   UNL     1       2.182   8.780  17.947  0.00  0.00    +0.000 A 
ATOM     14  C   UNL     1       3.108   7.812  17.539  0.00  0.00    +0.000 A 
ATOM     15  C   UNL     1       3.414   6.725  18.363  0.00  0.00    +0.000 A 
ATOM     16  C   UNL     1       2.710   6.589  19.566  0.00  0.00    +0.000 A 
ATOM     17  C   UNL     1       1.801   7.566  19.977  0.00  0.00    +0.000 A 
BRANCH  15  18
ATOM     18  C   UNL     1       4.432   5.688  17.954  0.00  0.00    +0.000 C 
BRANCH  18  19
ATOM     19  N   UNL     1       5.640   6.126  17.250  0.00  0.00    +0.000 NA
ATOM     20  C   UNL     1       5.841   5.648  15.878  0.00  0.00    +0.000 C 
ATOM     21  C   UNL     1       6.676   4.359  15.749  0.00  0.00    +0.000 C 
ATOM     22  O   UNL     1       7.906   4.436  16.481  0.00  0.00    +0.000 OA
ATOM     23  C   UNL     1       7.666   4.747  17.858  0.00  0.00    +0.000 C 
ATOM     24  C   UNL     1       6.895   6.064  18.007  0.00  0.00    +0.000 C 
ENDBRANCH  18  19
ENDBRANCH  15  18
ENDBRANCH   8  12
BRANCH   1  25
ATOM     25  N   UNL     1      -3.909  13.256  19.417  0.00  0.00    +0.000 N 
ATOM     26  H   UNL     1      -3.087  13.836  19.533  0.00  0.00    +0.000 HD
BRANCH  25  31
ATOM     27  C   UNL     1      -5.376  13.127  22.858  0.00  0.00    +0.000 A 
ATOM     28  C   UNL     1      -6.632  13.681  22.627  0.00  0.00    +0.000 A 
ATOM     29  C   UNL     1      -6.995  14.039  21.329  0.00  0.00    +0.000 A 
ATOM     30  C   UNL     1      -6.094  13.862  20.275  0.00  0.00    +0.000 A 
ATOM     31  C   UNL     1      -4.809  13.345  20.500  0.00  0.00    +0.000 A 
ATOM     32  C   UNL     1      -4.480  12.956  21.800  0.00  0.00    +0.000 A 
BRANCH  27  34
ATOM     33  C   UNL     1      -4.595  12.416  25.264  0.00  0.00    +0.000 C 
ATOM     34  C   UNL     1      -4.982  12.729  24.176  0.00  0.00    +0.000 C 
ENDBRANCH  27  34
ENDBRANCH  25  31
ENDBRANCH   1  25
TORSDOF 6
ENDMDL
MODEL 9
REMARK VINA RESULT:      -7.7      2.083      3.184
REMARK  Name = 
REMARK  6 active torsions:
REMARK  status: ('A' for Active; 'I' for Inactive)
REMARK    1  A    between atoms: C_2  and  C_3
REMARK    2  A    between atoms: C_7  and  N_8
REMARK    3  A    between atoms: N_8  and  C_9
REMARK    4  A    between atoms: N_16  and  C_17
REMARK    5  A    between atoms: C_20  and  C_21
REMARK    6  A    between atoms: C_21  and  N_22
REMARK                            x       y       z     vdW  Elec       q    Type
REMARK                         _______ _______ _______ _____ _____    ______ ____
ROOT
ATOM      1  C   UNL     1       3.926   3.487  19.641  0.00  0.00    +0.000 A 
ATOM      2  N   UNL     1       3.523   2.502  20.479  0.00  0.00    +0.000 NA
ATOM      3  C   UNL     1       2.550   2.741  21.370  0.00  0.00    +0.000 A 
ATOM      4  N   UNL     1       1.895   3.883  21.559  0.00  0.00    +0.000 NA
ATOM      5  C   UNL     1       2.296   4.874  20.736  0.00  0.00    +0.000 A 
ATOM      6  N   UNL     1       1.686   6.103  20.759  0.00  0.00    +0.000 NA
ATOM      7  C   UNL     1       2.192   6.887  19.836  0.00  0.00    +0.000 A 
ATOM      8  N   UNL     1       1.777   8.129  19.508  0.00  0.00    +0.000 N 
ATOM      9  S   UNL     1       3.495   6.198  18.940  0.00  0.00    +0.000 S 
ATOM     10  C   UNL     1       3.301   4.723  19.792  0.00  0.00    +0.000 A 
ATOM     11  H   UNL     1       2.245   8.580  18.732  0.00  0.00    +0.000 HD
ENDROOT
BRANCH   8  12
ATOM     12  C   UNL     1       0.991   9.012  20.269  0.00  0.00    +0.000 A 
ATOM     13  C   UNL     1       0.059   9.902  19.725  0.00  0.00    +0.000 A 
ATOM     14  C   UNL     1      -0.738  10.707  20.547  0.00  0.00    +0.000 A 
ATOM     15  C   UNL     1      -0.598  10.666  21.937  0.00  0.00    +0.000 A 
ATOM     16  C   UNL     1       0.414   9.863  22.477  0.00  0.00    +0.000 A 
ATOM     17  C   UNL     1       1.194   9.048  21.654  0.00  0.00    +0.000 A 
BRANCH  15  18
ATOM     18  C   UNL     1      -1.470  11.503  22.842  0.00  0.00    +0.000 C 
BRANCH  18  19
ATOM     19  N   UNL     1      -1.025  12.853  23.199  0.00  0.00    +0.000 NA
ATOM     20  C   UNL     1      -1.982  13.728  23.885  0.00  0.00    +0.000 C 
ATOM     21  C   UNL     1      -2.811  14.642  22.963  0.00  0.00    +0.000 C 
ATOM     22  O   UNL     1      -1.990  15.362  22.034  0.00  0.00    +0.000 OA
ATOM     23  C   UNL     1      -1.182  14.466  21.262  0.00  0.00    +0.000 C 
ATOM     24  C   UNL     1      -0.298  13.595  22.163  0.00  0.00    +0.000 C 
ENDBRANCH  18  19
ENDBRANCH  15  18
ENDBRANCH   8  12
BRANCH   1  25
ATOM     25  N   UNL     1       4.864   3.270  18.616  0.00  0.00    +0.000 N 
ATOM     26  H   UNL     1       5.525   2.540  18.854  0.00  0.00    +0.000 HD
BRANCH  25  31
ATOM     27  C   UNL     1       6.712   6.163  17.127  0.00  0.00    +0.000 A 
ATOM     28  C   UNL     1       6.468   5.959  15.772  0.00  0.00    +0.000 A 
ATOM     29  C   UNL     1       5.653   4.900  15.374  0.00  0.00    +0.000 A 
ATOM     30  C   UNL     1       5.105   4.039  16.330  0.00  0.00    +0.000 A 
ATOM     31  C   UNL     1       5.378   4.208  17.696  0.00  0.00    +0.000 A 
ATOM     32  C   UNL     1       6.164   5.298  18.076  0.00  0.00    +0.000 A 
BRANCH  27  34
ATOM     33  C   UNL     1       8.169   8.205  17.912  0.00  0.00    +0.000 C 
ATOM     34  C   UNL     1       7.528   7.255  17.568  0.00  0.00    +0.000 C 
ENDBRANCH  27  34
ENDBRANCH  25  31
ENDBRANCH   1  25
TORSDOF 6
ENDMDL
