MODEL 1
REMARK VINA RESULT:      -8.8      0.000      0.000
REMARK  Name = 
REMARK  8 active torsions:
REMARK  status: ('A' for Active; 'I' for Inactive)
REMARK    1  A    between atoms: C_1  and  O_2
REMARK    2  A    between atoms: O_2  and  C_3
REMARK    3  A    between atoms: C_6  and  O_7
REMARK    4  A    between atoms: O_7  and  C_8
REMARK    5  A    between atoms: C_13  and  N_14
REMARK    6  A    between atoms: N_14  and  C_15
REMARK    7  A    between atoms: C_15  and  C_16
REMARK    8  A    between atoms: C_21  and  C_22
REMARK                            x       y       z     vdW  Elec       q    Type
REMARK                         _______ _______ _______ _____ _____    ______ ____
ROOT
ATOM      1  N   UNL     1       2.138   6.123  18.789  0.00  0.00    +0.000 N 
ATOM      2  H   UNL     1       2.114   6.600  17.877  0.00  0.00    +0.000 HD
ENDROOT
BRANCH   1   3
ATOM      3  C   UNL     1       1.877   6.942  19.895  0.00  0.00    +0.000 C 
ATOM      4  C   UNL     1       2.071   6.312  21.269  0.00  0.00    +0.000 C 
ATOM      5  C   UNL     1       1.581   8.269  19.777  0.00  0.00    +0.000 C 
ATOM      6  C   UNL     1       1.097   9.102  20.935  0.00  0.00    +0.000 C 
ATOM      7  O   UNL     1       1.141   8.715  22.103  0.00  0.00    +0.000 OA
ATOM      8  C   UNL     1       0.495  10.466  20.669  0.00  0.00    +0.000 C 
ATOM      9  C   UNL     1       0.474  10.962  19.222  0.00  0.00    +0.000 C 
ATOM     10  C   UNL     1       1.671  10.451  18.435  0.00  0.00    +0.000 C 
ATOM     11  C   UNL     1       1.735   8.947  18.444  0.00  0.00    +0.000 C 
ATOM     12  O   UNL     1       2.024   8.335  17.417  0.00  0.00    +0.000 OA
BRANCH   9  13
ATOM     13  C   UNL     1      -0.847  10.840  18.471  0.00  0.00    +0.000 A 
ATOM     14  C   UNL     1      -1.920  11.648  18.897  0.00  0.00    +0.000 A 
ATOM     15  C   UNL     1      -3.208  11.477  18.386  0.00  0.00    +0.000 A 
ATOM     16  C   UNL     1      -3.444  10.505  17.423  0.00  0.00    +0.000 A 
ATOM     17  C   UNL     1      -2.384   9.745  16.934  0.00  0.00    +0.000 A 
ATOM     18  C   UNL     1      -1.088   9.917  17.444  0.00  0.00    +0.000 A 
ENDBRANCH   9  13
ENDBRANCH   1   3
BRANCH   1  24
ATOM     19  C   UNL     1       3.548   4.108  18.803  0.00  0.00    +0.000 A 
ATOM     20  C   UNL     1       3.666   2.707  18.802  0.00  0.00    +0.000 A 
ATOM     21  C   UNL     1       2.540   1.899  18.692  0.00  0.00    +0.000 A 
ATOM     22  C   UNL     1       1.292   2.481  18.533  0.00  0.00    +0.000 A 
ATOM     23  C   UNL     1       1.173   3.874  18.512  0.00  0.00    +0.000 A 
ATOM     24  C   UNL     1       2.284   4.722  18.676  0.00  0.00    +0.000 A 
BRANCH  19  25
ATOM     25  O   UNL     1       4.750   4.783  18.736  0.00  0.00    +0.000 OA
BRANCH  25  29
ATOM     26  C   UNL     1       7.011   5.191  15.246  0.00  0.00    +0.000 A 
ATOM     27  C   UNL     1       5.678   5.621  15.240  0.00  0.00    +0.000 A 
ATOM     28  C   UNL     1       4.891   5.538  16.391  0.00  0.00    +0.000 A 
ATOM     29  C   UNL     1       5.415   4.974  17.549  0.00  0.00    +0.000 A 
ATOM     30  C   UNL     1       6.751   4.547  17.557  0.00  0.00    +0.000 A 
ATOM     31  C   UNL     1       7.549   4.654  16.410  0.00  0.00    +0.000 A 
BRANCH  26  33
ATOM     32  C   UNL     1       7.206   4.495  12.991  0.00  0.00    +0.000 C 
ATOM     33  O   UNL     1       7.669   5.323  14.051  0.00  0.00    +0.000 OA
ENDBRANCH  26  33
ENDBRANCH  25  29
ENDBRANCH  19  25
ENDBRANCH   1  24
TORSDOF 6
ENDMDL
MODEL 2
REMARK VINA RESULT:      -8.7      1.553      1.931
REMARK  Name = 
REMARK  8 active torsions:
REMARK  status: ('A' for Active; 'I' for Inactive)
REMARK    1  A    between atoms: C_1  and  O_2
REMARK    2  A    between atoms: O_2  and  C_3
REMARK    3  A    between atoms: C_6  and  O_7
REMARK    4  A    between atoms: O_7  and  C_8
REMARK    5  A    between atoms: C_13  and  N_14
REMARK    6  A    between atoms: N_14  and  C_15
REMARK    7  A    between atoms: C_15  and  C_16
REMARK    8  A    between atoms: C_21  and  C_22
REMARK                            x       y       z     vdW  Elec       q    Type
REMARK                         _______ _______ _______ _____ _____    ______ ____
ROOT
ATOM      1  N   UNL     1       2.322   6.106  18.387  0.00  0.00    +0.000 N 
ATOM      2  H   UNL     1       2.412   6.662  17.526  0.00  0.00    +0.000 HD
ENDROOT
BRANCH   1   3
ATOM      3  C   UNL     1       2.065   6.846  19.548  0.00  0.00    +0.000 C 
ATOM      4  C   UNL     1       2.293   6.132  20.874  0.00  0.00    +0.000 C 
ATOM      5  C   UNL     1       1.744   8.172  19.522  0.00  0.00    +0.000 C 
ATOM      6  C   UNL     1       1.264   8.919  20.739  0.00  0.00    +0.000 C 
ATOM      7  O   UNL     1       1.335   8.457  21.878  0.00  0.00    +0.000 OA
ATOM      8  C   UNL     1       0.633  10.286  20.572  0.00  0.00    +0.000 C 
ATOM      9  C   UNL     1       0.579  10.875  19.161  0.00  0.00    +0.000 C 
ATOM     10  C   UNL     1       1.772  10.439  18.324  0.00  0.00    +0.000 C 
ATOM     11  C   UNL     1       1.863   8.939  18.234  0.00  0.00    +0.000 C 
ATOM     12  O   UNL     1       2.145   8.400  17.164  0.00  0.00    +0.000 OA
BRANCH   9  13
ATOM     13  C   UNL     1      -0.752  10.776  18.424  0.00  0.00    +0.000 A 
ATOM     14  C   UNL     1      -1.803  11.608  18.858  0.00  0.00    +0.000 A 
ATOM     15  C   UNL     1      -3.100  11.462  18.362  0.00  0.00    +0.000 A 
ATOM     16  C   UNL     1      -3.367  10.491  17.405  0.00  0.00    +0.000 A 
ATOM     17  C   UNL     1      -2.328   9.707  16.909  0.00  0.00    +0.000 A 
ATOM     18  C   UNL     1      -1.023   9.855  17.404  0.00  0.00    +0.000 A 
ENDBRANCH   9  13
ENDBRANCH   1   3
BRANCH   1  24
ATOM     19  C   UNL     1       3.359   4.112  17.387  0.00  0.00    +0.000 A 
ATOM     20  C   UNL     1       3.423   2.715  17.251  0.00  0.00    +0.000 A 
ATOM     21  C   UNL     1       2.490   1.896  17.876  0.00  0.00    +0.000 A 
ATOM     22  C   UNL     1       1.456   2.466  18.602  0.00  0.00    +0.000 A 
ATOM     23  C   UNL     1       1.376   3.857  18.721  0.00  0.00    +0.000 A 
ATOM     24  C   UNL     1       2.333   4.714  18.148  0.00  0.00    +0.000 A 
BRANCH  19  25
ATOM     25  O   UNL     1       4.230   4.807  16.573  0.00  0.00    +0.000 OA
BRANCH  25  29
ATOM     26  C   UNL     1       7.481   6.850  18.224  0.00  0.00    +0.000 A 
ATOM     27  C   UNL     1       6.587   7.553  17.406  0.00  0.00    +0.000 A 
ATOM     28  C   UNL     1       5.467   6.924  16.859  0.00  0.00    +0.000 A 
ATOM     29  C   UNL     1       5.256   5.567  17.082  0.00  0.00    +0.000 A 
ATOM     30  C   UNL     1       6.148   4.864  17.904  0.00  0.00    +0.000 A 
ATOM     31  C   UNL     1       7.259   5.500  18.474  0.00  0.00    +0.000 A 
BRANCH  26  33
ATOM     32  C   UNL     1       8.548   8.961  18.337  0.00  0.00    +0.000 C 
ATOM     33  O   UNL     1       8.540   7.583  18.691  0.00  0.00    +0.000 OA
ENDBRANCH  26  33
ENDBRANCH  25  29
ENDBRANCH  19  25
ENDBRANCH   1  24
TORSDOF 6
ENDMDL
MODEL 3
REMARK VINA RESULT:      -8.7      1.569      4.141
REMARK  Name = 
REMARK  8 active torsions:
REMARK  status: ('A' for Active; 'I' for Inactive)
REMARK    1  A    between atoms: C_1  and  O_2
REMARK    2  A    between atoms: O_2  and  C_3
REMARK    3  A    between atoms: C_6  and  O_7
REMARK    4  A    between atoms: O_7  and  C_8
REMARK    5  A    between atoms: C_13  and  N_14
REMARK    6  A    between atoms: N_14  and  C_15
REMARK    7  A    between atoms: C_15  and  C_16
REMARK    8  A    between atoms: C_21  and  C_22
REMARK                            x       y       z     vdW  Elec       q    Type
REMARK                         _______ _______ _______ _____ _____    ______ ____
ROOT
ATOM      1  N   UNL     1       3.112   7.050  17.699  0.00  0.00    +0.000 N 
ATOM      2  H   UNL     1       2.470   7.036  16.895  0.00  0.00    +0.000 HD
ENDROOT
BRANCH   1   3
ATOM      3  C   UNL     1       2.509   7.317  18.935  0.00  0.00    +0.000 C 
ATOM      4  C   UNL     1       2.729   6.287  20.036  0.00  0.00    +0.000 C 
ATOM      5  C   UNL     1       1.857   8.486  19.201  0.00  0.00    +0.000 C 
ATOM      6  C   UNL     1       1.032   8.695  20.444  0.00  0.00    +0.000 C 
ATOM      7  O   UNL     1       1.062   7.925  21.404  0.00  0.00    +0.000 OA
ATOM      8  C   UNL     1       0.094   9.881  20.524  0.00  0.00    +0.000 C 
ATOM      9  C   UNL     1       0.085  10.858  19.347  0.00  0.00    +0.000 C 
ATOM     10  C   UNL     1       1.455  10.967  18.696  0.00  0.00    +0.000 C 
ATOM     11  C   UNL     1       1.949   9.625  18.225  0.00  0.00    +0.000 C 
ATOM     12  O   UNL     1       2.510   9.521  17.134  0.00  0.00    +0.000 OA
BRANCH   9  13
ATOM     13  C   UNL     1      -1.056  10.720  18.345  0.00  0.00    +0.000 A 
ATOM     14  C   UNL     1      -2.128  11.629  18.446  0.00  0.00    +0.000 A 
ATOM     15  C   UNL     1      -3.292  11.470  17.691  0.00  0.00    +0.000 A 
ATOM     16  C   UNL     1      -3.398  10.406  16.804  0.00  0.00    +0.000 A 
ATOM     17  C   UNL     1      -2.321   9.539  16.635  0.00  0.00    +0.000 A 
ATOM     18  C   UNL     1      -1.149   9.699  17.391  0.00  0.00    +0.000 A 
ENDBRANCH   9  13
ENDBRANCH   1   3
BRANCH   1  24
ATOM     19  C   UNL     1       4.657   5.474  16.615  0.00  0.00    +0.000 A 
ATOM     20  C   UNL     1       5.956   5.142  16.192  0.00  0.00    +0.000 A 
ATOM     21  C   UNL     1       7.034   5.968  16.491  0.00  0.00    +0.000 A 
ATOM     22  C   UNL     1       6.832   7.107  17.254  0.00  0.00    +0.000 A 
ATOM     23  C   UNL     1       5.545   7.429  17.695  0.00  0.00    +0.000 A 
ATOM     24  C   UNL     1       4.424   6.646  17.366  0.00  0.00    +0.000 A 
BRANCH  19  25
ATOM     25  O   UNL     1       3.718   4.484  16.409  0.00  0.00    +0.000 OA
BRANCH  25  29
ATOM     26  C   UNL     1       2.063   2.527  19.710  0.00  0.00    +0.000 A 
ATOM     27  C   UNL     1       1.206   3.157  18.799  0.00  0.00    +0.000 A 
ATOM     28  C   UNL     1       1.707   3.794  17.663  0.00  0.00    +0.000 A 
ATOM     29  C   UNL     1       3.081   3.854  17.451  0.00  0.00    +0.000 A 
ATOM     30  C   UNL     1       3.939   3.221  18.360  0.00  0.00    +0.000 A 
ATOM     31  C   UNL     1       3.435   2.559  19.488  0.00  0.00    +0.000 A 
BRANCH  26  33
ATOM     32  C   UNL     1       1.510   2.666  22.009  0.00  0.00    +0.000 C 
ATOM     33  O   UNL     1       1.443   1.945  20.784  0.00  0.00    +0.000 OA
ENDBRANCH  26  33
ENDBRANCH  25  29
ENDBRANCH  19  25
ENDBRANCH   1  24
TORSDOF 6
ENDMDL
MODEL 4
REMARK VINA RESULT:      -8.6      1.613      2.294
REMARK  Name = 
REMARK  8 active torsions:
REMARK  status: ('A' for Active; 'I' for Inactive)
REMARK    1  A    between atoms: C_1  and  O_2
REMARK    2  A    between atoms: O_2  and  C_3
REMARK    3  A    between atoms: C_6  and  O_7
REMARK    4  A    between atoms: O_7  and  C_8
REMARK    5  A    between atoms: C_13  and  N_14
REMARK    6  A    between atoms: N_14  and  C_15
REMARK    7  A    between atoms: C_15  and  C_16
REMARK    8  A    between atoms: C_21  and  C_22
REMARK                            x       y       z     vdW  Elec       q    Type
REMARK                         _______ _______ _______ _____ _____    ______ ____
ROOT
ATOM      1  N   UNL     1       2.310   6.236  18.442  0.00  0.00    +0.000 N 
ATOM      2  H   UNL     1       2.395   6.810  17.592  0.00  0.00    +0.000 HD
ENDROOT
BRANCH   1   3
ATOM      3  C   UNL     1       2.056   6.951  19.619  0.00  0.00    +0.000 C 
ATOM      4  C   UNL     1       2.348   6.231  20.930  0.00  0.00    +0.000 C 
ATOM      5  C   UNL     1       1.680   8.263  19.619  0.00  0.00    +0.000 C 
ATOM      6  C   UNL     1       1.204   8.975  20.858  0.00  0.00    +0.000 C 
ATOM      7  O   UNL     1       1.324   8.503  21.989  0.00  0.00    +0.000 OA
ATOM      8  C   UNL     1       0.514  10.317  20.727  0.00  0.00    +0.000 C 
ATOM      9  C   UNL     1       0.397  10.920  19.326  0.00  0.00    +0.000 C 
ATOM     10  C   UNL     1       1.584  10.543  18.451  0.00  0.00    +0.000 C 
ATOM     11  C   UNL     1       1.732   9.049  18.339  0.00  0.00    +0.000 C 
ATOM     12  O   UNL     1       2.007   8.535  17.255  0.00  0.00    +0.000 OA
BRANCH   9  13
ATOM     13  C   UNL     1      -0.948  10.776  18.624  0.00  0.00    +0.000 A 
ATOM     14  C   UNL     1      -1.020   9.903  17.520  0.00  0.00    +0.000 A 
ATOM     15  C   UNL     1      -2.157   9.843  16.712  0.00  0.00    +0.000 A 
ATOM     16  C   UNL     1      -3.254  10.642  17.004  0.00  0.00    +0.000 A 
ATOM     17  C   UNL     1      -3.232  11.458  18.133  0.00  0.00    +0.000 A 
ATOM     18  C   UNL     1      -2.091  11.518  18.949  0.00  0.00    +0.000 A 
ENDBRANCH   9  13
ENDBRANCH   1   3
BRANCH   1  24
ATOM     19  C   UNL     1       3.383   4.258  17.449  0.00  0.00    +0.000 A 
ATOM     20  C   UNL     1       3.447   2.863  17.286  0.00  0.00    +0.000 A 
ATOM     21  C   UNL     1       2.481   2.037  17.850  0.00  0.00    +0.000 A 
ATOM     22  C   UNL     1       1.418   2.598  18.539  0.00  0.00    +0.000 A 
ATOM     23  C   UNL     1       1.339   3.986  18.684  0.00  0.00    +0.000 A 
ATOM     24  C   UNL     1       2.326   4.849  18.175  0.00  0.00    +0.000 A 
BRANCH  19  25
ATOM     25  O   UNL     1       4.295   4.965  16.692  0.00  0.00    +0.000 OA
BRANCH  25  29
ATOM     26  C   UNL     1       7.579   7.047  18.221  0.00  0.00    +0.000 A 
ATOM     27  C   UNL     1       7.249   5.806  18.778  0.00  0.00    +0.000 A 
ATOM     28  C   UNL     1       6.182   5.055  18.280  0.00  0.00    +0.000 A 
ATOM     29  C   UNL     1       5.399   5.565  17.250  0.00  0.00    +0.000 A 
ATOM     30  C   UNL     1       5.731   6.805  16.689  0.00  0.00    +0.000 A 
ATOM     31  C   UNL     1       6.818   7.548  17.171  0.00  0.00    +0.000 A 
BRANCH  26  33
ATOM     32  C   UNL     1       8.700   9.093  18.634  0.00  0.00    +0.000 C 
ATOM     33  O   UNL     1       8.643   7.682  18.807  0.00  0.00    +0.000 OA
ENDBRANCH  26  33
ENDBRANCH  25  29
ENDBRANCH  19  25
ENDBRANCH   1  24
TORSDOF 6
ENDMDL
MODEL 5
REMARK VINA RESULT:      -8.4      0.533      1.008
REMARK  Name = 
REMARK  8 active torsions:
REMARK  status: ('A' for Active; 'I' for Inactive)
REMARK    1  A    between atoms: C_1  and  O_2
REMARK    2  A    between atoms: O_2  and  C_3
REMARK    3  A    between atoms: C_6  and  O_7
REMARK    4  A    between atoms: O_7  and  C_8
REMARK    5  A    between atoms: C_13  and  N_14
REMARK    6  A    between atoms: N_14  and  C_15
REMARK    7  A    between atoms: C_15  and  C_16
REMARK    8  A    between atoms: C_21  and  C_22
REMARK                            x       y       z     vdW  Elec       q    Type
REMARK                         _______ _______ _______ _____ _____    ______ ____
ROOT
ATOM      1  N   UNL     1       2.140   6.010  18.872  0.00  0.00    +0.000 N 
ATOM      2  H   UNL     1       2.141   6.476  17.954  0.00  0.00    +0.000 HD
ENDROOT
BRANCH   1   3
ATOM      3  C   UNL     1       1.936   6.856  19.969  0.00  0.00    +0.000 C 
ATOM      4  C   UNL     1       2.212   6.265  21.346  0.00  0.00    +0.000 C 
ATOM      5  C   UNL     1       1.622   8.177  19.833  0.00  0.00    +0.000 C 
ATOM      6  C   UNL     1       1.197   9.038  20.994  0.00  0.00    +0.000 C 
ATOM      7  O   UNL     1       1.310   8.683  22.167  0.00  0.00    +0.000 OA
ATOM      8  C   UNL     1       0.568  10.390  20.727  0.00  0.00    +0.000 C 
ATOM      9  C   UNL     1       0.461  10.847  19.271  0.00  0.00    +0.000 C 
ATOM     10  C   UNL     1       1.616  10.324  18.431  0.00  0.00    +0.000 C 
ATOM     11  C   UNL     1       1.694   8.821  18.476  0.00  0.00    +0.000 C 
ATOM     12  O   UNL     1       1.929   8.183  17.450  0.00  0.00    +0.000 OA
BRANCH   9  13
ATOM     13  C   UNL     1      -0.899  10.694  18.599  0.00  0.00    +0.000 A 
ATOM     14  C   UNL     1      -0.978   9.868  17.461  0.00  0.00    +0.000 A 
ATOM     15  C   UNL     1      -2.135   9.809  16.682  0.00  0.00    +0.000 A 
ATOM     16  C   UNL     1      -3.245  10.563  17.039  0.00  0.00    +0.000 A 
ATOM     17  C   UNL     1      -3.214  11.330  18.201  0.00  0.00    +0.000 A 
ATOM     18  C   UNL     1      -2.053  11.388  18.987  0.00  0.00    +0.000 A 
ENDBRANCH   9  13
ENDBRANCH   1   3
BRANCH   1  24
ATOM     19  C   UNL     1       3.414   3.908  18.970  0.00  0.00    +0.000 A 
ATOM     20  C   UNL     1       3.440   2.502  18.983  0.00  0.00    +0.000 A 
ATOM     21  C   UNL     1       2.271   1.768  18.822  0.00  0.00    +0.000 A 
ATOM     22  C   UNL     1       1.073   2.428  18.598  0.00  0.00    +0.000 A 
ATOM     23  C   UNL     1       1.046   3.825  18.561  0.00  0.00    +0.000 A 
ATOM     24  C   UNL     1       2.200   4.602  18.775  0.00  0.00    +0.000 A 
BRANCH  19  25
ATOM     25  O   UNL     1       4.658   4.503  18.958  0.00  0.00    +0.000 OA
BRANCH  25  29
ATOM     26  C   UNL     1       7.002   5.282  15.587  0.00  0.00    +0.000 A 
ATOM     27  C   UNL     1       5.987   4.322  15.496  0.00  0.00    +0.000 A 
ATOM     28  C   UNL     1       5.154   4.050  16.583  0.00  0.00    +0.000 A 
ATOM     29  C   UNL     1       5.363   4.701  17.795  0.00  0.00    +0.000 A 
ATOM     30  C   UNL     1       6.376   5.665  17.886  0.00  0.00    +0.000 A 
ATOM     31  C   UNL     1       7.196   5.957  16.788  0.00  0.00    +0.000 A 
BRANCH  26  33
ATOM     32  C   UNL     1       7.262   4.794  13.285  0.00  0.00    +0.000 C 
ATOM     33  O   UNL     1       7.749   5.447  14.451  0.00  0.00    +0.000 OA
ENDBRANCH  26  33
ENDBRANCH  25  29
ENDBRANCH  19  25
ENDBRANCH   1  24
TORSDOF 6
ENDMDL
MODEL 6
REMARK VINA RESULT:      -8.4      1.143      1.248
REMARK  Name = 
REMARK  8 active torsions:
REMARK  status: ('A' for Active; 'I' for Inactive)
REMARK    1  A    between atoms: C_1  and  O_2
REMARK    2  A    between atoms: O_2  and  C_3
REMARK    3  A    between atoms: C_6  and  O_7
REMARK    4  A    between atoms: O_7  and  C_8
REMARK    5  A    between atoms: C_13  and  N_14
REMARK    6  A    between atoms: N_14  and  C_15
REMARK    7  A    between atoms: C_15  and  C_16
REMARK    8  A    between atoms: C_21  and  C_22
REMARK                            x       y       z     vdW  Elec       q    Type
REMARK                         _______ _______ _______ _____ _____    ______ ____
ROOT
ATOM      1  N   UNL     1       2.075   7.240  19.609  0.00  0.00    +0.000 N 
ATOM      2  H   UNL     1       2.235   7.562  18.645  0.00  0.00    +0.000 HD
ENDROOT
BRANCH   1   3
ATOM      3  C   UNL     1       1.651   8.231  20.504  0.00  0.00    +0.000 C 
ATOM      4  C   UNL     1       1.883   7.955  21.985  0.00  0.00    +0.000 C 
ATOM      5  C   UNL     1       1.165   9.438  20.093  0.00  0.00    +0.000 C 
ATOM      6  C   UNL     1       0.516  10.419  21.033  0.00  0.00    +0.000 C 
ATOM      7  O   UNL     1       0.572  10.308  22.258  0.00  0.00    +0.000 OA
ATOM      8  C   UNL     1      -0.273  11.582  20.468  0.00  0.00    +0.000 C 
ATOM      9  C   UNL     1      -0.311  11.739  18.947  0.00  0.00    +0.000 C 
ATOM     10  C   UNL     1       0.979  11.260  18.299  0.00  0.00    +0.000 C 
ATOM     11  C   UNL     1       1.267   9.823  18.643  0.00  0.00    +0.000 C 
ATOM     12  O   UNL     1       1.684   9.052  17.779  0.00  0.00    +0.000 OA
BRANCH   9  13
ATOM     13  C   UNL     1      -1.568  11.252  18.235  0.00  0.00    +0.000 A 
ATOM     14  C   UNL     1      -2.795  11.845  18.594  0.00  0.00    +0.000 A 
ATOM     15  C   UNL     1      -4.011  11.343  18.127  0.00  0.00    +0.000 A 
ATOM     16  C   UNL     1      -4.022  10.248  17.273  0.00  0.00    +0.000 A 
ATOM     17  C   UNL     1      -2.818   9.693  16.847  0.00  0.00    +0.000 A 
ATOM     18  C   UNL     1      -1.594  10.197  17.313  0.00  0.00    +0.000 A 
ENDBRANCH   9  13
ENDBRANCH   1   3
BRANCH   1  24
ATOM     19  C   UNL     1       3.445   5.205  19.790  0.00  0.00    +0.000 A 
ATOM     20  C   UNL     1       3.544   3.825  20.042  0.00  0.00    +0.000 A 
ATOM     21  C   UNL     1       2.406   3.061  20.271  0.00  0.00    +0.000 A 
ATOM     22  C   UNL     1       1.156   3.656  20.203  0.00  0.00    +0.000 A 
ATOM     23  C   UNL     1       1.052   5.023  19.931  0.00  0.00    +0.000 A 
ATOM     24  C   UNL     1       2.183   5.838  19.748  0.00  0.00    +0.000 A 
BRANCH  19  25
ATOM     25  O   UNL     1       4.626   5.803  19.403  0.00  0.00    +0.000 OA
BRANCH  25  29
ATOM     26  C   UNL     1       6.532   4.975  15.777  0.00  0.00    +0.000 A 
ATOM     27  C   UNL     1       5.294   5.629  15.755  0.00  0.00    +0.000 A 
ATOM     28  C   UNL     1       4.633   5.959  16.940  0.00  0.00    +0.000 A 
ATOM     29  C   UNL     1       5.181   5.589  18.164  0.00  0.00    +0.000 A 
ATOM     30  C   UNL     1       6.423   4.939  18.188  0.00  0.00    +0.000 A 
ATOM     31  C   UNL     1       7.098   4.630  16.999  0.00  0.00    +0.000 A 
BRANCH  26  33
ATOM     32  C   UNL     1       6.268   3.912  13.678  0.00  0.00    +0.000 C 
ATOM     33  O   UNL     1       7.068   4.705  14.546  0.00  0.00    +0.000 OA
ENDBRANCH  26  33
ENDBRANCH  25  29
ENDBRANCH  19  25
ENDBRANCH   1  24
TORSDOF 6
ENDMDL
MODEL 7
REMARK VINA RESULT:      -8.3      1.156      1.760
REMARK  Name = 
REMARK  8 active torsions:
REMARK  status: ('A' for Active; 'I' for Inactive)
REMARK    1  A    between atoms: C_1  and  O_2
REMARK    2  A    between atoms: O_2  and  C_3
REMARK    3  A    between atoms: C_6  and  O_7
REMARK    4  A    between atoms: O_7  and  C_8
REMARK    5  A    between atoms: C_13  and  N_14
REMARK    6  A    between atoms: N_14  and  C_15
REMARK    7  A    between atoms: C_15  and  C_16
REMARK    8  A    between atoms: C_21  and  C_22
REMARK                            x       y       z     vdW  Elec       q    Type
REMARK                         _______ _______ _______ _____ _____    ______ ____
ROOT
ATOM      1  N   UNL     1       2.057   7.283  19.594  0.00  0.00    +0.000 N 
ATOM      2  H   UNL     1       2.225   7.611  18.633  0.00  0.00    +0.000 HD
ENDROOT
BRANCH   1   3
ATOM      3  C   UNL     1       1.597   8.261  20.485  0.00  0.00    +0.000 C 
ATOM      4  C   UNL     1       1.842   8.003  21.966  0.00  0.00    +0.000 C 
ATOM      5  C   UNL     1       1.063   9.446  20.068  0.00  0.00    +0.000 C 
ATOM      6  C   UNL     1       0.379  10.407  21.005  0.00  0.00    +0.000 C 
ATOM      7  O   UNL     1       0.442  10.305  22.230  0.00  0.00    +0.000 OA
ATOM      8  C   UNL     1      -0.455  11.535  20.435  0.00  0.00    +0.000 C 
ATOM      9  C   UNL     1      -0.503  11.683  18.913  0.00  0.00    +0.000 C 
ATOM     10  C   UNL     1       0.804  11.251  18.266  0.00  0.00    +0.000 C 
ATOM     11  C   UNL     1       1.148   9.828  18.616  0.00  0.00    +0.000 C 
ATOM     12  O   UNL     1       1.593   9.069  17.755  0.00  0.00    +0.000 OA
BRANCH   9  13
ATOM     13  C   UNL     1      -1.741  11.144  18.207  0.00  0.00    +0.000 A 
ATOM     14  C   UNL     1      -1.546  10.266  17.122  0.00  0.00    +0.000 A 
ATOM     15  C   UNL     1      -2.607   9.865  16.309  0.00  0.00    +0.000 A 
ATOM     16  C   UNL     1      -3.892  10.320  16.578  0.00  0.00    +0.000 A 
ATOM     17  C   UNL     1      -4.119  11.129  17.689  0.00  0.00    +0.000 A 
ATOM     18  C   UNL     1      -3.054  11.531  18.510  0.00  0.00    +0.000 A 
ENDBRANCH   9  13
ENDBRANCH   1   3
BRANCH   1  24
ATOM     19  C   UNL     1       3.467   5.280  19.812  0.00  0.00    +0.000 A 
ATOM     20  C   UNL     1       3.591   3.901  20.062  0.00  0.00    +0.000 A 
ATOM     21  C   UNL     1       2.464   3.109  20.250  0.00  0.00    +0.000 A 
ATOM     22  C   UNL     1       1.203   3.675  20.143  0.00  0.00    +0.000 A 
ATOM     23  C   UNL     1       1.076   5.041  19.872  0.00  0.00    +0.000 A 
ATOM     24  C   UNL     1       2.194   5.883  19.731  0.00  0.00    +0.000 A 
BRANCH  19  25
ATOM     25  O   UNL     1       4.647   5.907  19.467  0.00  0.00    +0.000 OA
BRANCH  25  29
ATOM     26  C   UNL     1       6.588   5.050  15.868  0.00  0.00    +0.000 A 
ATOM     27  C   UNL     1       7.191   4.657  17.069  0.00  0.00    +0.000 A 
ATOM     28  C   UNL     1       6.566   4.889  18.297  0.00  0.00    +0.000 A 
ATOM     29  C   UNL     1       5.352   5.567  18.338  0.00  0.00    +0.000 A 
ATOM     30  C   UNL     1       4.746   5.956  17.135  0.00  0.00    +0.000 A 
ATOM     31  C   UNL     1       5.360   5.701  15.902  0.00  0.00    +0.000 A 
BRANCH  26  33
ATOM     32  C   UNL     1       6.595   4.127  13.687  0.00  0.00    +0.000 C 
ATOM     33  O   UNL     1       7.309   4.767  14.737  0.00  0.00    +0.000 OA
ENDBRANCH  26  33
ENDBRANCH  25  29
ENDBRANCH  19  25
ENDBRANCH   1  24
TORSDOF 6
ENDMDL
MODEL 8
REMARK VINA RESULT:      -8.3      2.314      8.418
REMARK  Name = 
REMARK  8 active torsions:
REMARK  status: ('A' for Active; 'I' for Inactive)
REMARK    1  A    between atoms: C_1  and  O_2
REMARK    2  A    between atoms: O_2  and  C_3
REMARK    3  A    between atoms: C_6  and  O_7
REMARK    4  A    between atoms: O_7  and  C_8
REMARK    5  A    between atoms: C_13  and  N_14
REMARK    6  A    between atoms: N_14  and  C_15
REMARK    7  A    between atoms: C_15  and  C_16
REMARK    8  A    between atoms: C_21  and  C_22
REMARK                            x       y       z     vdW  Elec       q    Type
REMARK                         _______ _______ _______ _____ _____    ______ ____
ROOT
ATOM      1  N   UNL     1       1.669   8.370  20.042  0.00  0.00    +0.000 N 
ATOM      2  H   UNL     1       2.123   8.944  19.319  0.00  0.00    +0.000 HD
ENDROOT
BRANCH   1   3
ATOM      3  C   UNL     1       1.966   7.002  19.988  0.00  0.00    +0.000 C 
ATOM      4  C   UNL     1       1.214   6.103  20.961  0.00  0.00    +0.000 C 
ATOM      5  C   UNL     1       2.790   6.463  19.043  0.00  0.00    +0.000 C 
ATOM      6  C   UNL     1       3.278   5.039  19.103  0.00  0.00    +0.000 C 
ATOM      7  O   UNL     1       2.805   4.202  19.872  0.00  0.00    +0.000 OA
ATOM      8  C   UNL     1       4.423   4.607  18.211  0.00  0.00    +0.000 C 
ATOM      9  C   UNL     1       4.986   5.637  17.231  0.00  0.00    +0.000 C 
ATOM     10  C   UNL     1       3.909   6.593  16.740  0.00  0.00    +0.000 C 
ATOM     11  C   UNL     1       3.245   7.309  17.886  0.00  0.00    +0.000 C 
ATOM     12  O   UNL     1       2.988   8.509  17.800  0.00  0.00    +0.000 OA
BRANCH   9  13
ATOM     13  C   UNL     1       6.283   6.332  17.630  0.00  0.00    +0.000 A 
ATOM     14  C   UNL     1       7.059   5.735  18.643  0.00  0.00    +0.000 A 
ATOM     15  C   UNL     1       8.164   6.388  19.194  0.00  0.00    +0.000 A 
ATOM     16  C   UNL     1       8.525   7.645  18.727  0.00  0.00    +0.000 A 
ATOM     17  C   UNL     1       7.816   8.221  17.676  0.00  0.00    +0.000 A 
ATOM     18  C   UNL     1       6.707   7.565  17.118  0.00  0.00    +0.000 A 
ENDBRANCH   9  13
ENDBRANCH   1   3
BRANCH   1  24
ATOM     19  C   UNL     1       0.158  10.224  20.615  0.00  0.00    +0.000 A 
ATOM     20  C   UNL     1      -0.618  10.911  21.566  0.00  0.00    +0.000 A 
ATOM     21  C   UNL     1      -0.611  10.524  22.901  0.00  0.00    +0.000 A 
ATOM     22  C   UNL     1       0.206   9.481  23.308  0.00  0.00    +0.000 A 
ATOM     23  C   UNL     1       0.996   8.811  22.370  0.00  0.00    +0.000 A 
ATOM     24  C   UNL     1       0.973   9.138  21.002  0.00  0.00    +0.000 A 
BRANCH  19  25
ATOM     25  O   UNL     1       0.199  10.820  19.371  0.00  0.00    +0.000 OA
BRANCH  25  29
ATOM     26  C   UNL     1      -3.047  10.770  16.740  0.00  0.00    +0.000 A 
ATOM     27  C   UNL     1      -2.070   9.774  16.625  0.00  0.00    +0.000 A 
ATOM     28  C   UNL     1      -0.984   9.727  17.501  0.00  0.00    +0.000 A 
ATOM     29  C   UNL     1      -0.836  10.710  18.474  0.00  0.00    +0.000 A 
ATOM     30  C   UNL     1      -1.817  11.705  18.593  0.00  0.00    +0.000 A 
ATOM     31  C   UNL     1      -2.920  11.738  17.730  0.00  0.00    +0.000 A 
BRANCH  26  33
ATOM     32  C   UNL     1      -3.697  10.184  14.540  0.00  0.00    +0.000 C 
ATOM     33  O   UNL     1      -4.055  10.704  15.814  0.00  0.00    +0.000 OA
ENDBRANCH  26  33
ENDBRANCH  25  29
ENDBRANCH  19  25
ENDBRANCH   1  24
TORSDOF 6
ENDMDL
MODEL 9
REMARK VINA RESULT:      -8.2      3.306      8.586
REMARK  Name = 
REMARK  8 active torsions:
REMARK  status: ('A' for Active; 'I' for Inactive)
REMARK    1  A    between atoms: C_1  and  O_2
REMARK    2  A    between atoms: O_2  and  C_3
REMARK    3  A    between atoms: C_6  and  O_7
REMARK    4  A    between atoms: O_7  and  C_8
REMARK    5  A    between atoms: C_13  and  N_14
REMARK    6  A    between atoms: N_14  and  C_15
REMARK    7  A    between atoms: C_15  and  C_16
REMARK    8  A    between atoms: C_21  and  C_22
REMARK                            x       y       z     vdW  Elec       q    Type
REMARK                         _______ _______ _______ _____ _____    ______ ____
ROOT
ATOM      1  N   UNL     1       1.598   9.607  19.333  0.00  0.00    +0.000 N 
ATOM      2  H   UNL     1       2.504  10.087  19.242  0.00  0.00    +0.000 HD
ENDROOT
BRANCH   1   3
ATOM      3  C   UNL     1       1.651   8.349  19.946  0.00  0.00    +0.000 C 
ATOM      4  C   UNL     1       0.867   8.190  21.243  0.00  0.00    +0.000 C 
ATOM      5  C   UNL     1       2.266   7.274  19.373  0.00  0.00    +0.000 C 
ATOM      6  C   UNL     1       2.509   5.983  20.111  0.00  0.00    +0.000 C 
ATOM      7  O   UNL     1       1.985   5.724  21.195  0.00  0.00    +0.000 OA
ATOM      8  C   UNL     1       3.461   4.961  19.528  0.00  0.00    +0.000 C 
ATOM      9  C   UNL     1       4.082   5.267  18.164  0.00  0.00    +0.000 C 
ATOM     10  C   UNL     1       3.137   6.071  17.284  0.00  0.00    +0.000 C 
ATOM     11  C   UNL     1       2.731   7.360  17.946  0.00  0.00    +0.000 C 
ATOM     12  O   UNL     1       2.673   8.400  17.290  0.00  0.00    +0.000 OA
BRANCH   9  13
ATOM     13  C   UNL     1       5.513   5.792  18.160  0.00  0.00    +0.000 A 
ATOM     14  C   UNL     1       6.386   5.319  19.161  0.00  0.00    +0.000 A 
ATOM     15  C   UNL     1       7.654   5.874  19.343  0.00  0.00    +0.000 A 
ATOM     16  C   UNL     1       8.083   6.902  18.512  0.00  0.00    +0.000 A 
ATOM     17  C   UNL     1       7.265   7.333  17.470  0.00  0.00    +0.000 A 
ATOM     18  C   UNL     1       5.991   6.775  17.284  0.00  0.00    +0.000 A 
ENDBRANCH   9  13
ENDBRANCH   1   3
BRANCH   1  24
ATOM     19  C   UNL     1       0.499  11.804  19.199  0.00  0.00    +0.000 A 
ATOM     20  C   UNL     1      -0.540  12.615  18.711  0.00  0.00    +0.000 A 
ATOM     21  C   UNL     1      -1.573  12.069  17.958  0.00  0.00    +0.000 A 
ATOM     22  C   UNL     1      -1.604  10.703  17.725  0.00  0.00    +0.000 A 
ATOM     23  C   UNL     1      -0.584   9.890  18.228  0.00  0.00    +0.000 A 
ATOM     24  C   UNL     1       0.505  10.414  18.947  0.00  0.00    +0.000 A 
BRANCH  19  25
ATOM     25  O   UNL     1       1.355  12.437  20.077  0.00  0.00    +0.000 OA
BRANCH  25  29
ATOM     26  C   UNL     1       3.560  15.736  18.766  0.00  0.00    +0.000 A 
ATOM     27  C   UNL     1       2.697  15.892  19.859  0.00  0.00    +0.000 A 
ATOM     28  C   UNL     1       1.965  14.812  20.356  0.00  0.00    +0.000 A 
ATOM     29  C   UNL     1       2.048  13.572  19.731  0.00  0.00    +0.000 A 
ATOM     30  C   UNL     1       2.915  13.414  18.640  0.00  0.00    +0.000 A 
ATOM     31  C   UNL     1       3.669  14.491  18.157  0.00  0.00    +0.000 A 
BRANCH  26  33
ATOM     32  C   UNL     1       5.528  17.047  18.892  0.00  0.00    +0.000 C 
ATOM     33  O   UNL     1       4.213  16.875  18.376  0.00  0.00    +0.000 OA
ENDBRANCH  26  33
ENDBRANCH  25  29
ENDBRANCH  19  25
ENDBRANCH   1  24
TORSDOF 6
ENDMDL
