MODEL 1
REMARK VINA RESULT:      -6.8      0.000      0.000
REMARK  Name = 
REMARK  3 active torsions:
REMARK  status: ('A' for Active; 'I' for Inactive)
REMARK    1  A    between atoms: C_2  and  C_3
REMARK    2  A    between atoms: N_14  and  C_15
REMARK    3  A    between atoms: C_15  and  C_16
REMARK                            x       y       z     vdW  Elec       q    Type
REMARK                         _______ _______ _______ _____ _____    ______ ____
ROOT
ATOM      1  O   UNL     1       2.572   9.716  17.318  0.00  0.00    +0.000 OA
ATOM      2  C   UNL     1       1.901   9.168  18.200  0.00  0.00    +0.000 C 
ATOM      3  N   UNL     1       2.254   7.912  18.674  0.00  0.00    +0.000 N 
ATOM      4  C   UNL     1       1.663   7.223  19.805  0.00  0.00    +0.000 C 
ATOM      5  C   UNL     1       2.675   6.153  20.175  0.00  0.00    +0.000 C 
ATOM      6  C   UNL     1       2.081   5.009  20.979  0.00  0.00    +0.000 C 
ATOM      7  C   UNL     1       1.170   4.150  20.117  0.00  0.00    +0.000 C 
ATOM      8  C   UNL     1       1.926   3.648  18.892  0.00  0.00    +0.000 C 
ATOM      9  N   UNL     1       2.523   4.713  18.077  0.00  0.00    +0.000 NA
ATOM     10  C   UNL     1       3.283   5.742  18.822  0.00  0.00    +0.000 C 
ATOM     11  C   UNL     1       3.305   7.106  18.069  0.00  0.00    +0.000 C 
ENDROOT
BRANCH   2  12
ATOM     12  C   UNL     1       0.756   9.826  18.814  0.00  0.00    +0.000 A 
ATOM     13  C   UNL     1      -0.517  10.087  18.339  0.00  0.00    +0.000 A 
ATOM     14  C   UNL     1      -1.202  10.806  19.352  0.00  0.00    +0.000 A 
ATOM     15  C   UNL     1      -0.328  10.903  20.407  0.00  0.00    +0.000 A 
ATOM     16  O   UNL     1       0.841  10.294  20.105  0.00  0.00    +0.000 OA
ENDBRANCH   2  12
BRANCH   9  17
ATOM     17  C   UNL     1       3.325   4.128  16.964  0.00  0.00    +0.000 C 
BRANCH  17  18
ATOM     18  C   UNL     1       4.809   4.470  16.948  0.00  0.00    +0.000 A 
ATOM     19  N   UNL     1       5.667   4.165  17.904  0.00  0.00    +0.000 NA
ATOM     20  C   UNL     1       6.930   4.611  17.575  0.00  0.00    +0.000 A 
ATOM     21  C   UNL     1       7.024   5.286  16.379  0.00  0.00    +0.000 A 
ATOM     22  S   UNL     1       5.489   5.340  15.621  0.00  0.00    +0.000 S 
ENDBRANCH  17  18
ENDBRANCH   9  17
TORSDOF 3
ENDMDL
MODEL 2
REMARK VINA RESULT:      -6.3      1.293      1.396
REMARK  Name = 
REMARK  3 active torsions:
REMARK  status: ('A' for Active; 'I' for Inactive)
REMARK    1  A    between atoms: C_2  and  C_3
REMARK    2  A    between atoms: N_14  and  C_15
REMARK    3  A    between atoms: C_15  and  C_16
REMARK                            x       y       z     vdW  Elec       q    Type
REMARK                         _______ _______ _______ _____ _____    ______ ____
ROOT
ATOM      1  O   UNL     1       2.392  10.390  17.383  0.00  0.00    +0.000 OA
ATOM      2  C   UNL     1       1.639   9.653  18.030  0.00  0.00    +0.000 C 
ATOM      3  N   UNL     1       2.087   8.428  18.503  0.00  0.00    +0.000 N 
ATOM      4  C   UNL     1       1.375   7.541  19.401  0.00  0.00    +0.000 C 
ATOM      5  C   UNL     1       2.443   6.614  19.955  0.00  0.00    +0.000 C 
ATOM      6  C   UNL     1       1.888   5.313  20.510  0.00  0.00    +0.000 C 
ATOM      7  C   UNL     1       1.385   4.412  19.394  0.00  0.00    +0.000 C 
ATOM      8  C   UNL     1       2.492   4.166  18.375  0.00  0.00    +0.000 C 
ATOM      9  N   UNL     1       3.066   5.392  17.806  0.00  0.00    +0.000 NA
ATOM     10  C   UNL     1       3.424   6.446  18.781  0.00  0.00    +0.000 C 
ATOM     11  C   UNL     1       3.381   7.867  18.141  0.00  0.00    +0.000 C 
ENDROOT
BRANCH   2  12
ATOM     12  C   UNL     1       0.279  10.052  18.368  0.00  0.00    +0.000 A 
ATOM     13  C   UNL     1      -0.923   9.870  17.707  0.00  0.00    +0.000 A 
ATOM     14  C   UNL     1      -1.925  10.518  18.474  0.00  0.00    +0.000 A 
ATOM     15  C   UNL     1      -1.289  11.019  19.583  0.00  0.00    +0.000 A 
ATOM     16  O   UNL     1       0.030  10.721  19.543  0.00  0.00    +0.000 OA
ENDBRANCH   2  12
BRANCH   9  17
ATOM     17  C   UNL     1       4.206   5.061  16.903  0.00  0.00    +0.000 C 
BRANCH  17  18
ATOM     18  C   UNL     1       5.566   5.621  17.297  0.00  0.00    +0.000 A 
ATOM     19  N   UNL     1       6.210   6.574  16.649  0.00  0.00    +0.000 NA
ATOM     20  C   UNL     1       7.408   6.854  17.272  0.00  0.00    +0.000 A 
ATOM     21  C   UNL     1       7.690   6.086  18.379  0.00  0.00    +0.000 A 
ATOM     22  S   UNL     1       6.400   4.998  18.674  0.00  0.00    +0.000 S 
ENDBRANCH  17  18
ENDBRANCH   9  17
TORSDOF 3
ENDMDL
MODEL 3
REMARK VINA RESULT:      -6.3      3.526      5.423
REMARK  Name = 
REMARK  3 active torsions:
REMARK  status: ('A' for Active; 'I' for Inactive)
REMARK    1  A    between atoms: C_2  and  C_3
REMARK    2  A    between atoms: N_14  and  C_15
REMARK    3  A    between atoms: C_15  and  C_16
REMARK                            x       y       z     vdW  Elec       q    Type
REMARK                         _______ _______ _______ _____ _____    ______ ____
ROOT
ATOM      1  O   UNL     1       1.417   5.389  18.105  0.00  0.00    +0.000 OA
ATOM      2  C   UNL     1       2.376   4.906  18.716  0.00  0.00    +0.000 C 
ATOM      3  N   UNL     1       3.672   5.310  18.425  0.00  0.00    +0.000 N 
ATOM      4  C   UNL     1       4.869   4.955  19.161  0.00  0.00    +0.000 C 
ATOM      5  C   UNL     1       5.902   5.986  18.740  0.00  0.00    +0.000 C 
ATOM      6  C   UNL     1       7.335   5.541  18.975  0.00  0.00    +0.000 C 
ATOM      7  C   UNL     1       7.731   4.438  18.008  0.00  0.00    +0.000 C 
ATOM      8  C   UNL     1       7.510   4.894  16.570  0.00  0.00    +0.000 C 
ATOM      9  N   UNL     1       6.139   5.337  16.286  0.00  0.00    +0.000 NA
ATOM     10  C   UNL     1       5.550   6.274  17.269  0.00  0.00    +0.000 C 
ATOM     11  C   UNL     1       3.995   6.179  17.301  0.00  0.00    +0.000 C 
ENDROOT
BRANCH   2  12
ATOM     12  C   UNL     1       2.195   3.943  19.794  0.00  0.00    +0.000 A 
ATOM     13  C   UNL     1       1.834   4.105  21.119  0.00  0.00    +0.000 A 
ATOM     14  C   UNL     1       1.868   2.821  21.723  0.00  0.00    +0.000 A 
ATOM     15  C   UNL     1       2.202   1.941  20.722  0.00  0.00    +0.000 A 
ATOM     16  O   UNL     1       2.374   2.600  19.555  0.00  0.00    +0.000 OA
ENDBRANCH   2  12
BRANCH   9  17
ATOM     17  C   UNL     1       6.040   5.860  14.892  0.00  0.00    +0.000 C 
BRANCH  17  18
ATOM     18  C   UNL     1       6.254   4.848  13.775  0.00  0.00    +0.000 A 
ATOM     19  N   UNL     1       5.450   3.835  13.506  0.00  0.00    +0.000 NA
ATOM     20  C   UNL     1       5.926   3.118  12.428  0.00  0.00    +0.000 A 
ATOM     21  C   UNL     1       7.113   3.568  11.898  0.00  0.00    +0.000 A 
ATOM     22  S   UNL     1       7.641   4.957  12.753  0.00  0.00    +0.000 S 
ENDBRANCH  17  18
ENDBRANCH   9  17
TORSDOF 3
ENDMDL
MODEL 4
REMARK VINA RESULT:      -6.3      5.015      9.150
REMARK  Name = 
REMARK  3 active torsions:
REMARK  status: ('A' for Active; 'I' for Inactive)
REMARK    1  A    between atoms: C_2  and  C_3
REMARK    2  A    between atoms: N_14  and  C_15
REMARK    3  A    between atoms: C_15  and  C_16
REMARK                            x       y       z     vdW  Elec       q    Type
REMARK                         _______ _______ _______ _____ _____    ______ ____
ROOT
ATOM      1  O   UNL     1       1.218  11.130  21.578  0.00  0.00    +0.000 OA
ATOM      2  C   UNL     1       0.700  10.423  20.707  0.00  0.00    +0.000 C 
ATOM      3  N   UNL     1      -0.282  10.939  19.873  0.00  0.00    +0.000 N 
ATOM      4  C   UNL     1      -0.858  10.284  18.715  0.00  0.00    +0.000 C 
ATOM      5  C   UNL     1      -1.505  11.405  17.920  0.00  0.00    +0.000 C 
ATOM      6  C   UNL     1      -2.576  10.925  16.956  0.00  0.00    +0.000 C 
ATOM      7  C   UNL     1      -3.814  10.456  17.704  0.00  0.00    +0.000 C 
ATOM      8  C   UNL     1      -4.328  11.563  18.617  0.00  0.00    +0.000 C 
ATOM      9  N   UNL     1      -3.332  12.067  19.569  0.00  0.00    +0.000 NA
ATOM     10  C   UNL     1      -2.001  12.380  19.002  0.00  0.00    +0.000 C 
ATOM     11  C   UNL     1      -0.872  12.257  20.068  0.00  0.00    +0.000 C 
ENDROOT
BRANCH   2  12
ATOM     12  C   UNL     1       1.126   9.049  20.480  0.00  0.00    +0.000 A 
ATOM     13  C   UNL     1       0.936   7.895  21.219  0.00  0.00    +0.000 A 
ATOM     14  C   UNL     1       1.621   6.849  20.547  0.00  0.00    +0.000 A 
ATOM     15  C   UNL     1       2.150   7.412  19.411  0.00  0.00    +0.000 A 
ATOM     16  O   UNL     1       1.836   8.725  19.347  0.00  0.00    +0.000 OA
ENDBRANCH   2  12
BRANCH   9  17
ATOM     17  C   UNL     1      -3.888  13.212  20.347  0.00  0.00    +0.000 C 
BRANCH  17  18
ATOM     18  C   UNL     1      -4.104  12.976  21.836  0.00  0.00    +0.000 A 
ATOM     19  N   UNL     1      -3.231  12.407  22.648  0.00  0.00    +0.000 NA
ATOM     20  C   UNL     1      -3.733  12.354  23.931  0.00  0.00    +0.000 A 
ATOM     21  C   UNL     1      -5.006  12.854  24.087  0.00  0.00    +0.000 A 
ATOM     22  S   UNL     1      -5.587  13.442  22.586  0.00  0.00    +0.000 S 
ENDBRANCH  17  18
ENDBRANCH   9  17
TORSDOF 3
ENDMDL
MODEL 5
REMARK VINA RESULT:      -6.3      0.974      1.200
REMARK  Name = 
REMARK  3 active torsions:
REMARK  status: ('A' for Active; 'I' for Inactive)
REMARK    1  A    between atoms: C_2  and  C_3
REMARK    2  A    between atoms: N_14  and  C_15
REMARK    3  A    between atoms: C_15  and  C_16
REMARK                            x       y       z     vdW  Elec       q    Type
REMARK                         _______ _______ _______ _____ _____    ______ ____
ROOT
ATOM      1  O   UNL     1       2.659   9.659  17.440  0.00  0.00    +0.000 OA
ATOM      2  C   UNL     1       2.004   9.076  18.310  0.00  0.00    +0.000 C 
ATOM      3  N   UNL     1       2.349   7.792  18.709  0.00  0.00    +0.000 N 
ATOM      4  C   UNL     1       1.778   7.054  19.820  0.00  0.00    +0.000 C 
ATOM      5  C   UNL     1       2.783   5.952  20.107  0.00  0.00    +0.000 C 
ATOM      6  C   UNL     1       2.192   4.776  20.867  0.00  0.00    +0.000 C 
ATOM      7  C   UNL     1       1.246   3.976  19.988  0.00  0.00    +0.000 C 
ATOM      8  C   UNL     1       1.960   3.527  18.718  0.00  0.00    +0.000 C 
ATOM      9  N   UNL     1       2.552   4.624  17.943  0.00  0.00    +0.000 NA
ATOM     10  C   UNL     1       3.347   5.602  18.718  0.00  0.00    +0.000 C 
ATOM     11  C   UNL     1       3.371   7.003  18.035  0.00  0.00    +0.000 C 
ENDROOT
BRANCH   2  12
ATOM     12  C   UNL     1       0.886   9.717  18.989  0.00  0.00    +0.000 A 
ATOM     13  C   UNL     1       0.731  10.152  20.293  0.00  0.00    +0.000 A 
ATOM     14  C   UNL     1      -0.592  10.651  20.413  0.00  0.00    +0.000 A 
ATOM     15  C   UNL     1      -1.156  10.536  19.166  0.00  0.00    +0.000 A 
ATOM     16  O   UNL     1      -0.269  10.002  18.297  0.00  0.00    +0.000 OA
ENDBRANCH   2  12
BRANCH   9  17
ATOM     17  C   UNL     1       3.314   4.086  16.779  0.00  0.00    +0.000 C 
BRANCH  17  18
ATOM     18  C   UNL     1       4.795   4.437  16.721  0.00  0.00    +0.000 A 
ATOM     19  N   UNL     1       5.363   5.175  15.785  0.00  0.00    +0.000 NA
ATOM     20  C   UNL     1       6.713   5.308  16.031  0.00  0.00    +0.000 A 
ATOM     21  C   UNL     1       7.178   4.640  17.141  0.00  0.00    +0.000 A 
ATOM     22  S   UNL     1       5.880   3.843  17.925  0.00  0.00    +0.000 S 
ENDBRANCH  17  18
ENDBRANCH   9  17
TORSDOF 3
ENDMDL
MODEL 6
REMARK VINA RESULT:      -6.3      3.918      6.908
REMARK  Name = 
REMARK  3 active torsions:
REMARK  status: ('A' for Active; 'I' for Inactive)
REMARK    1  A    between atoms: C_2  and  C_3
REMARK    2  A    between atoms: N_14  and  C_15
REMARK    3  A    between atoms: C_15  and  C_16
REMARK                            x       y       z     vdW  Elec       q    Type
REMARK                         _______ _______ _______ _____ _____    ______ ____
ROOT
ATOM      1  O   UNL     1       8.071   4.077  16.765  0.00  0.00    +0.000 OA
ATOM      2  C   UNL     1       7.171   4.680  16.169  0.00  0.00    +0.000 C 
ATOM      3  N   UNL     1       6.247   5.439  16.873  0.00  0.00    +0.000 N 
ATOM      4  C   UNL     1       5.246   6.320  16.303  0.00  0.00    +0.000 C 
ATOM      5  C   UNL     1       4.834   7.228  17.449  0.00  0.00    +0.000 C 
ATOM      6  C   UNL     1       3.477   7.881  17.248  0.00  0.00    +0.000 C 
ATOM      7  C   UNL     1       2.356   6.862  17.373  0.00  0.00    +0.000 C 
ATOM      8  C   UNL     1       2.445   6.143  18.714  0.00  0.00    +0.000 C 
ATOM      9  N   UNL     1       3.738   5.494  18.962  0.00  0.00    +0.000 NA
ATOM     10  C   UNL     1       4.935   6.321  18.688  0.00  0.00    +0.000 C 
ATOM     11  C   UNL     1       6.174   5.446  18.328  0.00  0.00    +0.000 C 
ENDROOT
BRANCH   2  12
ATOM     12  C   UNL     1       7.068   4.666  14.716  0.00  0.00    +0.000 A 
ATOM     13  C   UNL     1       6.259   3.941  13.860  0.00  0.00    +0.000 A 
ATOM     14  C   UNL     1       6.628   4.292  12.536  0.00  0.00    +0.000 A 
ATOM     15  C   UNL     1       7.609   5.246  12.657  0.00  0.00    +0.000 A 
ATOM     16  O   UNL     1       7.862   5.497  13.961  0.00  0.00    +0.000 OA
ENDBRANCH   2  12
BRANCH   9  17
ATOM     17  C   UNL     1       3.771   4.908  20.333  0.00  0.00    +0.000 C 
BRANCH  17  18
ATOM     18  C   UNL     1       2.744   3.823  20.629  0.00  0.00    +0.000 A 
ATOM     19  N   UNL     1       2.174   3.617  21.802  0.00  0.00    +0.000 NA
ATOM     20  C   UNL     1       1.287   2.565  21.728  0.00  0.00    +0.000 A 
ATOM     21  C   UNL     1       1.207   1.947  20.500  0.00  0.00    +0.000 A 
ATOM     22  S   UNL     1       2.252   2.727  19.389  0.00  0.00    +0.000 S 
ENDBRANCH  17  18
ENDBRANCH   9  17
TORSDOF 3
ENDMDL
MODEL 7
REMARK VINA RESULT:      -6.2      9.466     10.945
REMARK  Name = 
REMARK  3 active torsions:
REMARK  status: ('A' for Active; 'I' for Inactive)
REMARK    1  A    between atoms: C_2  and  C_3
REMARK    2  A    between atoms: N_14  and  C_15
REMARK    3  A    between atoms: C_15  and  C_16
REMARK                            x       y       z     vdW  Elec       q    Type
REMARK                         _______ _______ _______ _____ _____    ______ ____
ROOT
ATOM      1  O   UNL     1       9.306  14.883  23.405  0.00  0.00    +0.000 OA
ATOM      2  C   UNL     1       8.985  13.796  22.913  0.00  0.00    +0.000 C 
ATOM      3  N   UNL     1       9.607  13.332  21.762  0.00  0.00    +0.000 N 
ATOM      4  C   UNL     1       9.449  12.018  21.169  0.00  0.00    +0.000 C 
ATOM      5  C   UNL     1      10.647  11.865  20.248  0.00  0.00    +0.000 C 
ATOM      6  C   UNL     1      10.449  10.819  19.164  0.00  0.00    +0.000 C 
ATOM      7  C   UNL     1       9.443  11.290  18.126  0.00  0.00    +0.000 C 
ATOM      8  C   UNL     1       9.877  12.632  17.545  0.00  0.00    +0.000 C 
ATOM      9  N   UNL     1      10.085  13.681  18.551  0.00  0.00    +0.000 NA
ATOM     10  C   UNL     1      10.893  13.292  19.728  0.00  0.00    +0.000 C 
ATOM     11  C   UNL     1      10.535  14.142  20.984  0.00  0.00    +0.000 C 
ENDROOT
BRANCH   2  12
ATOM     12  C   UNL     1       7.988  12.935  23.536  0.00  0.00    +0.000 A 
ATOM     13  C   UNL     1       8.053  12.107  24.643  0.00  0.00    +0.000 A 
ATOM     14  C   UNL     1       6.795  11.462  24.757  0.00  0.00    +0.000 A 
ATOM     15  C   UNL     1       6.017  11.965  23.743  0.00  0.00    +0.000 A 
ATOM     16  O   UNL     1       6.715  12.870  23.020  0.00  0.00    +0.000 OA
ENDBRANCH   2  12
BRANCH   9  17
ATOM     17  C   UNL     1      10.604  14.923  17.906  0.00  0.00    +0.000 C 
BRANCH  17  18
ATOM     18  C   UNL     1       9.776  16.184  18.106  0.00  0.00    +0.000 A 
ATOM     19  N   UNL     1       8.502  16.208  18.452  0.00  0.00    +0.000 NA
ATOM     20  C   UNL     1       8.056  17.509  18.556  0.00  0.00    +0.000 A 
ATOM     21  C   UNL     1       8.988  18.477  18.255  0.00  0.00    +0.000 A 
ATOM     22  S   UNL     1      10.483  17.740  17.859  0.00  0.00    +0.000 S 
ENDBRANCH  17  18
ENDBRANCH   9  17
TORSDOF 3
ENDMDL
MODEL 8
REMARK VINA RESULT:      -6.2      4.410      6.634
REMARK  Name = 
REMARK  3 active torsions:
REMARK  status: ('A' for Active; 'I' for Inactive)
REMARK    1  A    between atoms: C_2  and  C_3
REMARK    2  A    between atoms: N_14  and  C_15
REMARK    3  A    between atoms: C_15  and  C_16
REMARK                            x       y       z     vdW  Elec       q    Type
REMARK                         _______ _______ _______ _____ _____    ______ ____
ROOT
ATOM      1  O   UNL     1       7.959   4.569  17.512  0.00  0.00    +0.000 OA
ATOM      2  C   UNL     1       6.890   4.517  16.893  0.00  0.00    +0.000 C 
ATOM      3  N   UNL     1       5.681   4.551  17.572  0.00  0.00    +0.000 N 
ATOM      4  C   UNL     1       4.363   4.660  16.977  0.00  0.00    +0.000 C 
ATOM      5  C   UNL     1       3.463   5.113  18.113  0.00  0.00    +0.000 C 
ATOM      6  C   UNL     1       1.991   4.819  17.875  0.00  0.00    +0.000 C 
ATOM      7  C   UNL     1       1.710   3.328  17.966  0.00  0.00    +0.000 C 
ATOM      8  C   UNL     1       2.187   2.783  19.307  0.00  0.00    +0.000 C 
ATOM      9  N   UNL     1       3.604   3.041  19.590  0.00  0.00    +0.000 NA
ATOM     10  C   UNL     1       4.065   4.427  19.352  0.00  0.00    +0.000 C 
ATOM     11  C   UNL     1       5.587   4.485  19.024  0.00  0.00    +0.000 C 
ENDROOT
BRANCH   2  12
ATOM     12  C   UNL     1       6.847   4.471  15.437  0.00  0.00    +0.000 A 
ATOM     13  C   UNL     1       6.104   3.696  14.565  0.00  0.00    +0.000 A 
ATOM     14  C   UNL     1       6.512   4.039  13.250  0.00  0.00    +0.000 A 
ATOM     15  C   UNL     1       7.447   5.035  13.390  0.00  0.00    +0.000 A 
ATOM     16  O   UNL     1       7.635   5.322  14.698  0.00  0.00    +0.000 OA
ENDBRANCH   2  12
BRANCH   9  17
ATOM     17  C   UNL     1       3.956   2.567  20.960  0.00  0.00    +0.000 C 
BRANCH  17  18
ATOM     18  C   UNL     1       4.855   1.340  21.040  0.00  0.00    +0.000 A 
ATOM     19  N   UNL     1       5.612   1.022  22.074  0.00  0.00    +0.000 NA
ATOM     20  C   UNL     1       6.293  -0.152  21.827  0.00  0.00    +0.000 A 
ATOM     21  C   UNL     1       6.077  -0.709  20.587  0.00  0.00    +0.000 A 
ATOM     22  S   UNL     1       4.960   0.247  19.708  0.00  0.00    +0.000 S 
ENDBRANCH  17  18
ENDBRANCH   9  17
TORSDOF 3
ENDMDL
MODEL 9
REMARK VINA RESULT:      -6.1      1.273      1.447
REMARK  Name = 
REMARK  3 active torsions:
REMARK  status: ('A' for Active; 'I' for Inactive)
REMARK    1  A    between atoms: C_2  and  C_3
REMARK    2  A    between atoms: N_14  and  C_15
REMARK    3  A    between atoms: C_15  and  C_16
REMARK                            x       y       z     vdW  Elec       q    Type
REMARK                         _______ _______ _______ _____ _____    ______ ____
ROOT
ATOM      1  O   UNL     1       3.654   8.647  17.781  0.00  0.00    +0.000 OA
ATOM      2  C   UNL     1       2.687   8.158  18.373  0.00  0.00    +0.000 C 
ATOM      3  N   UNL     1       2.767   6.886  18.923  0.00  0.00    +0.000 N 
ATOM      4  C   UNL     1       1.780   6.253  19.776  0.00  0.00    +0.000 C 
ATOM      5  C   UNL     1       2.527   5.120  20.457  0.00  0.00    +0.000 C 
ATOM      6  C   UNL     1       1.616   4.030  20.995  0.00  0.00    +0.000 C 
ATOM      7  C   UNL     1       0.997   3.226  19.863  0.00  0.00    +0.000 C 
ATOM      8  C   UNL     1       2.089   2.657  18.963  0.00  0.00    +0.000 C 
ATOM      9  N   UNL     1       3.001   3.669  18.415  0.00  0.00    +0.000 NA
ATOM     10  C   UNL     1       3.530   4.651  19.388  0.00  0.00    +0.000 C 
ATOM     11  C   UNL     1       3.904   6.001  18.705  0.00  0.00    +0.000 C 
ENDROOT
BRANCH   2  12
ATOM     12  C   UNL     1       1.449   8.900  18.567  0.00  0.00    +0.000 A 
ATOM     13  C   UNL     1       0.454   9.275  17.682  0.00  0.00    +0.000 A 
ATOM     14  C   UNL     1      -0.494  10.035  18.414  0.00  0.00    +0.000 A 
ATOM     15  C   UNL     1      -0.052  10.043  19.714  0.00  0.00    +0.000 A 
ATOM     16  O   UNL     1       1.099   9.341  19.823  0.00  0.00    +0.000 OA
ENDBRANCH   2  12
BRANCH   9  17
ATOM     17  C   UNL     1       4.093   3.016  17.636  0.00  0.00    +0.000 C 
BRANCH  17  18
ATOM     18  C   UNL     1       4.957   3.936  16.783  0.00  0.00    +0.000 A 
ATOM     19  N   UNL     1       4.586   4.475  15.636  0.00  0.00    +0.000 NA
ATOM     20  C   UNL     1       5.598   5.262  15.126  0.00  0.00    +0.000 A 
ATOM     21  C   UNL     1       6.754   5.292  15.873  0.00  0.00    +0.000 A 
ATOM     22  S   UNL     1       6.562   4.331  17.279  0.00  0.00    +0.000 S 
ENDBRANCH  17  18
ENDBRANCH   9  17
TORSDOF 3
ENDMDL
