MODEL 1
REMARK VINA RESULT:      -6.8      0.000      0.000
REMARK  Name = 
REMARK  10 active torsions:
REMARK  status: ('A' for Active; 'I' for Inactive)
REMARK    1  A    between atoms: C_1  and  C_2
REMARK    2  A    between atoms: C_2  and  O_3
REMARK    3  A    between atoms: O_3  and  C_4
REMARK    4  A    between atoms: C_4  and  C_6
REMARK    5  A    between atoms: C_7  and  C_8
REMARK    6  A    between atoms: C_8  and  C_9
REMARK    7  A    between atoms: C_9  and  C_10
REMARK    8  A    between atoms: C_10  and  O_11
REMARK    9  A    between atoms: O_11  and  C_12
REMARK   10  A    between atoms: C_12  and  C_13
REMARK                            x       y       z     vdW  Elec       q    Type
REMARK                         _______ _______ _______ _____ _____    ______ ____
ROOT
ATOM      1  C   UNL     1       5.591   4.699  15.842  0.00  0.00    +0.000 C 
ATOM      2  C   UNL     1       5.355   6.217  16.098  0.00  0.00    +0.000 C 
ATOM      3  C   UNL     1       5.821   6.725  17.465  0.00  0.00    +0.000 C 
ATOM      4  C   UNL     1       7.254   6.322  17.788  0.00  0.00    +0.000 C 
ATOM      5  C   UNL     1       7.500   4.835  17.563  0.00  0.00    +0.000 C 
ATOM      6  C   UNL     1       7.088   4.407  16.145  0.00  0.00    +0.000 C 
ENDROOT
BRANCH   1   8
ATOM      7  C   UNL     1       3.409   3.824  16.875  0.00  0.00    +0.000 C 
ATOM      8  C   UNL     1       4.751   3.837  16.783  0.00  0.00    +0.000 C 
BRANCH   7   9
ATOM      9  C   UNL     1       2.757   2.864  17.787  0.00  0.00    +0.000 C 
ATOM     10  O   UNL     1       3.180   1.753  18.048  0.00  0.00    +0.000 OA
BRANCH   9  11
ATOM     11  O   UNL     1       1.585   3.409  18.200  0.00  0.00    +0.000 OA
BRANCH  11  13
ATOM     12  C   UNL     1       1.089   3.256  20.530  0.00  0.00    +0.000 C 
ATOM     13  C   UNL     1       0.884   2.618  19.169  0.00  0.00    +0.000 C 
ENDBRANCH  11  13
ENDBRANCH   9  11
ENDBRANCH   7   9
ENDBRANCH   1   8
BRANCH   1  14
ATOM     14  C   UNL     1       5.262   4.398  14.345  0.00  0.00    +0.000 C 
BRANCH  14  15
ATOM     15  C   UNL     1       6.374   3.631  13.608  0.00  0.00    +0.000 C 
BRANCH  15  16
ATOM     16  O   UNL     1       6.214   3.720  12.184  0.00  0.00    +0.000 OA
BRANCH  16  17
ATOM     17  C   UNL     1       5.327   2.846  11.643  0.00  0.00    +0.000 C 
ATOM     18  C   UNL     1       5.972   1.519  11.390  0.00  0.00    +0.000 C 
ATOM     19  O   UNL     1       4.144   3.078  11.425  0.00  0.00    +0.000 OA
ENDBRANCH  16  17
ENDBRANCH  15  16
ENDBRANCH  14  15
ENDBRANCH   1  14
TORSDOF 8
ENDMDL
MODEL 2
REMARK VINA RESULT:      -6.7      0.983      1.172
REMARK  Name = 
REMARK  10 active torsions:
REMARK  status: ('A' for Active; 'I' for Inactive)
REMARK    1  A    between atoms: C_1  and  C_2
REMARK    2  A    between atoms: C_2  and  O_3
REMARK    3  A    between atoms: O_3  and  C_4
REMARK    4  A    between atoms: C_4  and  C_6
REMARK    5  A    between atoms: C_7  and  C_8
REMARK    6  A    between atoms: C_8  and  C_9
REMARK    7  A    between atoms: C_9  and  C_10
REMARK    8  A    between atoms: C_10  and  O_11
REMARK    9  A    between atoms: O_11  and  C_12
REMARK   10  A    between atoms: C_12  and  C_13
REMARK                            x       y       z     vdW  Elec       q    Type
REMARK                         _______ _______ _______ _____ _____    ______ ____
ROOT
ATOM      1  C   UNL     1       5.668   4.766  15.986  0.00  0.00    +0.000 C 
ATOM      2  C   UNL     1       5.503   6.283  16.300  0.00  0.00    +0.000 C 
ATOM      3  C   UNL     1       6.028   6.723  17.669  0.00  0.00    +0.000 C 
ATOM      4  C   UNL     1       7.451   6.252  17.936  0.00  0.00    +0.000 C 
ATOM      5  C   UNL     1       7.630   4.765  17.652  0.00  0.00    +0.000 C 
ATOM      6  C   UNL     1       7.160   4.404  16.234  0.00  0.00    +0.000 C 
ENDROOT
BRANCH   1   8
ATOM      7  C   UNL     1       3.505   4.044  17.165  0.00  0.00    +0.000 C 
ATOM      8  C   UNL     1       4.821   3.906  16.922  0.00  0.00    +0.000 C 
BRANCH   7   9
ATOM      9  C   UNL     1       2.826   3.068  18.041  0.00  0.00    +0.000 C 
ATOM     10  O   UNL     1       1.902   2.353  17.702  0.00  0.00    +0.000 OA
BRANCH   9  11
ATOM     11  O   UNL     1       3.360   3.179  19.283  0.00  0.00    +0.000 OA
BRANCH  11  13
ATOM     12  C   UNL     1       2.200   2.891  21.350  0.00  0.00    +0.000 C 
ATOM     13  C   UNL     1       2.513   3.856  20.222  0.00  0.00    +0.000 C 
ENDBRANCH  11  13
ENDBRANCH   9  11
ENDBRANCH   7   9
ENDBRANCH   1   8
BRANCH   1  14
ATOM     14  C   UNL     1       5.285   4.532  14.490  0.00  0.00    +0.000 C 
BRANCH  14  15
ATOM     15  C   UNL     1       6.233   3.572  13.749  0.00  0.00    +0.000 C 
BRANCH  15  16
ATOM     16  O   UNL     1       6.114   3.716  12.326  0.00  0.00    +0.000 OA
BRANCH  16  17
ATOM     17  C   UNL     1       5.393   2.749  11.703  0.00  0.00    +0.000 C 
ATOM     18  C   UNL     1       4.061   3.274  11.265  0.00  0.00    +0.000 C 
ATOM     19  O   UNL     1       5.778   1.606  11.482  0.00  0.00    +0.000 OA
ENDBRANCH  16  17
ENDBRANCH  15  16
ENDBRANCH  14  15
ENDBRANCH   1  14
TORSDOF 8
ENDMDL
MODEL 3
REMARK VINA RESULT:      -6.6      1.173      1.303
REMARK  Name = 
REMARK  10 active torsions:
REMARK  status: ('A' for Active; 'I' for Inactive)
REMARK    1  A    between atoms: C_1  and  C_2
REMARK    2  A    between atoms: C_2  and  O_3
REMARK    3  A    between atoms: O_3  and  C_4
REMARK    4  A    between atoms: C_4  and  C_6
REMARK    5  A    between atoms: C_7  and  C_8
REMARK    6  A    between atoms: C_8  and  C_9
REMARK    7  A    between atoms: C_9  and  C_10
REMARK    8  A    between atoms: C_10  and  O_11
REMARK    9  A    between atoms: O_11  and  C_12
REMARK   10  A    between atoms: C_12  and  C_13
REMARK                            x       y       z     vdW  Elec       q    Type
REMARK                         _______ _______ _______ _____ _____    ______ ____
ROOT
ATOM      1  C   UNL     1       6.016   4.522  16.605  0.00  0.00    +0.000 C 
ATOM      2  C   UNL     1       5.700   5.954  16.082  0.00  0.00    +0.000 C 
ATOM      3  C   UNL     1       5.918   7.080  17.096  0.00  0.00    +0.000 C 
ATOM      4  C   UNL     1       7.287   7.021  17.759  0.00  0.00    +0.000 C 
ATOM      5  C   UNL     1       7.609   5.631  18.297  0.00  0.00    +0.000 C 
ATOM      6  C   UNL     1       7.450   4.558  17.207  0.00  0.00    +0.000 C 
ENDROOT
BRANCH   1   8
ATOM      7  C   UNL     1       4.131   3.135  17.660  0.00  0.00    +0.000 C 
ATOM      8  C   UNL     1       5.056   4.109  17.720  0.00  0.00    +0.000 C 
BRANCH   7   9
ATOM      9  C   UNL     1       3.340   2.816  18.866  0.00  0.00    +0.000 C 
ATOM     10  O   UNL     1       3.765   2.225  19.841  0.00  0.00    +0.000 OA
BRANCH   9  11
ATOM     11  O   UNL     1       2.064   3.220  18.648  0.00  0.00    +0.000 OA
BRANCH  11  13
ATOM     12  C   UNL     1       0.973   4.336  20.454  0.00  0.00    +0.000 C 
ATOM     13  C   UNL     1       1.186   3.004  19.761  0.00  0.00    +0.000 C 
ENDBRANCH  11  13
ENDBRANCH   9  11
ENDBRANCH   7   9
ENDBRANCH   1   8
BRANCH   1  14
ATOM     14  C   UNL     1       5.950   3.533  15.398  0.00  0.00    +0.000 C 
BRANCH  14  15
ATOM     15  C   UNL     1       5.551   4.201  14.070  0.00  0.00    +0.000 C 
BRANCH  15  16
ATOM     16  O   UNL     1       6.501   3.910  13.034  0.00  0.00    +0.000 OA
BRANCH  16  17
ATOM     17  C   UNL     1       6.054   3.083  12.054  0.00  0.00    +0.000 C 
ATOM     18  C   UNL     1       4.619   3.361  11.732  0.00  0.00    +0.000 C 
ATOM     19  O   UNL     1       6.731   2.244  11.469  0.00  0.00    +0.000 OA
ENDBRANCH  16  17
ENDBRANCH  15  16
ENDBRANCH  14  15
ENDBRANCH   1  14
TORSDOF 8
ENDMDL
MODEL 4
REMARK VINA RESULT:      -6.5      1.386      6.078
REMARK  Name = 
REMARK  10 active torsions:
REMARK  status: ('A' for Active; 'I' for Inactive)
REMARK    1  A    between atoms: C_1  and  C_2
REMARK    2  A    between atoms: C_2  and  O_3
REMARK    3  A    between atoms: O_3  and  C_4
REMARK    4  A    between atoms: C_4  and  C_6
REMARK    5  A    between atoms: C_7  and  C_8
REMARK    6  A    between atoms: C_8  and  C_9
REMARK    7  A    between atoms: C_9  and  C_10
REMARK    8  A    between atoms: C_10  and  O_11
REMARK    9  A    between atoms: O_11  and  C_12
REMARK   10  A    between atoms: C_12  and  C_13
REMARK                            x       y       z     vdW  Elec       q    Type
REMARK                         _______ _______ _______ _____ _____    ______ ____
ROOT
ATOM      1  C   UNL     1       5.554   5.526  17.303  0.00  0.00    +0.000 C 
ATOM      2  C   UNL     1       6.183   4.909  18.588  0.00  0.00    +0.000 C 
ATOM      3  C   UNL     1       7.668   5.217  18.797  0.00  0.00    +0.000 C 
ATOM      4  C   UNL     1       7.986   6.701  18.679  0.00  0.00    +0.000 C 
ATOM      5  C   UNL     1       7.396   7.320  17.417  0.00  0.00    +0.000 C 
ATOM      6  C   UNL     1       5.887   7.045  17.311  0.00  0.00    +0.000 C 
ENDROOT
BRANCH   1   8
ATOM      7  C   UNL     1       6.040   5.397  14.785  0.00  0.00    +0.000 C 
ATOM      8  C   UNL     1       6.164   4.924  16.038  0.00  0.00    +0.000 C 
BRANCH   7   9
ATOM      9  C   UNL     1       6.768   4.732  13.687  0.00  0.00    +0.000 C 
ATOM     10  O   UNL     1       7.686   5.226  13.060  0.00  0.00    +0.000 OA
BRANCH   9  11
ATOM     11  O   UNL     1       6.179   3.531  13.462  0.00  0.00    +0.000 OA
BRANCH  11  13
ATOM     12  C   UNL     1       4.630   3.229  11.670  0.00  0.00    +0.000 C 
ATOM     13  C   UNL     1       6.091   3.176  12.075  0.00  0.00    +0.000 C 
ENDBRANCH  11  13
ENDBRANCH   9  11
ENDBRANCH   7   9
ENDBRANCH   1   8
BRANCH   1  14
ATOM     14  C   UNL     1       4.010   5.300  17.357  0.00  0.00    +0.000 C 
BRANCH  14  15
ATOM     15  C   UNL     1       3.584   4.131  18.263  0.00  0.00    +0.000 C 
BRANCH  15  16
ATOM     16  O   UNL     1       2.158   3.965  18.266  0.00  0.00    +0.000 OA
BRANCH  16  17
ATOM     17  C   UNL     1       1.676   3.111  19.205  0.00  0.00    +0.000 C 
ATOM     18  C   UNL     1       0.948   3.856  20.281  0.00  0.00    +0.000 C 
ATOM     19  O   UNL     1       1.775   1.890  19.174  0.00  0.00    +0.000 OA
ENDBRANCH  16  17
ENDBRANCH  15  16
ENDBRANCH  14  15
ENDBRANCH   1  14
TORSDOF 8
ENDMDL
MODEL 5
REMARK VINA RESULT:      -6.4      1.261      1.386
REMARK  Name = 
REMARK  10 active torsions:
REMARK  status: ('A' for Active; 'I' for Inactive)
REMARK    1  A    between atoms: C_1  and  C_2
REMARK    2  A    between atoms: C_2  and  O_3
REMARK    3  A    between atoms: O_3  and  C_4
REMARK    4  A    between atoms: C_4  and  C_6
REMARK    5  A    between atoms: C_7  and  C_8
REMARK    6  A    between atoms: C_8  and  C_9
REMARK    7  A    between atoms: C_9  and  C_10
REMARK    8  A    between atoms: C_10  and  O_11
REMARK    9  A    between atoms: O_11  and  C_12
REMARK   10  A    between atoms: C_12  and  C_13
REMARK                            x       y       z     vdW  Elec       q    Type
REMARK                         _______ _______ _______ _____ _____    ______ ____
ROOT
ATOM      1  C   UNL     1       6.127   4.562  16.589  0.00  0.00    +0.000 C 
ATOM      2  C   UNL     1       5.940   6.008  16.042  0.00  0.00    +0.000 C 
ATOM      3  C   UNL     1       6.151   7.124  17.068  0.00  0.00    +0.000 C 
ATOM      4  C   UNL     1       7.460   6.983  17.833  0.00  0.00    +0.000 C 
ATOM      5  C   UNL     1       7.654   5.580  18.394  0.00  0.00    +0.000 C 
ATOM      6  C   UNL     1       7.511   4.512  17.297  0.00  0.00    +0.000 C 
ENDROOT
BRANCH   1   8
ATOM      7  C   UNL     1       3.907   3.564  17.405  0.00  0.00    +0.000 C 
ATOM      8  C   UNL     1       5.063   4.215  17.629  0.00  0.00    +0.000 C 
BRANCH   7   9
ATOM      9  C   UNL     1       3.029   3.241  18.548  0.00  0.00    +0.000 C 
ATOM     10  O   UNL     1       3.063   2.202  19.181  0.00  0.00    +0.000 OA
BRANCH   9  11
ATOM     11  O   UNL     1       2.145   4.259  18.696  0.00  0.00    +0.000 OA
BRANCH  11  13
ATOM     12  C   UNL     1       2.533   6.463  19.528  0.00  0.00    +0.000 C 
ATOM     13  C   UNL     1       2.319   5.010  19.906  0.00  0.00    +0.000 C 
ENDBRANCH  11  13
ENDBRANCH   9  11
ENDBRANCH   7   9
ENDBRANCH   1   8
BRANCH   1  14
ATOM     14  C   UNL     1       6.090   3.572  15.381  0.00  0.00    +0.000 C 
BRANCH  14  15
ATOM     15  C   UNL     1       5.700   4.234  14.048  0.00  0.00    +0.000 C 
BRANCH  15  16
ATOM     16  O   UNL     1       6.371   3.613  12.941  0.00  0.00    +0.000 OA
BRANCH  16  17
ATOM     17  C   UNL     1       5.558   3.040  12.017  0.00  0.00    +0.000 C 
ATOM     18  C   UNL     1       6.183   1.806  11.447  0.00  0.00    +0.000 C 
ATOM     19  O   UNL     1       4.441   3.440  11.709  0.00  0.00    +0.000 OA
ENDBRANCH  16  17
ENDBRANCH  15  16
ENDBRANCH  14  15
ENDBRANCH   1  14
TORSDOF 8
ENDMDL
MODEL 6
REMARK VINA RESULT:      -6.4      1.451      1.848
REMARK  Name = 
REMARK  10 active torsions:
REMARK  status: ('A' for Active; 'I' for Inactive)
REMARK    1  A    between atoms: C_1  and  C_2
REMARK    2  A    between atoms: C_2  and  O_3
REMARK    3  A    between atoms: O_3  and  C_4
REMARK    4  A    between atoms: C_4  and  C_6
REMARK    5  A    between atoms: C_7  and  C_8
REMARK    6  A    between atoms: C_8  and  C_9
REMARK    7  A    between atoms: C_9  and  C_10
REMARK    8  A    between atoms: C_10  and  O_11
REMARK    9  A    between atoms: O_11  and  C_12
REMARK   10  A    between atoms: C_12  and  C_13
REMARK                            x       y       z     vdW  Elec       q    Type
REMARK                         _______ _______ _______ _____ _____    ______ ____
ROOT
ATOM      1  C   UNL     1       6.272   4.699  16.684  0.00  0.00    +0.000 C 
ATOM      2  C   UNL     1       6.279   6.150  16.117  0.00  0.00    +0.000 C 
ATOM      3  C   UNL     1       6.493   7.252  17.158  0.00  0.00    +0.000 C 
ATOM      4  C   UNL     1       7.701   6.998  18.049  0.00  0.00    +0.000 C 
ATOM      5  C   UNL     1       7.703   5.589  18.630  0.00  0.00    +0.000 C 
ATOM      6  C   UNL     1       7.568   4.527  17.526  0.00  0.00    +0.000 C 
ENDROOT
BRANCH   1   8
ATOM      7  C   UNL     1       3.787   4.700  17.330  0.00  0.00    +0.000 C 
ATOM      8  C   UNL     1       5.082   4.468  17.613  0.00  0.00    +0.000 C 
BRANCH   7   9
ATOM      9  C   UNL     1       2.755   4.341  18.323  0.00  0.00    +0.000 C 
ATOM     10  O   UNL     1       1.595   4.704  18.284  0.00  0.00    +0.000 OA
BRANCH   9  11
ATOM     11  O   UNL     1       3.352   3.619  19.304  0.00  0.00    +0.000 OA
BRANCH  11  13
ATOM     12  C   UNL     1       3.512   1.363  18.539  0.00  0.00    +0.000 C 
ATOM     13  C   UNL     1       2.797   2.310  19.485  0.00  0.00    +0.000 C 
ENDBRANCH  11  13
ENDBRANCH   9  11
ENDBRANCH   7   9
ENDBRANCH   1   8
BRANCH   1  14
ATOM     14  C   UNL     1       6.260   3.703  15.481  0.00  0.00    +0.000 C 
BRANCH  14  15
ATOM     15  C   UNL     1       5.698   4.306  14.181  0.00  0.00    +0.000 C 
BRANCH  15  16
ATOM     16  O   UNL     1       6.602   4.117  13.083  0.00  0.00    +0.000 OA
BRANCH  16  17
ATOM     17  C   UNL     1       6.198   3.221  12.146  0.00  0.00    +0.000 C 
ATOM     18  C   UNL     1       4.739   3.381  11.848  0.00  0.00    +0.000 C 
ATOM     19  O   UNL     1       6.922   2.412  11.578  0.00  0.00    +0.000 OA
ENDBRANCH  16  17
ENDBRANCH  15  16
ENDBRANCH  14  15
ENDBRANCH   1  14
TORSDOF 8
ENDMDL
MODEL 7
REMARK VINA RESULT:      -6.4      3.861      6.046
REMARK  Name = 
REMARK  10 active torsions:
REMARK  status: ('A' for Active; 'I' for Inactive)
REMARK    1  A    between atoms: C_1  and  C_2
REMARK    2  A    between atoms: C_2  and  O_3
REMARK    3  A    between atoms: O_3  and  C_4
REMARK    4  A    between atoms: C_4  and  C_6
REMARK    5  A    between atoms: C_7  and  C_8
REMARK    6  A    between atoms: C_8  and  C_9
REMARK    7  A    between atoms: C_9  and  C_10
REMARK    8  A    between atoms: C_10  and  O_11
REMARK    9  A    between atoms: O_11  and  C_12
REMARK   10  A    between atoms: C_12  and  C_13
REMARK                            x       y       z     vdW  Elec       q    Type
REMARK                         _______ _______ _______ _____ _____    ______ ____
ROOT
ATOM      1  C   UNL     1       3.351   5.211  19.088  0.00  0.00    +0.000 C 
ATOM      2  C   UNL     1       2.862   4.353  20.292  0.00  0.00    +0.000 C 
ATOM      3  C   UNL     1       1.392   3.929  20.233  0.00  0.00    +0.000 C 
ATOM      4  C   UNL     1       1.014   3.288  18.904  0.00  0.00    +0.000 C 
ATOM      5  C   UNL     1       1.467   4.123  17.712  0.00  0.00    +0.000 C 
ATOM      6  C   UNL     1       2.968   4.444  17.790  0.00  0.00    +0.000 C 
ENDROOT
BRANCH   1   8
ATOM      7  C   UNL     1       2.880   7.562  18.170  0.00  0.00    +0.000 C 
ATOM      8  C   UNL     1       2.650   6.568  19.047  0.00  0.00    +0.000 C 
BRANCH   7   9
ATOM      9  C   UNL     1       2.048   8.781  18.228  0.00  0.00    +0.000 C 
ATOM     10  O   UNL     1       1.977   9.618  17.347  0.00  0.00    +0.000 OA
BRANCH   9  11
ATOM     11  O   UNL     1       1.463   8.831  19.451  0.00  0.00    +0.000 OA
BRANCH  11  13
ATOM     12  C   UNL     1       0.854  10.798  20.658  0.00  0.00    +0.000 C 
ATOM     13  C   UNL     1       0.440   9.829  19.567  0.00  0.00    +0.000 C 
ENDBRANCH  11  13
ENDBRANCH   9  11
ENDBRANCH   7   9
ENDBRANCH   1   8
BRANCH   1  14
ATOM     14  C   UNL     1       4.900   5.370  19.197  0.00  0.00    +0.000 C 
BRANCH  14  15
ATOM     15  C   UNL     1       5.684   4.557  18.152  0.00  0.00    +0.000 C 
BRANCH  15  16
ATOM     16  O   UNL     1       6.893   5.228  17.767  0.00  0.00    +0.000 OA
BRANCH  16  17
ATOM     17  C   UNL     1       6.721   6.371  17.055  0.00  0.00    +0.000 C 
ATOM     18  C   UNL     1       7.546   7.483  17.623  0.00  0.00    +0.000 C 
ATOM     19  O   UNL     1       6.023   6.486  16.055  0.00  0.00    +0.000 OA
ENDBRANCH  16  17
ENDBRANCH  15  16
ENDBRANCH  14  15
ENDBRANCH   1  14
TORSDOF 8
ENDMDL
MODEL 8
REMARK VINA RESULT:      -6.4      3.923      6.094
REMARK  Name = 
REMARK  10 active torsions:
REMARK  status: ('A' for Active; 'I' for Inactive)
REMARK    1  A    between atoms: C_1  and  C_2
REMARK    2  A    between atoms: C_2  and  O_3
REMARK    3  A    between atoms: O_3  and  C_4
REMARK    4  A    between atoms: C_4  and  C_6
REMARK    5  A    between atoms: C_7  and  C_8
REMARK    6  A    between atoms: C_8  and  C_9
REMARK    7  A    between atoms: C_9  and  C_10
REMARK    8  A    between atoms: C_10  and  O_11
REMARK    9  A    between atoms: O_11  and  C_12
REMARK   10  A    between atoms: C_12  and  C_13
REMARK                            x       y       z     vdW  Elec       q    Type
REMARK                         _______ _______ _______ _____ _____    ______ ____
ROOT
ATOM      1  C   UNL     1       3.163   4.726  18.881  0.00  0.00    +0.000 C 
ATOM      2  C   UNL     1       3.179   4.067  20.292  0.00  0.00    +0.000 C 
ATOM      3  C   UNL     1       1.802   3.857  20.927  0.00  0.00    +0.000 C 
ATOM      4  C   UNL     1       0.823   3.154  19.997  0.00  0.00    +0.000 C 
ATOM      5  C   UNL     1       0.777   3.796  18.616  0.00  0.00    +0.000 C 
ATOM      6  C   UNL     1       2.181   3.902  17.999  0.00  0.00    +0.000 C 
ENDROOT
BRANCH   1   8
ATOM      7  C   UNL     1       2.744   7.092  17.975  0.00  0.00    +0.000 C 
ATOM      8  C   UNL     1       2.639   6.161  18.940  0.00  0.00    +0.000 C 
BRANCH   7   9
ATOM      9  C   UNL     1       2.106   8.409  18.171  0.00  0.00    +0.000 C 
ATOM     10  O   UNL     1       2.001   9.267  17.314  0.00  0.00    +0.000 OA
BRANCH   9  11
ATOM     11  O   UNL     1       1.745   8.509  19.475  0.00  0.00    +0.000 OA
BRANCH  11  13
ATOM     12  C   UNL     1       0.740   9.775  21.232  0.00  0.00    +0.000 C 
ATOM     13  C   UNL     1       0.777   9.535  19.735  0.00  0.00    +0.000 C 
ENDBRANCH  11  13
ENDBRANCH   9  11
ENDBRANCH   7   9
ENDBRANCH   1   8
BRANCH   1  14
ATOM     14  C   UNL     1       4.610   4.670  18.297  0.00  0.00    +0.000 C 
BRANCH  14  15
ATOM     15  C   UNL     1       5.688   5.201  19.257  0.00  0.00    +0.000 C 
BRANCH  15  16
ATOM     16  O   UNL     1       6.990   4.709  18.904  0.00  0.00    +0.000 OA
BRANCH  16  17
ATOM     17  C   UNL     1       7.499   5.196  17.744  0.00  0.00    +0.000 C 
ATOM     18  C   UNL     1       7.566   6.691  17.775  0.00  0.00    +0.000 C 
ATOM     19  O   UNL     1       7.897   4.518  16.803  0.00  0.00    +0.000 OA
ENDBRANCH  16  17
ENDBRANCH  15  16
ENDBRANCH  14  15
ENDBRANCH   1  14
TORSDOF 8
ENDMDL
MODEL 9
REMARK VINA RESULT:      -6.4      4.091      5.755
REMARK  Name = 
REMARK  10 active torsions:
REMARK  status: ('A' for Active; 'I' for Inactive)
REMARK    1  A    between atoms: C_1  and  C_2
REMARK    2  A    between atoms: C_2  and  O_3
REMARK    3  A    between atoms: O_3  and  C_4
REMARK    4  A    between atoms: C_4  and  C_6
REMARK    5  A    between atoms: C_7  and  C_8
REMARK    6  A    between atoms: C_8  and  C_9
REMARK    7  A    between atoms: C_9  and  C_10
REMARK    8  A    between atoms: C_10  and  O_11
REMARK    9  A    between atoms: O_11  and  C_12
REMARK   10  A    between atoms: C_12  and  C_13
REMARK                            x       y       z     vdW  Elec       q    Type
REMARK                         _______ _______ _______ _____ _____    ______ ____
ROOT
ATOM      1  C   UNL     1       3.424   5.584  18.418  0.00  0.00    +0.000 C 
ATOM      2  C   UNL     1       3.279   5.191  19.918  0.00  0.00    +0.000 C 
ATOM      3  C   UNL     1       1.872   4.767  20.345  0.00  0.00    +0.000 C 
ATOM      4  C   UNL     1       1.271   3.707  19.432  0.00  0.00    +0.000 C 
ATOM      5  C   UNL     1       1.385   4.082  17.960  0.00  0.00    +0.000 C 
ATOM      6  C   UNL     1       2.836   4.416  17.576  0.00  0.00    +0.000 C 
ENDROOT
BRANCH   1   8
ATOM      7  C   UNL     1       2.378   7.875  18.916  0.00  0.00    +0.000 C 
ATOM      8  C   UNL     1       2.621   6.842  18.090  0.00  0.00    +0.000 C 
BRANCH   7   9
ATOM      9  C   UNL     1       1.647   9.052  18.404  0.00  0.00    +0.000 C 
ATOM     10  O   UNL     1       1.909   9.639  17.370  0.00  0.00    +0.000 OA
BRANCH   9  11
ATOM     11  O   UNL     1       0.710   9.395  19.323  0.00  0.00    +0.000 OA
BRANCH  11  13
ATOM     12  C   UNL     1      -0.857  11.179  19.075  0.00  0.00    +0.000 C 
ATOM     13  C   UNL     1       0.553  10.810  19.495  0.00  0.00    +0.000 C 
ENDBRANCH  11  13
ENDBRANCH   9  11
ENDBRANCH   7   9
ENDBRANCH   1   8
BRANCH   1  14
ATOM     14  C   UNL     1       4.942   5.778  18.106  0.00  0.00    +0.000 C 
BRANCH  14  15
ATOM     15  C   UNL     1       5.221   6.346  16.704  0.00  0.00    +0.000 C 
BRANCH  15  16
ATOM     16  O   UNL     1       6.603   6.200  16.345  0.00  0.00    +0.000 OA
BRANCH  16  17
ATOM     17  C   UNL     1       7.019   4.923  16.148  0.00  0.00    +0.000 C 
ATOM     18  C   UNL     1       6.256   4.278  15.034  0.00  0.00    +0.000 C 
ATOM     19  O   UNL     1       7.924   4.368  16.761  0.00  0.00    +0.000 OA
ENDBRANCH  16  17
ENDBRANCH  15  16
ENDBRANCH  14  15
ENDBRANCH   1  14
TORSDOF 8
ENDMDL
