MODEL 1
REMARK VINA RESULT:      -6.9      0.000      0.000
REMARK  Name = 
REMARK  6 active torsions:
REMARK  status: ('A' for Active; 'I' for Inactive)
REMARK    1  A    between atoms: C_1  and  C_2
REMARK    2  A    between atoms: C_2  and  O_3
REMARK    3  A    between atoms: O_3  and  C_4
REMARK    4  A    between atoms: C_12  and  C_13
REMARK    5  A    between atoms: N_15  and  C_16
REMARK    6  A    between atoms: C_19  and  C_20
REMARK                            x       y       z     vdW  Elec       q    Type
REMARK                         _______ _______ _______ _____ _____    ______ ____
ROOT
ATOM      1  C   UNL     1       4.279   5.164  17.933  0.00  0.00    +0.000 A 
ATOM      2  C   UNL     1       3.841   6.383  17.410  0.00  0.00    +0.000 A 
ATOM      3  C   UNL     1       2.966   7.169  18.164  0.00  0.00    +0.000 A 
ATOM      4  S   UNL     1       2.342   8.699  17.748  0.00  0.00    +0.000 S 
ATOM      5  C   UNL     1       1.507   8.783  19.255  0.00  0.00    +0.000 A 
ATOM      6  N   UNL     1       0.773   9.875  19.599  0.00  0.00    +0.000 N 
ATOM      7  C   UNL     1       1.080  11.216  19.111  0.00  0.00    +0.000 C 
ATOM      8  C   UNL     1       1.424  12.113  20.303  0.00  0.00    +0.000 C 
ATOM      9  C   UNL     1       0.312  12.093  21.368  0.00  0.00    +0.000 C 
ATOM     10  C   UNL     1       0.012  10.645  21.783  0.00  0.00    +0.000 C 
ATOM     11  C   UNL     1      -0.297   9.762  20.576  0.00  0.00    +0.000 C 
ATOM     12  N   UNL     1       1.627   7.699  19.997  0.00  0.00    +0.000 NA
ATOM     13  C   UNL     1       2.483   6.782  19.400  0.00  0.00    +0.000 A 
ATOM     14  C   UNL     1       2.899   5.541  19.923  0.00  0.00    +0.000 A 
ATOM     15  C   UNL     1       3.799   4.750  19.182  0.00  0.00    +0.000 A 
ATOM     16 BR   UNL     1       4.341   3.097  19.951  0.00  0.00    +0.000 Br
ENDROOT
BRANCH   9  17
ATOM     17  C   UNL     1      -0.921  12.826  20.839  0.00  0.00    +0.000 C 
ATOM     18  O   UNL     1      -0.802  13.784  20.078  0.00  0.00    +0.000 OA
ATOM     19  N   UNL     1      -2.125  12.367  21.347  0.00  0.00    +0.000 N 
ATOM     20  H   UNL     1      -2.092  11.806  22.188  0.00  0.00    +0.000 HD
BRANCH  19  21
ATOM     21  C   UNL     1      -3.385  12.888  20.978  0.00  0.00    +0.000 A 
ATOM     22  C   UNL     1      -4.043  13.864  21.731  0.00  0.00    +0.000 A 
ATOM     23  C   UNL     1      -5.348  14.244  21.425  0.00  0.00    +0.000 A 
ATOM     24  C   UNL     1      -6.014  13.665  20.345  0.00  0.00    +0.000 A 
ATOM     25  C   UNL     1      -7.457  13.978  20.091  0.00  0.00    +0.000 C 
ATOM     26  C   UNL     1      -5.322  12.764  19.525  0.00  0.00    +0.000 A 
ATOM     27  C   UNL     1      -4.009  12.386  19.833  0.00  0.00    +0.000 A 
ENDBRANCH  19  21
ENDBRANCH   9  17
BRANCH   1  28
ATOM     28  O   UNL     1       5.175   4.357  17.267  0.00  0.00    +0.000 OA
BRANCH  28  30
ATOM     29  C   UNL     1       7.262   5.150  18.207  0.00  0.00    +0.000 C 
ATOM     30  C   UNL     1       6.434   4.965  16.955  0.00  0.00    +0.000 C 
ENDBRANCH  28  30
ENDBRANCH   1  28
TORSDOF 4
ENDMDL
MODEL 2
REMARK VINA RESULT:      -6.8      0.900      1.312
REMARK  Name = 
REMARK  6 active torsions:
REMARK  status: ('A' for Active; 'I' for Inactive)
REMARK    1  A    between atoms: C_1  and  C_2
REMARK    2  A    between atoms: C_2  and  O_3
REMARK    3  A    between atoms: O_3  and  C_4
REMARK    4  A    between atoms: C_12  and  C_13
REMARK    5  A    between atoms: N_15  and  C_16
REMARK    6  A    between atoms: C_19  and  C_20
REMARK                            x       y       z     vdW  Elec       q    Type
REMARK                         _______ _______ _______ _____ _____    ______ ____
ROOT
ATOM      1  C   UNL     1       4.314   5.947  17.608  0.00  0.00    +0.000 A 
ATOM      2  C   UNL     1       3.733   7.163  17.239  0.00  0.00    +0.000 A 
ATOM      3  C   UNL     1       2.825   7.771  18.111  0.00  0.00    +0.000 A 
ATOM      4  S   UNL     1       2.035   9.264  17.891  0.00  0.00    +0.000 S 
ATOM      5  C   UNL     1       1.274   9.103  19.431  0.00  0.00    +0.000 A 
ATOM      6  N   UNL     1       0.456  10.071  19.922  0.00  0.00    +0.000 N 
ATOM      7  C   UNL     1       0.605  11.481  19.572  0.00  0.00    +0.000 C 
ATOM      8  C   UNL     1       0.920  12.278  20.840  0.00  0.00    +0.000 C 
ATOM      9  C   UNL     1      -0.127  12.032  21.941  0.00  0.00    +0.000 C 
ATOM     10  C   UNL     1      -0.263  10.526  22.206  0.00  0.00    +0.000 C 
ATOM     11  C   UNL     1      -0.546   9.748  20.923  0.00  0.00    +0.000 C 
ATOM     12  N   UNL     1       1.537   7.965  20.044  0.00  0.00    +0.000 NA
ATOM     13  C   UNL     1       2.447   7.209  19.316  0.00  0.00    +0.000 A 
ATOM     14  C   UNL     1       3.008   5.968  19.682  0.00  0.00    +0.000 A 
ATOM     15  C   UNL     1       3.941   5.356  18.822  0.00  0.00    +0.000 A 
ATOM     16 BR   UNL     1       4.682   3.696  19.383  0.00  0.00    +0.000 Br
ENDROOT
BRANCH   9  17
ATOM     17  C   UNL     1      -1.452  12.687  21.546  0.00  0.00    +0.000 C 
ATOM     18  O   UNL     1      -1.506  13.472  20.602  0.00  0.00    +0.000 OA
ATOM     19  N   UNL     1      -2.516  12.376  22.376  0.00  0.00    +0.000 N 
ATOM     20  H   UNL     1      -2.301  11.990  23.286  0.00  0.00    +0.000 HD
BRANCH  19  21
ATOM     21  C   UNL     1      -3.832  12.854  22.183  0.00  0.00    +0.000 A 
ATOM     22  C   UNL     1      -4.609  12.485  21.082  0.00  0.00    +0.000 A 
ATOM     23  C   UNL     1      -5.840  13.090  20.841  0.00  0.00    +0.000 A 
ATOM     24  C   UNL     1      -6.325  14.067  21.711  0.00  0.00    +0.000 A 
ATOM     25  C   UNL     1      -7.586  14.810  21.385  0.00  0.00    +0.000 C 
ATOM     26  C   UNL     1      -5.598  14.365  22.870  0.00  0.00    +0.000 A 
ATOM     27  C   UNL     1      -4.362  13.752  23.112  0.00  0.00    +0.000 A 
ENDBRANCH  19  21
ENDBRANCH   9  17
BRANCH   1  28
ATOM     28  O   UNL     1       5.249   5.310  16.822  0.00  0.00    +0.000 OA
BRANCH  28  30
ATOM     29  C   UNL     1       7.527   4.569  17.179  0.00  0.00    +0.000 C 
ATOM     30  C   UNL     1       6.600   5.751  16.997  0.00  0.00    +0.000 C 
ENDBRANCH  28  30
ENDBRANCH   1  28
TORSDOF 4
ENDMDL
MODEL 3
REMARK VINA RESULT:      -6.7      2.064      3.301
REMARK  Name = 
REMARK  6 active torsions:
REMARK  status: ('A' for Active; 'I' for Inactive)
REMARK    1  A    between atoms: C_1  and  C_2
REMARK    2  A    between atoms: C_2  and  O_3
REMARK    3  A    between atoms: O_3  and  C_4
REMARK    4  A    between atoms: C_12  and  C_13
REMARK    5  A    between atoms: N_15  and  C_16
REMARK    6  A    between atoms: C_19  and  C_20
REMARK                            x       y       z     vdW  Elec       q    Type
REMARK                         _______ _______ _______ _____ _____    ______ ____
ROOT
ATOM      1  C   UNL     1       3.829   4.751  18.766  0.00  0.00    +0.000 A 
ATOM      2  C   UNL     1       3.033   5.338  19.753  0.00  0.00    +0.000 A 
ATOM      3  C   UNL     1       2.556   6.636  19.555  0.00  0.00    +0.000 A 
ATOM      4  S   UNL     1       1.542   7.527  20.595  0.00  0.00    +0.000 S 
ATOM      5  C   UNL     1       1.525   8.839  19.476  0.00  0.00    +0.000 A 
ATOM      6  N   UNL     1       0.797   9.963  19.712  0.00  0.00    +0.000 N 
ATOM      7  C   UNL     1      -0.426   9.956  20.510  0.00  0.00    +0.000 C 
ATOM      8  C   UNL     1      -1.597  10.396  19.627  0.00  0.00    +0.000 C 
ATOM      9  C   UNL     1      -1.321  11.749  18.949  0.00  0.00    +0.000 C 
ATOM     10  C   UNL     1       0.008  11.688  18.182  0.00  0.00    +0.000 C 
ATOM     11  C   UNL     1       1.156  11.217  19.073  0.00  0.00    +0.000 C 
ATOM     12  N   UNL     1       2.292   8.654  18.418  0.00  0.00    +0.000 NA
ATOM     13  C   UNL     1       2.862   7.388  18.436  0.00  0.00    +0.000 A 
ATOM     14  C   UNL     1       3.687   6.812  17.447  0.00  0.00    +0.000 A 
ATOM     15  C   UNL     1       4.155   5.496  17.625  0.00  0.00    +0.000 A 
ATOM     16 BR   UNL     1       5.244   4.767  16.246  0.00  0.00    +0.000 Br
ENDROOT
BRANCH   9  17
ATOM     17  C   UNL     1      -1.352  12.865  19.995  0.00  0.00    +0.000 C 
ATOM     18  O   UNL     1      -0.629  13.853  19.879  0.00  0.00    +0.000 OA
ATOM     19  N   UNL     1      -2.183  12.618  21.074  0.00  0.00    +0.000 N 
ATOM     20  H   UNL     1      -2.476  11.662  21.227  0.00  0.00    +0.000 HD
BRANCH  19  21
ATOM     21  C   UNL     1      -2.377  13.523  22.142  0.00  0.00    +0.000 A 
ATOM     22  C   UNL     1      -3.426  14.445  22.161  0.00  0.00    +0.000 A 
ATOM     23  C   UNL     1      -3.501  15.422  23.152  0.00  0.00    +0.000 A 
ATOM     24  C   UNL     1      -2.532  15.482  24.154  0.00  0.00    +0.000 A 
ATOM     25  C   UNL     1      -2.539  16.607  25.144  0.00  0.00    +0.000 C 
ATOM     26  C   UNL     1      -1.539  14.496  24.198  0.00  0.00    +0.000 A 
ATOM     27  C   UNL     1      -1.468  13.513  23.203  0.00  0.00    +0.000 A 
ENDBRANCH  19  21
ENDBRANCH   9  17
BRANCH   1  28
ATOM     28  O   UNL     1       4.299   3.460  18.870  0.00  0.00    +0.000 OA
BRANCH  28  30
ATOM     29  C   UNL     1       2.573   2.128  17.816  0.00  0.00    +0.000 C 
ATOM     30  C   UNL     1       3.300   2.460  19.100  0.00  0.00    +0.000 C 
ENDBRANCH  28  30
ENDBRANCH   1  28
TORSDOF 4
ENDMDL
MODEL 4
REMARK VINA RESULT:      -6.7      1.193      1.331
REMARK  Name = 
REMARK  6 active torsions:
REMARK  status: ('A' for Active; 'I' for Inactive)
REMARK    1  A    between atoms: C_1  and  C_2
REMARK    2  A    between atoms: C_2  and  O_3
REMARK    3  A    between atoms: O_3  and  C_4
REMARK    4  A    between atoms: C_12  and  C_13
REMARK    5  A    between atoms: N_15  and  C_16
REMARK    6  A    between atoms: C_19  and  C_20
REMARK                            x       y       z     vdW  Elec       q    Type
REMARK                         _______ _______ _______ _____ _____    ______ ____
ROOT
ATOM      1  C   UNL     1       4.291   5.813  17.729  0.00  0.00    +0.000 A 
ATOM      2  C   UNL     1       3.766   7.046  17.334  0.00  0.00    +0.000 A 
ATOM      3  C   UNL     1       2.854   7.694  18.171  0.00  0.00    +0.000 A 
ATOM      4  S   UNL     1       2.125   9.212  17.916  0.00  0.00    +0.000 S 
ATOM      5  C   UNL     1       1.312   9.092  19.432  0.00  0.00    +0.000 A 
ATOM      6  N   UNL     1       0.515  10.093  19.890  0.00  0.00    +0.000 N 
ATOM      7  C   UNL     1       0.726  11.494  19.534  0.00  0.00    +0.000 C 
ATOM      8  C   UNL     1       1.030  12.290  20.806  0.00  0.00    +0.000 C 
ATOM      9  C   UNL     1      -0.059  12.092  21.875  0.00  0.00    +0.000 C 
ATOM     10  C   UNL     1      -0.257  10.594  22.147  0.00  0.00    +0.000 C 
ATOM     11  C   UNL     1      -0.529   9.815  20.862  0.00  0.00    +0.000 C 
ATOM     12  N   UNL     1       1.515   7.951  20.062  0.00  0.00    +0.000 NA
ATOM     13  C   UNL     1       2.418   7.156  19.368  0.00  0.00    +0.000 A 
ATOM     14  C   UNL     1       2.923   5.899  19.761  0.00  0.00    +0.000 A 
ATOM     15  C   UNL     1       3.860   5.247  18.936  0.00  0.00    +0.000 A 
ATOM     16 BR   UNL     1       4.522   3.566  19.532  0.00  0.00    +0.000 Br
ENDROOT
BRANCH   9  17
ATOM     17  C   UNL     1      -1.347  12.790  21.434  0.00  0.00    +0.000 C 
ATOM     18  O   UNL     1      -1.450  13.258  20.301  0.00  0.00    +0.000 OA
ATOM     19  N   UNL     1      -2.307  12.904  22.424  0.00  0.00    +0.000 N 
ATOM     20  H   UNL     1      -2.006  12.778  23.382  0.00  0.00    +0.000 HD
BRANCH  19  21
ATOM     21  C   UNL     1      -3.576  13.494  22.228  0.00  0.00    +0.000 A 
ATOM     22  C   UNL     1      -3.832  14.835  22.525  0.00  0.00    +0.000 A 
ATOM     23  C   UNL     1      -5.127  15.345  22.464  0.00  0.00    +0.000 A 
ATOM     24  C   UNL     1      -6.189  14.524  22.087  0.00  0.00    +0.000 A 
ATOM     25  C   UNL     1      -7.597  15.036  22.144  0.00  0.00    +0.000 C 
ATOM     26  C   UNL     1      -5.921  13.209  21.687  0.00  0.00    +0.000 A 
ATOM     27  C   UNL     1      -4.618  12.699  21.746  0.00  0.00    +0.000 A 
ENDBRANCH  19  21
ENDBRANCH   9  17
BRANCH   1  28
ATOM     28  O   UNL     1       5.227   5.136  16.978  0.00  0.00    +0.000 OA
BRANCH  28  30
ATOM     29  C   UNL     1       5.588   4.465  14.679  0.00  0.00    +0.000 C 
ATOM     30  C   UNL     1       5.404   5.618  15.641  0.00  0.00    +0.000 C 
ENDBRANCH  28  30
ENDBRANCH   1  28
TORSDOF 4
ENDMDL
MODEL 5
REMARK VINA RESULT:      -6.6      2.586      3.848
REMARK  Name = 
REMARK  6 active torsions:
REMARK  status: ('A' for Active; 'I' for Inactive)
REMARK    1  A    between atoms: C_1  and  C_2
REMARK    2  A    between atoms: C_2  and  O_3
REMARK    3  A    between atoms: O_3  and  C_4
REMARK    4  A    between atoms: C_12  and  C_13
REMARK    5  A    between atoms: N_15  and  C_16
REMARK    6  A    between atoms: C_19  and  C_20
REMARK                            x       y       z     vdW  Elec       q    Type
REMARK                         _______ _______ _______ _____ _____    ______ ____
ROOT
ATOM      1  C   UNL     1       2.661   4.894  19.590  0.00  0.00    +0.000 A 
ATOM      2  C   UNL     1       1.993   5.683  20.529  0.00  0.00    +0.000 A 
ATOM      3  C   UNL     1       1.773   7.034  20.244  0.00  0.00    +0.000 A 
ATOM      4  S   UNL     1       0.948   8.166  21.214  0.00  0.00    +0.000 S 
ATOM      5  C   UNL     1       1.181   9.383  20.014  0.00  0.00    +0.000 A 
ATOM      6  N   UNL     1       0.681  10.638  20.172  0.00  0.00    +0.000 N 
ATOM      7  C   UNL     1      -0.520  10.915  20.954  0.00  0.00    +0.000 C 
ATOM      8  C   UNL     1      -1.587  11.513  20.032  0.00  0.00    +0.000 C 
ATOM      9  C   UNL     1      -1.057  12.743  19.273  0.00  0.00    +0.000 C 
ATOM     10  C   UNL     1       0.235  12.380  18.527  0.00  0.00    +0.000 C 
ATOM     11  C   UNL     1       1.272  11.757  19.459  0.00  0.00    +0.000 C 
ATOM     12  N   UNL     1       1.897   8.988  18.980  0.00  0.00    +0.000 NA
ATOM     13  C   UNL     1       2.215   7.640  19.083  0.00  0.00    +0.000 A 
ATOM     14  C   UNL     1       2.914   6.856  18.142  0.00  0.00    +0.000 A 
ATOM     15  C   UNL     1       3.122   5.488  18.408  0.00  0.00    +0.000 A 
ATOM     16 BR   UNL     1       4.051   4.478  17.090  0.00  0.00    +0.000 Br
ENDROOT
BRANCH   9  17
ATOM     17  C   UNL     1      -0.873  13.908  20.246  0.00  0.00    +0.000 C 
ATOM     18  O   UNL     1       0.014  14.740  20.067  0.00  0.00    +0.000 OA
ATOM     19  N   UNL     1      -1.722  13.883  21.340  0.00  0.00    +0.000 N 
ATOM     20  H   UNL     1      -2.181  13.007  21.554  0.00  0.00    +0.000 HD
BRANCH  19  21
ATOM     21  C   UNL     1      -1.736  14.872  22.349  0.00  0.00    +0.000 A 
ATOM     22  C   UNL     1      -1.048  14.722  23.555  0.00  0.00    +0.000 A 
ATOM     23  C   UNL     1      -1.205  15.645  24.588  0.00  0.00    +0.000 A 
ATOM     24  C   UNL     1      -2.044  16.747  24.423  0.00  0.00    +0.000 A 
ATOM     25  C   UNL     1      -2.314  17.669  25.574  0.00  0.00    +0.000 C 
ATOM     26  C   UNL     1      -2.653  16.957  23.180  0.00  0.00    +0.000 A 
ATOM     27  C   UNL     1      -2.491  16.030  22.143  0.00  0.00    +0.000 A 
ENDBRANCH  19  21
ENDBRANCH   9  17
BRANCH   1  28
ATOM     28  O   UNL     1       2.876   3.546  19.780  0.00  0.00    +0.000 OA
BRANCH  28  30
ATOM     29  C   UNL     1       0.888   2.529  18.844  0.00  0.00    +0.000 C 
ATOM     30  C   UNL     1       1.709   2.777  20.090  0.00  0.00    +0.000 C 
ENDBRANCH  28  30
ENDBRANCH   1  28
TORSDOF 4
ENDMDL
MODEL 6
REMARK VINA RESULT:      -6.5      1.401      1.698
REMARK  Name = 
REMARK  6 active torsions:
REMARK  status: ('A' for Active; 'I' for Inactive)
REMARK    1  A    between atoms: C_1  and  C_2
REMARK    2  A    between atoms: C_2  and  O_3
REMARK    3  A    between atoms: O_3  and  C_4
REMARK    4  A    between atoms: C_12  and  C_13
REMARK    5  A    between atoms: N_15  and  C_16
REMARK    6  A    between atoms: C_19  and  C_20
REMARK                            x       y       z     vdW  Elec       q    Type
REMARK                         _______ _______ _______ _____ _____    ______ ____
ROOT
ATOM      1  C   UNL     1       4.132   6.296  17.692  0.00  0.00    +0.000 A 
ATOM      2  C   UNL     1       3.346   7.422  17.436  0.00  0.00    +0.000 A 
ATOM      3  C   UNL     1       2.468   7.875  18.424  0.00  0.00    +0.000 A 
ATOM      4  S   UNL     1       1.455   9.242  18.350  0.00  0.00    +0.000 S 
ATOM      5  C   UNL     1       0.907   8.940  19.957  0.00  0.00    +0.000 A 
ATOM      6  N   UNL     1       0.022   9.770  20.572  0.00  0.00    +0.000 N 
ATOM      7  C   UNL     1      -0.070  11.194  20.260  0.00  0.00    +0.000 C 
ATOM      8  C   UNL     1       0.274  12.001  21.515  0.00  0.00    +0.000 C 
ATOM      9  C   UNL     1      -0.595  11.583  22.715  0.00  0.00    +0.000 C 
ATOM     10  C   UNL     1      -0.485  10.068  22.937  0.00  0.00    +0.000 C 
ATOM     11  C   UNL     1      -0.801   9.284  21.666  0.00  0.00    +0.000 C 
ATOM     12  N   UNL     1       1.397   7.840  20.495  0.00  0.00    +0.000 NA
ATOM     13  C   UNL     1       2.314   7.239  19.642  0.00  0.00    +0.000 A 
ATOM     14  C   UNL     1       3.084   6.085  19.897  0.00  0.00    +0.000 A 
ATOM     15  C   UNL     1       3.988   5.632  18.917  0.00  0.00    +0.000 A 
ATOM     16 BR   UNL     1       5.015   4.085  19.329  0.00  0.00    +0.000 Br
ENDROOT
BRANCH   9  17
ATOM     17  C   UNL     1      -2.036  12.048  22.495  0.00  0.00    +0.000 C 
ATOM     18  O   UNL     1      -2.934  11.685  23.251  0.00  0.00    +0.000 OA
ATOM     19  N   UNL     1      -2.223  12.820  21.361  0.00  0.00    +0.000 N 
ATOM     20  H   UNL     1      -1.501  12.792  20.653  0.00  0.00    +0.000 HD
BRANCH  19  21
ATOM     21  C   UNL     1      -3.467  13.370  20.979  0.00  0.00    +0.000 A 
ATOM     22  C   UNL     1      -4.379  12.677  20.180  0.00  0.00    +0.000 A 
ATOM     23  C   UNL     1      -5.527  13.304  19.697  0.00  0.00    +0.000 A 
ATOM     24  C   UNL     1      -5.791  14.634  20.022  0.00  0.00    +0.000 A 
ATOM     25  C   UNL     1      -6.955  15.347  19.402  0.00  0.00    +0.000 C 
ATOM     26  C   UNL     1      -4.934  15.299  20.908  0.00  0.00    +0.000 A 
ATOM     27  C   UNL     1      -3.783  14.666  21.395  0.00  0.00    +0.000 A 
ENDBRANCH  19  21
ENDBRANCH   9  17
BRANCH   1  28
ATOM     28  O   UNL     1       5.050   5.818  16.783  0.00  0.00    +0.000 OA
BRANCH  28  30
ATOM     29  C   UNL     1       7.158   6.760  17.515  0.00  0.00    +0.000 C 
ATOM     30  C   UNL     1       6.099   6.728  16.435  0.00  0.00    +0.000 C 
ENDBRANCH  28  30
ENDBRANCH   1  28
TORSDOF 4
ENDMDL
MODEL 7
REMARK VINA RESULT:      -6.4      1.345      1.446
REMARK  Name = 
REMARK  6 active torsions:
REMARK  status: ('A' for Active; 'I' for Inactive)
REMARK    1  A    between atoms: C_1  and  C_2
REMARK    2  A    between atoms: C_2  and  O_3
REMARK    3  A    between atoms: O_3  and  C_4
REMARK    4  A    between atoms: C_12  and  C_13
REMARK    5  A    between atoms: N_15  and  C_16
REMARK    6  A    between atoms: C_19  and  C_20
REMARK                            x       y       z     vdW  Elec       q    Type
REMARK                         _______ _______ _______ _____ _____    ______ ____
ROOT
ATOM      1  C   UNL     1       4.232   5.950  17.763  0.00  0.00    +0.000 A 
ATOM      2  C   UNL     1       3.497   7.101  17.468  0.00  0.00    +0.000 A 
ATOM      3  C   UNL     1       2.607   7.599  18.423  0.00  0.00    +0.000 A 
ATOM      4  S   UNL     1       1.647   9.002  18.299  0.00  0.00    +0.000 S 
ATOM      5  C   UNL     1       1.040   8.743  19.892  0.00  0.00    +0.000 A 
ATOM      6  N   UNL     1       0.168   9.613  20.469  0.00  0.00    +0.000 N 
ATOM      7  C   UNL     1       0.138  11.035  20.135  0.00  0.00    +0.000 C 
ATOM      8  C   UNL     1       0.473  11.847  21.389  0.00  0.00    +0.000 C 
ATOM      9  C   UNL     1      -0.447  11.479  22.567  0.00  0.00    +0.000 C 
ATOM     10  C   UNL     1      -0.400   9.964  22.812  0.00  0.00    +0.000 C 
ATOM     11  C   UNL     1      -0.706   9.174  21.542  0.00  0.00    +0.000 C 
ATOM     12  N   UNL     1       1.473   7.633  20.459  0.00  0.00    +0.000 NA
ATOM     13  C   UNL     1       2.392   6.987  19.644  0.00  0.00    +0.000 A 
ATOM     14  C   UNL     1       3.111   5.809  19.938  0.00  0.00    +0.000 A 
ATOM     15  C   UNL     1       4.027   5.310  18.993  0.00  0.00    +0.000 A 
ATOM     16 BR   UNL     1       4.983   3.732  19.457  0.00  0.00    +0.000 Br
ENDROOT
BRANCH   9  17
ATOM     17  C   UNL     1      -1.862  11.993  22.295  0.00  0.00    +0.000 C 
ATOM     18  O   UNL     1      -2.760  11.819  23.117  0.00  0.00    +0.000 OA
ATOM     19  N   UNL     1      -2.032  12.576  21.052  0.00  0.00    +0.000 N 
ATOM     20  H   UNL     1      -1.333  12.385  20.346  0.00  0.00    +0.000 HD
BRANCH  19  21
ATOM     21  C   UNL     1      -3.251  13.135  20.604  0.00  0.00    +0.000 A 
ATOM     22  C   UNL     1      -3.688  14.399  21.008  0.00  0.00    +0.000 A 
ATOM     23  C   UNL     1      -4.961  14.856  20.672  0.00  0.00    +0.000 A 
ATOM     24  C   UNL     1      -5.814  14.060  19.907  0.00  0.00    +0.000 A 
ATOM     25  C   UNL     1      -7.226  14.494  19.652  0.00  0.00    +0.000 C 
ATOM     26  C   UNL     1      -5.340  12.839  19.413  0.00  0.00    +0.000 A 
ATOM     27  C   UNL     1      -4.060  12.383  19.750  0.00  0.00    +0.000 A 
ENDBRANCH  19  21
ENDBRANCH   9  17
BRANCH   1  28
ATOM     28  O   UNL     1       5.160   5.425  16.890  0.00  0.00    +0.000 OA
BRANCH  28  30
ATOM     29  C   UNL     1       5.859   5.162  14.587  0.00  0.00    +0.000 C 
ATOM     30  C   UNL     1       5.246   6.081  15.620  0.00  0.00    +0.000 C 
ENDBRANCH  28  30
ENDBRANCH   1  28
TORSDOF 4
ENDMDL
MODEL 8
REMARK VINA RESULT:      -6.1      2.472      3.725
REMARK  Name = 
REMARK  6 active torsions:
REMARK  status: ('A' for Active; 'I' for Inactive)
REMARK    1  A    between atoms: C_1  and  C_2
REMARK    2  A    between atoms: C_2  and  O_3
REMARK    3  A    between atoms: O_3  and  C_4
REMARK    4  A    between atoms: C_12  and  C_13
REMARK    5  A    between atoms: N_15  and  C_16
REMARK    6  A    between atoms: C_19  and  C_20
REMARK                            x       y       z     vdW  Elec       q    Type
REMARK                         _______ _______ _______ _____ _____    ______ ____
ROOT
ATOM      1  C   UNL     1       2.945   5.315  19.205  0.00  0.00    +0.000 A 
ATOM      2  C   UNL     1       2.176   5.970  20.170  0.00  0.00    +0.000 A 
ATOM      3  C   UNL     1       1.851   7.315  19.979  0.00  0.00    +0.000 A 
ATOM      4  S   UNL     1       0.896   8.295  20.994  0.00  0.00    +0.000 S 
ATOM      5  C   UNL     1       1.068   9.618  19.900  0.00  0.00    +0.000 A 
ATOM      6  N   UNL     1       0.456  10.811  20.129  0.00  0.00    +0.000 N 
ATOM      7  C   UNL     1      -0.793  10.925  20.877  0.00  0.00    +0.000 C 
ATOM      8  C   UNL     1      -1.872  11.503  19.956  0.00  0.00    +0.000 C 
ATOM      9  C   UNL     1      -1.422  12.828  19.316  0.00  0.00    +0.000 C 
ATOM     10  C   UNL     1      -0.077  12.634  18.602  0.00  0.00    +0.000 C 
ATOM     11  C   UNL     1       0.975  12.028  19.529  0.00  0.00    +0.000 C 
ATOM     12  N   UNL     1       1.854   9.366  18.871  0.00  0.00    +0.000 NA
ATOM     13  C   UNL     1       2.283   8.046  18.887  0.00  0.00    +0.000 A 
ATOM     14  C   UNL     1       3.081   7.399  17.922  0.00  0.00    +0.000 A 
ATOM     15  C   UNL     1       3.397   6.037  18.092  0.00  0.00    +0.000 A 
ATOM     16 BR   UNL     1       4.457   5.214  16.745  0.00  0.00    +0.000 Br
ENDROOT
BRANCH   9  17
ATOM     17  C   UNL     1      -1.376  13.925  20.381  0.00  0.00    +0.000 C 
ATOM     18  O   UNL     1      -0.608  14.879  20.266  0.00  0.00    +0.000 OA
ATOM     19  N   UNL     1      -2.196  13.699  21.474  0.00  0.00    +0.000 N 
ATOM     20  H   UNL     1      -2.532  12.756  21.618  0.00  0.00    +0.000 HD
BRANCH  19  21
ATOM     21  C   UNL     1      -2.322  14.593  22.561  0.00  0.00    +0.000 A 
ATOM     22  C   UNL     1      -3.237  15.649  22.560  0.00  0.00    +0.000 A 
ATOM     23  C   UNL     1      -3.231  16.600  23.578  0.00  0.00    +0.000 A 
ATOM     24  C   UNL     1      -2.319  16.500  24.629  0.00  0.00    +0.000 A 
ATOM     25  C   UNL     1      -2.226  17.589  25.655  0.00  0.00    +0.000 C 
ATOM     26  C   UNL     1      -1.473  15.386  24.688  0.00  0.00    +0.000 A 
ATOM     27  C   UNL     1      -1.482  14.430  23.665  0.00  0.00    +0.000 A 
ENDBRANCH  19  21
ENDBRANCH   9  17
BRANCH   1  28
ATOM     28  O   UNL     1       3.267   3.979  19.303  0.00  0.00    +0.000 OA
BRANCH  28  30
ATOM     29  C   UNL     1       1.815   2.155  19.956  0.00  0.00    +0.000 C 
ATOM     30  C   UNL     1       2.264   3.070  18.838  0.00  0.00    +0.000 C 
ENDBRANCH  28  30
ENDBRANCH   1  28
TORSDOF 4
ENDMDL
MODEL 9
REMARK VINA RESULT:      -6.1      1.297      1.577
REMARK  Name = 
REMARK  6 active torsions:
REMARK  status: ('A' for Active; 'I' for Inactive)
REMARK    1  A    between atoms: C_1  and  C_2
REMARK    2  A    between atoms: C_2  and  O_3
REMARK    3  A    between atoms: O_3  and  C_4
REMARK    4  A    between atoms: C_12  and  C_13
REMARK    5  A    between atoms: N_15  and  C_16
REMARK    6  A    between atoms: C_19  and  C_20
REMARK                            x       y       z     vdW  Elec       q    Type
REMARK                         _______ _______ _______ _____ _____    ______ ____
ROOT
ATOM      1  C   UNL     1       3.520   4.872  18.896  0.00  0.00    +0.000 A 
ATOM      2  C   UNL     1       3.292   6.092  18.254  0.00  0.00    +0.000 A 
ATOM      3  C   UNL     1       2.478   7.043  18.876  0.00  0.00    +0.000 A 
ATOM      4  S   UNL     1       2.101   8.603  18.304  0.00  0.00    +0.000 S 
ATOM      5  C   UNL     1       1.174   8.913  19.725  0.00  0.00    +0.000 A 
ATOM      6  N   UNL     1       0.571  10.115  19.930  0.00  0.00    +0.000 N 
ATOM      7  C   UNL     1       1.094  11.362  19.378  0.00  0.00    +0.000 C 
ATOM      8  C   UNL     1       1.465  12.299  20.531  0.00  0.00    +0.000 C 
ATOM      9  C   UNL     1       0.285  12.508  21.496  0.00  0.00    +0.000 C 
ATOM     10  C   UNL     1      -0.239  11.149  21.982  0.00  0.00    +0.000 C 
ATOM     11  C   UNL     1      -0.574  10.221  20.817  0.00  0.00    +0.000 C 
ATOM     12  N   UNL     1       1.089   7.885  20.548  0.00  0.00    +0.000 NA
ATOM     13  C   UNL     1       1.855   6.821  20.090  0.00  0.00    +0.000 A 
ATOM     14  C   UNL     1       2.058   5.581  20.731  0.00  0.00    +0.000 A 
ATOM     15  C   UNL     1       2.895   4.624  20.125  0.00  0.00    +0.000 A 
ATOM     16 BR   UNL     1       3.149   2.981  21.049  0.00  0.00    +0.000 Br
ENDROOT
BRANCH   9  17
ATOM     17  C   UNL     1      -0.794  13.351  20.815  0.00  0.00    +0.000 C 
ATOM     18  O   UNL     1      -0.522  14.050  19.840  0.00  0.00    +0.000 OA
ATOM     19  N   UNL     1      -2.033  13.307  21.432  0.00  0.00    +0.000 N 
ATOM     20  H   UNL     1      -2.067  12.969  22.385  0.00  0.00    +0.000 HD
BRANCH  19  21
ATOM     21  C   UNL     1      -3.174  13.993  20.959  0.00  0.00    +0.000 A 
ATOM     22  C   UNL     1      -3.316  15.378  21.072  0.00  0.00    +0.000 A 
ATOM     23  C   UNL     1      -4.515  16.003  20.735  0.00  0.00    +0.000 A 
ATOM     24  C   UNL     1      -5.590  15.253  20.260  0.00  0.00    +0.000 A 
ATOM     25  C   UNL     1      -6.918  15.904  20.018  0.00  0.00    +0.000 C 
ATOM     26  C   UNL     1      -5.416  13.880  20.046  0.00  0.00    +0.000 A 
ATOM     27  C   UNL     1      -4.209  13.254  20.382  0.00  0.00    +0.000 A 
ENDBRANCH  19  21
ENDBRANCH   9  17
BRANCH   1  28
ATOM     28  O   UNL     1       4.345   3.905  18.366  0.00  0.00    +0.000 OA
BRANCH  28  30
ATOM     29  C   UNL     1       2.585   2.673  17.249  0.00  0.00    +0.000 C 
ATOM     30  C   UNL     1       3.925   3.360  17.110  0.00  0.00    +0.000 C 
ENDBRANCH  28  30
ENDBRANCH   1  28
TORSDOF 4
ENDMDL
