MODEL 1
REMARK VINA RESULT:      -7.2      0.000      0.000
REMARK  Name = 
REMARK  4 active torsions:
REMARK  status: ('A' for Active; 'I' for Inactive)
REMARK    1  A    between atoms: C_1  and  C_2
REMARK    2  A    between atoms: C_13  and  C_14
REMARK    3  A    between atoms: C_15  and  C_16
REMARK    4  A    between atoms: C_19  and  C_20
REMARK                            x       y       z     vdW  Elec       q    Type
REMARK                         _______ _______ _______ _____ _____    ______ ____
ROOT
ATOM      1  C   UNL     1       2.467   2.982  21.488  0.00  0.00    +0.000 C 
ATOM      2  C   UNL     1       1.474   3.874  20.741  0.00  0.00    +0.000 C 
ATOM      3  C   UNL     1       0.365   3.057  20.060  0.00  0.00    +0.000 C 
ATOM      4  C   UNL     1       0.788   2.432  18.728  0.00  0.00    +0.000 C 
ATOM      5  C   UNL     1       1.402   3.466  17.763  0.00  0.00    +0.000 C 
ATOM      6  C   UNL     1       2.605   4.177  18.392  0.00  0.00    +0.000 C 
ATOM      7  O   UNL     1       3.628   3.198  18.667  0.00  0.00    +0.000 OA
ATOM      8  O   UNL     1       4.411   2.933  17.432  0.00  0.00    +0.000 OA
ATOM      9  C   UNL     1       5.048   4.172  17.114  0.00  0.00    +0.000 C 
ATOM     10  C   UNL     1       5.826   4.657  18.355  0.00  0.00    +0.000 C 
ATOM     11  C   UNL     1       6.411   6.033  18.221  0.00  0.00    +0.000 C 
ATOM     12  C   UNL     1       7.217   6.221  16.954  0.00  0.00    +0.000 C 
ATOM     13  C   UNL     1       6.703   5.500  15.690  0.00  0.00    +0.000 C 
ATOM     14  C   UNL     1       7.866   5.520  14.686  0.00  0.00    +0.000 C 
ATOM     15  C   UNL     1       6.118   4.073  15.975  0.00  0.00    +0.000 C 
ATOM     16  C   UNL     1       5.541   3.424  14.705  0.00  0.00    +0.000 C 
ATOM     17  O   UNL     1       4.009   5.016  16.607  0.00  0.00    +0.000 OA
ATOM     18  O   UNL     1       3.043   5.333  17.646  0.00  0.00    +0.000 OA
ATOM     19  C   UNL     1       2.106   4.846  19.723  0.00  0.00    +0.000 C 
ATOM     20  C   UNL     1       3.125   5.784  20.388  0.00  0.00    +0.000 C 
ENDROOT
TORSDOF 0
ENDMDL
MODEL 2
REMARK VINA RESULT:      -6.5      1.336      2.778
REMARK  Name = 
REMARK  4 active torsions:
REMARK  status: ('A' for Active; 'I' for Inactive)
REMARK    1  A    between atoms: C_1  and  C_2
REMARK    2  A    between atoms: C_13  and  C_14
REMARK    3  A    between atoms: C_15  and  C_16
REMARK    4  A    between atoms: C_19  and  C_20
REMARK                            x       y       z     vdW  Elec       q    Type
REMARK                         _______ _______ _______ _____ _____    ______ ____
ROOT
ATOM      1  C   UNL     1       0.499   2.535  18.827  0.00  0.00    +0.000 C 
ATOM      2  C   UNL     1       1.507   2.326  19.960  0.00  0.00    +0.000 C 
ATOM      3  C   UNL     1       1.247   3.272  21.143  0.00  0.00    +0.000 C 
ATOM      4  C   UNL     1       1.792   4.687  20.934  0.00  0.00    +0.000 C 
ATOM      5  C   UNL     1       3.279   4.689  20.525  0.00  0.00    +0.000 C 
ATOM      6  C   UNL     1       3.514   3.864  19.255  0.00  0.00    +0.000 C 
ATOM      7  O   UNL     1       2.777   4.467  18.170  0.00  0.00    +0.000 OA
ATOM      8  O   UNL     1       3.561   5.595  17.601  0.00  0.00    +0.000 OA
ATOM      9  C   UNL     1       4.746   5.001  17.066  0.00  0.00    +0.000 C 
ATOM     10  C   UNL     1       4.335   3.867  16.103  0.00  0.00    +0.000 C 
ATOM     11  C   UNL     1       5.481   3.043  15.592  0.00  0.00    +0.000 C 
ATOM     12  C   UNL     1       6.608   3.874  15.019  0.00  0.00    +0.000 C 
ATOM     13  C   UNL     1       6.906   5.217  15.719  0.00  0.00    +0.000 C 
ATOM     14  C   UNL     1       7.783   6.020  14.745  0.00  0.00    +0.000 C 
ATOM     15  C   UNL     1       5.619   5.972  16.203  0.00  0.00    +0.000 C 
ATOM     16  C   UNL     1       5.963   7.262  16.967  0.00  0.00    +0.000 C 
ATOM     17  O   UNL     1       5.545   4.655  18.201  0.00  0.00    +0.000 OA
ATOM     18  O   UNL     1       4.909   3.609  18.985  0.00  0.00    +0.000 OA
ATOM     19  C   UNL     1       2.989   2.411  19.541  0.00  0.00    +0.000 C 
ATOM     20  C   UNL     1       3.332   1.382  18.452  0.00  0.00    +0.000 C 
ENDROOT
TORSDOF 0
ENDMDL
MODEL 3
REMARK VINA RESULT:      -6.4      1.179      5.662
REMARK  Name = 
REMARK  4 active torsions:
REMARK  status: ('A' for Active; 'I' for Inactive)
REMARK    1  A    between atoms: C_1  and  C_2
REMARK    2  A    between atoms: C_13  and  C_14
REMARK    3  A    between atoms: C_15  and  C_16
REMARK    4  A    between atoms: C_19  and  C_20
REMARK                            x       y       z     vdW  Elec       q    Type
REMARK                         _______ _______ _______ _____ _____    ______ ____
ROOT
ATOM      1  C   UNL     1       5.109   6.881  14.821  0.00  0.00    +0.000 C 
ATOM      2  C   UNL     1       6.334   6.137  15.357  0.00  0.00    +0.000 C 
ATOM      3  C   UNL     1       6.777   5.004  14.418  0.00  0.00    +0.000 C 
ATOM      4  C   UNL     1       5.949   3.724  14.562  0.00  0.00    +0.000 C 
ATOM      5  C   UNL     1       5.862   3.243  16.024  0.00  0.00    +0.000 C 
ATOM      6  C   UNL     1       5.279   4.327  16.938  0.00  0.00    +0.000 C 
ATOM      7  O   UNL     1       3.933   4.618  16.508  0.00  0.00    +0.000 OA
ATOM      8  O   UNL     1       2.998   3.613  17.078  0.00  0.00    +0.000 OA
ATOM      9  C   UNL     1       3.067   3.791  18.495  0.00  0.00    +0.000 C 
ATOM     10  C   UNL     1       2.794   5.275  18.816  0.00  0.00    +0.000 C 
ATOM     11  C   UNL     1       2.997   5.645  20.257  0.00  0.00    +0.000 C 
ATOM     12  C   UNL     1       2.275   4.728  21.219  0.00  0.00    +0.000 C 
ATOM     13  C   UNL     1       2.200   3.235  20.833  0.00  0.00    +0.000 C 
ATOM     14  C   UNL     1       1.116   2.617  21.730  0.00  0.00    +0.000 C 
ATOM     15  C   UNL     1       1.986   2.993  19.298  0.00  0.00    +0.000 C 
ATOM     16  C   UNL     1       2.001   1.497  18.944  0.00  0.00    +0.000 C 
ATOM     17  O   UNL     1       4.331   3.247  18.886  0.00  0.00    +0.000 OA
ATOM     18  O   UNL     1       5.427   4.033  18.344  0.00  0.00    +0.000 OA
ATOM     19  C   UNL     1       6.193   5.596  16.795  0.00  0.00    +0.000 C 
ATOM     20  C   UNL     1       5.888   6.720  17.798  0.00  0.00    +0.000 C 
ENDROOT
TORSDOF 0
ENDMDL
MODEL 4
REMARK VINA RESULT:      -6.4      1.492      5.879
REMARK  Name = 
REMARK  4 active torsions:
REMARK  status: ('A' for Active; 'I' for Inactive)
REMARK    1  A    between atoms: C_1  and  C_2
REMARK    2  A    between atoms: C_13  and  C_14
REMARK    3  A    between atoms: C_15  and  C_16
REMARK    4  A    between atoms: C_19  and  C_20
REMARK                            x       y       z     vdW  Elec       q    Type
REMARK                         _______ _______ _______ _____ _____    ______ ____
ROOT
ATOM      1  C   UNL     1       5.275   5.413  14.806  0.00  0.00    +0.000 C 
ATOM      2  C   UNL     1       6.007   6.282  15.831  0.00  0.00    +0.000 C 
ATOM      3  C   UNL     1       7.469   5.849  16.014  0.00  0.00    +0.000 C 
ATOM      4  C   UNL     1       7.645   4.636  16.932  0.00  0.00    +0.000 C 
ATOM      5  C   UNL     1       6.937   4.820  18.289  0.00  0.00    +0.000 C 
ATOM      6  C   UNL     1       5.442   5.106  18.110  0.00  0.00    +0.000 C 
ATOM      7  O   UNL     1       4.829   3.970  17.465  0.00  0.00    +0.000 OA
ATOM      8  O   UNL     1       4.524   2.926  18.478  0.00  0.00    +0.000 OA
ATOM      9  C   UNL     1       3.563   3.519  19.355  0.00  0.00    +0.000 C 
ATOM     10  C   UNL     1       2.387   4.050  18.509  0.00  0.00    +0.000 C 
ATOM     11  C   UNL     1       1.377   4.848  19.282  0.00  0.00    +0.000 C 
ATOM     12  C   UNL     1       0.888   4.146  20.530  0.00  0.00    +0.000 C 
ATOM     13  C   UNL     1       1.923   3.299  21.301  0.00  0.00    +0.000 C 
ATOM     14  C   UNL     1       1.115   2.407  22.257  0.00  0.00    +0.000 C 
ATOM     15  C   UNL     1       2.915   2.519  20.371  0.00  0.00    +0.000 C 
ATOM     16  C   UNL     1       3.979   1.756  21.178  0.00  0.00    +0.000 C 
ATOM     17  O   UNL     1       4.296   4.462  20.142  0.00  0.00    +0.000 OA
ATOM     18  O   UNL     1       4.793   5.553  19.320  0.00  0.00    +0.000 OA
ATOM     19  C   UNL     1       5.319   6.387  17.208  0.00  0.00    +0.000 C 
ATOM     20  C   UNL     1       3.894   6.951  17.091  0.00  0.00    +0.000 C 
ENDROOT
TORSDOF 0
ENDMDL
MODEL 5
REMARK VINA RESULT:      -6.3      1.427      2.371
REMARK  Name = 
REMARK  4 active torsions:
REMARK  status: ('A' for Active; 'I' for Inactive)
REMARK    1  A    between atoms: C_1  and  C_2
REMARK    2  A    between atoms: C_13  and  C_14
REMARK    3  A    between atoms: C_15  and  C_16
REMARK    4  A    between atoms: C_19  and  C_20
REMARK                            x       y       z     vdW  Elec       q    Type
REMARK                         _______ _______ _______ _____ _____    ______ ____
ROOT
ATOM      1  C   UNL     1       1.156   5.358  20.729  0.00  0.00    +0.000 C 
ATOM      2  C   UNL     1       1.060   3.917  20.226  0.00  0.00    +0.000 C 
ATOM      3  C   UNL     1       1.495   2.903  21.295  0.00  0.00    +0.000 C 
ATOM      4  C   UNL     1       3.013   2.748  21.419  0.00  0.00    +0.000 C 
ATOM      5  C   UNL     1       3.686   2.460  20.061  0.00  0.00    +0.000 C 
ATOM      6  C   UNL     1       3.371   3.554  19.035  0.00  0.00    +0.000 C 
ATOM      7  O   UNL     1       3.907   4.804  19.515  0.00  0.00    +0.000 OA
ATOM      8  O   UNL     1       5.354   4.887  19.183  0.00  0.00    +0.000 OA
ATOM      9  C   UNL     1       5.416   4.889  17.755  0.00  0.00    +0.000 C 
ATOM     10  C   UNL     1       4.502   6.013  17.225  0.00  0.00    +0.000 C 
ATOM     11  C   UNL     1       4.338   6.028  15.733  0.00  0.00    +0.000 C 
ATOM     12  C   UNL     1       5.653   5.984  14.985  0.00  0.00    +0.000 C 
ATOM     13  C   UNL     1       6.778   5.129  15.607  0.00  0.00    +0.000 C 
ATOM     14  C   UNL     1       8.076   5.556  14.904  0.00  0.00    +0.000 C 
ATOM     15  C   UNL     1       6.834   5.206  17.172  0.00  0.00    +0.000 C 
ATOM     16  C   UNL     1       7.912   4.277  17.755  0.00  0.00    +0.000 C 
ATOM     17  O   UNL     1       5.118   3.546  17.359  0.00  0.00    +0.000 OA
ATOM     18  O   UNL     1       3.745   3.200  17.686  0.00  0.00    +0.000 OA
ATOM     19  C   UNL     1       1.808   3.634  18.906  0.00  0.00    +0.000 C 
ATOM     20  C   UNL     1       1.306   4.533  17.765  0.00  0.00    +0.000 C 
ENDROOT
TORSDOF 0
ENDMDL
MODEL 6
REMARK VINA RESULT:      -6.0      9.409     12.316
REMARK  Name = 
REMARK  4 active torsions:
REMARK  status: ('A' for Active; 'I' for Inactive)
REMARK    1  A    between atoms: C_1  and  C_2
REMARK    2  A    between atoms: C_13  and  C_14
REMARK    3  A    between atoms: C_15  and  C_16
REMARK    4  A    between atoms: C_19  and  C_20
REMARK                            x       y       z     vdW  Elec       q    Type
REMARK                         _______ _______ _______ _____ _____    ______ ____
ROOT
ATOM      1  C   UNL     1      12.333  11.474  18.813  0.00  0.00    +0.000 C 
ATOM      2  C   UNL     1      11.220  11.917  17.860  0.00  0.00    +0.000 C 
ATOM      3  C   UNL     1      11.621  13.153  17.041  0.00  0.00    +0.000 C 
ATOM      4  C   UNL     1      11.478  14.472  17.804  0.00  0.00    +0.000 C 
ATOM      5  C   UNL     1      10.078  14.639  18.430  0.00  0.00    +0.000 C 
ATOM      6  C   UNL     1       9.739  13.474  19.367  0.00  0.00    +0.000 C 
ATOM      7  O   UNL     1      10.688  13.464  20.453  0.00  0.00    +0.000 OA
ATOM      8  O   UNL     1      10.269  14.441  21.492  0.00  0.00    +0.000 OA
ATOM      9  C   UNL     1       9.016  13.958  21.983  0.00  0.00    +0.000 C 
ATOM     10  C   UNL     1       9.195  12.490  22.423  0.00  0.00    +0.000 C 
ATOM     11  C   UNL     1       7.919  11.798  22.807  0.00  0.00    +0.000 C 
ATOM     12  C   UNL     1       7.092  12.579  23.806  0.00  0.00    +0.000 C 
ATOM     13  C   UNL     1       7.097  14.116  23.662  0.00  0.00    +0.000 C 
ATOM     14  C   UNL     1       6.535  14.669  24.981  0.00  0.00    +0.000 C 
ATOM     15  C   UNL     1       8.493  14.704  23.256  0.00  0.00    +0.000 C 
ATOM     16  C   UNL     1       8.435  16.226  23.041  0.00  0.00    +0.000 C 
ATOM     17  O   UNL     1       8.069  14.232  20.947  0.00  0.00    +0.000 OA
ATOM     18  O   UNL     1       8.350  13.440  19.761  0.00  0.00    +0.000 OA
ATOM     19  C   UNL     1       9.847  12.154  18.523  0.00  0.00    +0.000 C 
ATOM     20  C   UNL     1       9.337  10.894  19.240  0.00  0.00    +0.000 C 
ENDROOT
TORSDOF 0
ENDMDL
MODEL 7
REMARK VINA RESULT:      -5.9      1.759      2.789
REMARK  Name = 
REMARK  4 active torsions:
REMARK  status: ('A' for Active; 'I' for Inactive)
REMARK    1  A    between atoms: C_1  and  C_2
REMARK    2  A    between atoms: C_13  and  C_14
REMARK    3  A    between atoms: C_15  and  C_16
REMARK    4  A    between atoms: C_19  and  C_20
REMARK                            x       y       z     vdW  Elec       q    Type
REMARK                         _______ _______ _______ _____ _____    ______ ____
ROOT
ATOM      1  C   UNL     1       0.549   4.432  20.459  0.00  0.00    +0.000 C 
ATOM      2  C   UNL     1       1.015   3.084  19.904  0.00  0.00    +0.000 C 
ATOM      3  C   UNL     1       1.481   2.133  21.018  0.00  0.00    +0.000 C 
ATOM      4  C   UNL     1       2.903   2.410  21.511  0.00  0.00    +0.000 C 
ATOM      5  C   UNL     1       3.924   2.471  20.357  0.00  0.00    +0.000 C 
ATOM      6  C   UNL     1       3.535   3.529  19.318  0.00  0.00    +0.000 C 
ATOM      7  O   UNL     1       3.539   4.824  19.954  0.00  0.00    +0.000 OA
ATOM      8  O   UNL     1       4.927   5.355  19.997  0.00  0.00    +0.000 OA
ATOM      9  C   UNL     1       5.311   5.523  18.630  0.00  0.00    +0.000 C 
ATOM     10  C   UNL     1       4.244   6.385  17.923  0.00  0.00    +0.000 C 
ATOM     11  C   UNL     1       4.430   6.506  16.438  0.00  0.00    +0.000 C 
ATOM     12  C   UNL     1       5.831   6.922  16.042  0.00  0.00    +0.000 C 
ATOM     13  C   UNL     1       6.988   6.367  16.899  0.00  0.00    +0.000 C 
ATOM     14  C   UNL     1       8.219   7.222  16.556  0.00  0.00    +0.000 C 
ATOM     15  C   UNL     1       6.658   6.294  18.430  0.00  0.00    +0.000 C 
ATOM     16  C   UNL     1       7.804   5.660  19.236  0.00  0.00    +0.000 C 
ATOM     17  O   UNL     1       5.536   4.200  18.132  0.00  0.00    +0.000 OA
ATOM     18  O   UNL     1       4.297   3.440  18.095  0.00  0.00    +0.000 OA
ATOM     19  C   UNL     1       2.094   3.168  18.805  0.00  0.00    +0.000 C 
ATOM     20  C   UNL     1       1.618   3.998  17.602  0.00  0.00    +0.000 C 
ENDROOT
TORSDOF 0
ENDMDL
MODEL 8
REMARK VINA RESULT:      -5.7      1.834      2.557
REMARK  Name = 
REMARK  4 active torsions:
REMARK  status: ('A' for Active; 'I' for Inactive)
REMARK    1  A    between atoms: C_1  and  C_2
REMARK    2  A    between atoms: C_13  and  C_14
REMARK    3  A    between atoms: C_15  and  C_16
REMARK    4  A    between atoms: C_19  and  C_20
REMARK                            x       y       z     vdW  Elec       q    Type
REMARK                         _______ _______ _______ _____ _____    ______ ____
ROOT
ATOM      1  C   UNL     1       0.714   3.401  20.157  0.00  0.00    +0.000 C 
ATOM      2  C   UNL     1       0.867   2.708  18.801  0.00  0.00    +0.000 C 
ATOM      3  C   UNL     1       1.332   1.251  18.948  0.00  0.00    +0.000 C 
ATOM      4  C   UNL     1       2.838   1.105  19.181  0.00  0.00    +0.000 C 
ATOM      5  C   UNL     1       3.672   1.860  18.126  0.00  0.00    +0.000 C 
ATOM      6  C   UNL     1       3.309   3.349  18.084  0.00  0.00    +0.000 C 
ATOM      7  O   UNL     1       3.619   3.935  19.365  0.00  0.00    +0.000 OA
ATOM      8  O   UNL     1       5.066   4.273  19.423  0.00  0.00    +0.000 OA
ATOM      9  C   UNL     1       5.264   5.265  18.413  0.00  0.00    +0.000 C 
ATOM     10  C   UNL     1       4.259   6.412  18.648  0.00  0.00    +0.000 C 
ATOM     11  C   UNL     1       4.238   7.451  17.565  0.00  0.00    +0.000 C 
ATOM     12  C   UNL     1       5.613   7.981  17.217  0.00  0.00    +0.000 C 
ATOM     13  C   UNL     1       6.779   6.972  17.266  0.00  0.00    +0.000 C 
ATOM     14  C   UNL     1       8.068   7.810  17.268  0.00  0.00    +0.000 C 
ATOM     15  C   UNL     1       6.674   5.945  18.446  0.00  0.00    +0.000 C 
ATOM     16  C   UNL     1       7.808   4.907  18.409  0.00  0.00    +0.000 C 
ATOM     17  O   UNL     1       5.193   4.562  17.169  0.00  0.00    +0.000 OA
ATOM     18  O   UNL     1       3.856   4.041  16.940  0.00  0.00    +0.000 OA
ATOM     19  C   UNL     1       1.769   3.444  17.789  0.00  0.00    +0.000 C 
ATOM     20  C   UNL     1       1.261   4.865  17.501  0.00  0.00    +0.000 C 
ENDROOT
TORSDOF 0
ENDMDL
MODEL 9
REMARK VINA RESULT:      -5.7      9.699     12.409
REMARK  Name = 
REMARK  4 active torsions:
REMARK  status: ('A' for Active; 'I' for Inactive)
REMARK    1  A    between atoms: C_1  and  C_2
REMARK    2  A    between atoms: C_13  and  C_14
REMARK    3  A    between atoms: C_15  and  C_16
REMARK    4  A    between atoms: C_19  and  C_20
REMARK                            x       y       z     vdW  Elec       q    Type
REMARK                         _______ _______ _______ _____ _____    ______ ____
ROOT
ATOM      1  C   UNL     1       9.270  10.494  19.170  0.00  0.00    +0.000 C 
ATOM      2  C   UNL     1      10.192  11.338  18.287  0.00  0.00    +0.000 C 
ATOM      3  C   UNL     1      11.616  11.425  18.858  0.00  0.00    +0.000 C 
ATOM      4  C   UNL     1      11.768  12.452  19.983  0.00  0.00    +0.000 C 
ATOM      5  C   UNL     1      11.235  13.843  19.583  0.00  0.00    +0.000 C 
ATOM      6  C   UNL     1       9.765  13.779  19.153  0.00  0.00    +0.000 C 
ATOM      7  O   UNL     1       8.975  13.330  20.275  0.00  0.00    +0.000 OA
ATOM      8  O   UNL     1       8.680  14.480  21.169  0.00  0.00    +0.000 OA
ATOM      9  C   UNL     1       7.884  15.374  20.387  0.00  0.00    +0.000 C 
ATOM     10  C   UNL     1       6.682  14.591  19.818  0.00  0.00    +0.000 C 
ATOM     11  C   UNL     1       5.847  15.364  18.839  0.00  0.00    +0.000 C 
ATOM     12  C   UNL     1       5.430  16.726  19.350  0.00  0.00    +0.000 C 
ATOM     13  C   UNL     1       6.453  17.483  20.223  0.00  0.00    +0.000 C 
ATOM     14  C   UNL     1       5.669  18.608  20.918  0.00  0.00    +0.000 C 
ATOM     15  C   UNL     1       7.255  16.555  21.199  0.00  0.00    +0.000 C 
ATOM     16  C   UNL     1       8.320  17.335  21.989  0.00  0.00    +0.000 C 
ATOM     17  O   UNL     1       8.790  15.974  19.455  0.00  0.00    +0.000 OA
ATOM     18  O   UNL     1       9.300  14.988  18.516  0.00  0.00    +0.000 OA
ATOM     19  C   UNL     1       9.672  12.755  17.966  0.00  0.00    +0.000 C 
ATOM     20  C   UNL     1       8.306  12.714  17.262  0.00  0.00    +0.000 C 
ENDROOT
TORSDOF 0
ENDMDL
