MODEL 1
REMARK VINA RESULT:      -8.4      0.000      0.000
REMARK  Name = 
REMARK  10 active torsions:
REMARK  status: ('A' for Active; 'I' for Inactive)
REMARK    1  A    between atoms: C_1  and  O_2
REMARK    2  A    between atoms: O_2  and  C_3
REMARK    3  A    between atoms: C_6  and  C_7
REMARK    4  A    between atoms: C_11  and  O_12
REMARK    5  A    between atoms: O_12  and  C_13
REMARK    6  A    between atoms: C_18  and  N_19
REMARK    7  A    between atoms: N_19  and  C_20
REMARK    8  A    between atoms: C_23  and  N_24
REMARK    9  A    between atoms: C_25  and  C_27
REMARK   10  A    between atoms: C_27  and  N_28
REMARK                            x       y       z     vdW  Elec       q    Type
REMARK                         _______ _______ _______ _____ _____    ______ ____
ROOT
ATOM      1  C   UNL     1       5.460   5.453  18.180  0.00  0.00    +0.000 A 
ATOM      2  C   UNL     1       5.418   4.438  19.127  0.00  0.00    +0.000 A 
ATOM      3  C   UNL     1       4.377   3.527  19.028  0.00  0.00    +0.000 A 
ATOM      4  C   UNL     1       3.415   3.288  20.022  0.00  0.00    +0.000 A 
ATOM      5  C   UNL     1       2.345   2.456  19.710  0.00  0.00    +0.000 A 
ATOM      6  C   UNL     1       2.476   1.618  18.613  0.00  0.00    +0.000 A 
ATOM      7  C   UNL     1       3.380   1.981  17.618  0.00  0.00    +0.000 A 
ATOM      8  C   UNL     1       3.982   3.216  17.755  0.00  0.00    +0.000 A 
ATOM      9  N   UNL     1       3.851   4.243  16.888  0.00  0.00    +0.000 NA
ATOM     10  C   UNL     1       4.355   5.433  17.293  0.00  0.00    +0.000 A 
ENDROOT
BRANCH   1  14
ATOM     11  C   UNL     1       8.458   8.574  18.318  0.00  0.00    +0.000 A 
ATOM     12  C   UNL     1       8.572   7.421  19.110  0.00  0.00    +0.000 A 
ATOM     13  C   UNL     1       7.627   6.402  19.016  0.00  0.00    +0.000 A 
ATOM     14  C   UNL     1       6.538   6.479  18.138  0.00  0.00    +0.000 A 
ATOM     15  C   UNL     1       6.455   7.630  17.326  0.00  0.00    +0.000 A 
ATOM     16  C   UNL     1       7.404   8.655  17.425  0.00  0.00    +0.000 A 
BRANCH  11  18
ATOM     17  C   UNL     1       9.050  10.857  18.256  0.00  0.00    +0.000 C 
ATOM     18  O   UNL     1       9.409   9.519  18.557  0.00  0.00    +0.000 OA
ENDBRANCH  11  18
ENDBRANCH   1  14
BRANCH   5  19
ATOM     19  O   UNL     1       1.213   2.576  20.468  0.00  0.00    +0.000 OA
ATOM     20  C   UNL     1       1.436   2.650  21.880  0.00  0.00    +0.000 C 
ENDBRANCH   5  19
BRANCH  10  21
ATOM     21  N   UNL     1       3.644   6.678  17.157  0.00  0.00    +0.000 N 
ATOM     22  H   UNL     1       4.336   7.347  16.817  0.00  0.00    +0.000 HD
BRANCH  21  23
ATOM     23  C   UNL     1       2.749   7.382  18.005  0.00  0.00    +0.000 A 
ATOM     24  C   UNL     1       2.555   6.885  19.308  0.00  0.00    +0.000 A 
ATOM     25  C   UNL     1       1.855   7.602  20.291  0.00  0.00    +0.000 A 
ATOM     26  C   UNL     1       1.333   8.863  20.017  0.00  0.00    +0.000 A 
ATOM     27  C   UNL     1       1.471   9.347  18.710  0.00  0.00    +0.000 A 
ATOM     28  C   UNL     1       2.174   8.616  17.714  0.00  0.00    +0.000 A 
BRANCH  26  29
ATOM     29  N   UNL     1       0.715   9.674  21.018  0.00  0.00    +0.000 N 
ATOM     30  C   UNL     1      -0.271   9.279  21.901  0.00  0.00    +0.000 C 
ATOM     31  O   UNL     1      -0.823   8.182  21.955  0.00  0.00    +0.000 OA
ATOM     32  H   UNL     1       1.045  10.627  21.112  0.00  0.00    +0.000 HD
BRANCH  30  33
ATOM     33  C   UNL     1      -0.629  10.325  22.986  0.00  0.00    +0.000 C 
BRANCH  33  34
ATOM     34  N   UNL     1      -1.462  11.442  22.467  0.00  0.00    +0.000 NA
ATOM     35  C   UNL     1      -2.543  11.779  23.406  0.00  0.00    +0.000 C 
ATOM     36  C   UNL     1      -3.402  12.907  22.840  0.00  0.00    +0.000 C 
ATOM     37  C   UNL     1      -2.569  14.154  22.574  0.00  0.00    +0.000 C 
ATOM     38  C   UNL     1      -1.355  13.813  21.716  0.00  0.00    +0.000 C 
ATOM     39  C   UNL     1      -0.582  12.623  22.287  0.00  0.00    +0.000 C 
ENDBRANCH  33  34
ENDBRANCH  30  33
ENDBRANCH  26  29
ENDBRANCH  21  23
ENDBRANCH  10  21
TORSDOF 8
ENDMDL
MODEL 2
REMARK VINA RESULT:      -8.3      2.544      3.246
REMARK  Name = 
REMARK  10 active torsions:
REMARK  status: ('A' for Active; 'I' for Inactive)
REMARK    1  A    between atoms: C_1  and  O_2
REMARK    2  A    between atoms: O_2  and  C_3
REMARK    3  A    between atoms: C_6  and  C_7
REMARK    4  A    between atoms: C_11  and  O_12
REMARK    5  A    between atoms: O_12  and  C_13
REMARK    6  A    between atoms: C_18  and  N_19
REMARK    7  A    between atoms: N_19  and  C_20
REMARK    8  A    between atoms: C_23  and  N_24
REMARK    9  A    between atoms: C_25  and  C_27
REMARK   10  A    between atoms: C_27  and  N_28
REMARK                            x       y       z     vdW  Elec       q    Type
REMARK                         _______ _______ _______ _____ _____    ______ ____
ROOT
ATOM      1  C   UNL     1       4.129   3.919  17.043  0.00  0.00    +0.000 A 
ATOM      2  C   UNL     1       3.989   2.703  17.699  0.00  0.00    +0.000 A 
ATOM      3  C   UNL     1       2.867   2.544  18.499  0.00  0.00    +0.000 A 
ATOM      4  C   UNL     1       2.888   2.280  19.877  0.00  0.00    +0.000 A 
ATOM      5  C   UNL     1       1.679   2.302  20.566  0.00  0.00    +0.000 A 
ATOM      6  C   UNL     1       0.511   2.195  19.825  0.00  0.00    +0.000 A 
ATOM      7  C   UNL     1       0.550   2.578  18.487  0.00  0.00    +0.000 A 
ATOM      8  C   UNL     1       1.726   3.147  18.044  0.00  0.00    +0.000 A 
ATOM      9  N   UNL     1       1.848   4.407  17.572  0.00  0.00    +0.000 NA
ATOM     10  C   UNL     1       3.112   4.849  17.373  0.00  0.00    +0.000 A 
ENDROOT
BRANCH   1  14
ATOM     11  C   UNL     1       7.320   5.097  14.364  0.00  0.00    +0.000 A 
ATOM     12  C   UNL     1       7.438   5.264  15.752  0.00  0.00    +0.000 A 
ATOM     13  C   UNL     1       6.424   4.833  16.605  0.00  0.00    +0.000 A 
ATOM     14  C   UNL     1       5.261   4.219  16.124  0.00  0.00    +0.000 A 
ATOM     15  C   UNL     1       5.172   4.029  14.728  0.00  0.00    +0.000 A 
ATOM     16  C   UNL     1       6.190   4.467  13.872  0.00  0.00    +0.000 A 
BRANCH  11  18
ATOM     17  C   UNL     1       8.108   5.816  12.259  0.00  0.00    +0.000 C 
ATOM     18  O   UNL     1       8.348   5.623  13.643  0.00  0.00    +0.000 OA
ENDBRANCH  11  18
ENDBRANCH   1  14
BRANCH   5  19
ATOM     19  O   UNL     1       1.730   2.497  21.918  0.00  0.00    +0.000 OA
ATOM     20  C   UNL     1       2.319   3.736  22.328  0.00  0.00    +0.000 C 
ENDBRANCH   5  19
BRANCH  10  21
ATOM     21  N   UNL     1       3.571   6.148  17.798  0.00  0.00    +0.000 N 
ATOM     22  H   UNL     1       4.407   5.969  18.354  0.00  0.00    +0.000 HD
BRANCH  21  23
ATOM     23  C   UNL     1       2.913   7.271  18.364  0.00  0.00    +0.000 A 
ATOM     24  C   UNL     1       2.730   8.403  17.546  0.00  0.00    +0.000 A 
ATOM     25  C   UNL     1       1.925   9.486  17.931  0.00  0.00    +0.000 A 
ATOM     26  C   UNL     1       1.250   9.477  19.149  0.00  0.00    +0.000 A 
ATOM     27  C   UNL     1       1.466   8.382  19.996  0.00  0.00    +0.000 A 
ATOM     28  C   UNL     1       2.288   7.289  19.607  0.00  0.00    +0.000 A 
BRANCH  26  29
ATOM     29  N   UNL     1       0.333  10.505  19.528  0.00  0.00    +0.000 N 
ATOM     30  C   UNL     1       0.583  11.863  19.543  0.00  0.00    +0.000 C 
ATOM     31  O   UNL     1       1.644  12.425  19.280  0.00  0.00    +0.000 OA
ATOM     32  H   UNL     1      -0.603  10.218  19.790  0.00  0.00    +0.000 HD
BRANCH  30  33
ATOM     33  C   UNL     1      -0.653  12.748  19.839  0.00  0.00    +0.000 C 
BRANCH  33  34
ATOM     34  N   UNL     1      -1.540  12.182  20.888  0.00  0.00    +0.000 NA
ATOM     35  C   UNL     1      -0.840  12.085  22.179  0.00  0.00    +0.000 C 
ATOM     36  C   UNL     1      -1.760  11.474  23.234  0.00  0.00    +0.000 C 
ATOM     37  C   UNL     1      -3.021  12.308  23.414  0.00  0.00    +0.000 C 
ATOM     38  C   UNL     1      -3.700  12.550  22.070  0.00  0.00    +0.000 C 
ATOM     39  C   UNL     1      -2.712  13.082  21.031  0.00  0.00    +0.000 C 
ENDBRANCH  33  34
ENDBRANCH  30  33
ENDBRANCH  26  29
ENDBRANCH  21  23
ENDBRANCH  10  21
TORSDOF 8
ENDMDL
MODEL 3
REMARK VINA RESULT:      -8.3      3.300     10.766
REMARK  Name = 
REMARK  10 active torsions:
REMARK  status: ('A' for Active; 'I' for Inactive)
REMARK    1  A    between atoms: C_1  and  O_2
REMARK    2  A    between atoms: O_2  and  C_3
REMARK    3  A    between atoms: C_6  and  C_7
REMARK    4  A    between atoms: C_11  and  O_12
REMARK    5  A    between atoms: O_12  and  C_13
REMARK    6  A    between atoms: C_18  and  N_19
REMARK    7  A    between atoms: N_19  and  C_20
REMARK    8  A    between atoms: C_23  and  N_24
REMARK    9  A    between atoms: C_25  and  C_27
REMARK   10  A    between atoms: C_27  and  N_28
REMARK                            x       y       z     vdW  Elec       q    Type
REMARK                         _______ _______ _______ _____ _____    ______ ____
ROOT
ATOM      1  C   UNL     1      -1.888  12.559  19.800  0.00  0.00    +0.000 A 
ATOM      2  C   UNL     1      -2.402  13.739  20.322  0.00  0.00    +0.000 A 
ATOM      3  C   UNL     1      -1.703  14.320  21.370  0.00  0.00    +0.000 A 
ATOM      4  C   UNL     1      -2.223  14.564  22.651  0.00  0.00    +0.000 A 
ATOM      5  C   UNL     1      -1.350  15.010  23.637  0.00  0.00    +0.000 A 
ATOM      6  C   UNL     1      -0.139  15.553  23.232  0.00  0.00    +0.000 A 
ATOM      7  C   UNL     1       0.360  15.178  21.987  0.00  0.00    +0.000 A 
ATOM      8  C   UNL     1      -0.341  14.198  21.313  0.00  0.00    +0.000 A 
ATOM      9  N   UNL     1       0.150  12.985  20.978  0.00  0.00    +0.000 NA
ATOM     10  C   UNL     1      -0.747  12.091  20.498  0.00  0.00    +0.000 A 
ENDROOT
BRANCH   1  14
ATOM     11  C   UNL     1      -3.700  10.759  16.303  0.00  0.00    +0.000 A 
ATOM     12  C   UNL     1      -2.313  10.954  16.384  0.00  0.00    +0.000 A 
ATOM     13  C   UNL     1      -1.739  11.486  17.537  0.00  0.00    +0.000 A 
ATOM     14  C   UNL     1      -2.508  11.843  18.651  0.00  0.00    +0.000 A 
ATOM     15  C   UNL     1      -3.897  11.611  18.566  0.00  0.00    +0.000 A 
ATOM     16  C   UNL     1      -4.473  11.081  17.405  0.00  0.00    +0.000 A 
BRANCH  11  18
ATOM     17  C   UNL     1      -3.137  10.072  14.117  0.00  0.00    +0.000 C 
ATOM     18  O   UNL     1      -4.135  10.297  15.099  0.00  0.00    +0.000 OA
ENDBRANCH  11  18
ENDBRANCH   1  14
BRANCH   5  19
ATOM     19  O   UNL     1      -1.720  14.818  24.940  0.00  0.00    +0.000 OA
ATOM     20  C   UNL     1      -1.221  15.794  25.860  0.00  0.00    +0.000 C 
ENDBRANCH   5  19
BRANCH  10  21
ATOM     21  N   UNL     1      -0.803  10.719  20.933  0.00  0.00    +0.000 N 
ATOM     22  H   UNL     1      -0.905  10.762  21.948  0.00  0.00    +0.000 HD
BRANCH  21  23
ATOM     23  C   UNL     1      -0.021   9.573  20.631  0.00  0.00    +0.000 A 
ATOM     24  C   UNL     1       0.800   9.625  19.488  0.00  0.00    +0.000 A 
ATOM     25  C   UNL     1       1.757   8.637  19.205  0.00  0.00    +0.000 A 
ATOM     26  C   UNL     1       1.948   7.560  20.066  0.00  0.00    +0.000 A 
ATOM     27  C   UNL     1       1.101   7.467  21.178  0.00  0.00    +0.000 A 
ATOM     28  C   UNL     1       0.127   8.464  21.460  0.00  0.00    +0.000 A 
BRANCH  26  29
ATOM     29  N   UNL     1       2.986   6.597  19.875  0.00  0.00    +0.000 N 
ATOM     30  C   UNL     1       2.854   5.354  19.288  0.00  0.00    +0.000 C 
ATOM     31  O   UNL     1       1.820   4.837  18.869  0.00  0.00    +0.000 OA
ATOM     32  H   UNL     1       3.918   6.854  20.175  0.00  0.00    +0.000 HD
BRANCH  30  33
ATOM     33  C   UNL     1       4.186   4.595  19.066  0.00  0.00    +0.000 C 
BRANCH  33  34
ATOM     34  N   UNL     1       4.987   5.139  17.938  0.00  0.00    +0.000 NA
ATOM     35  C   UNL     1       6.429   4.991  18.191  0.00  0.00    +0.000 C 
ATOM     36  C   UNL     1       7.231   5.583  17.035  0.00  0.00    +0.000 C 
ATOM     37  C   UNL     1       6.885   4.900  15.718  0.00  0.00    +0.000 C 
ATOM     38  C   UNL     1       5.377   4.909  15.490  0.00  0.00    +0.000 C 
ATOM     39  C   UNL     1       4.623   4.384  16.713  0.00  0.00    +0.000 C 
ENDBRANCH  33  34
ENDBRANCH  30  33
ENDBRANCH  26  29
ENDBRANCH  21  23
ENDBRANCH  10  21
TORSDOF 8
ENDMDL
MODEL 4
REMARK VINA RESULT:      -8.3      3.587      8.993
REMARK  Name = 
REMARK  10 active torsions:
REMARK  status: ('A' for Active; 'I' for Inactive)
REMARK    1  A    between atoms: C_1  and  O_2
REMARK    2  A    between atoms: O_2  and  C_3
REMARK    3  A    between atoms: C_6  and  C_7
REMARK    4  A    between atoms: C_11  and  O_12
REMARK    5  A    between atoms: O_12  and  C_13
REMARK    6  A    between atoms: C_18  and  N_19
REMARK    7  A    between atoms: N_19  and  C_20
REMARK    8  A    between atoms: C_23  and  N_24
REMARK    9  A    between atoms: C_25  and  C_27
REMARK   10  A    between atoms: C_27  and  N_28
REMARK                            x       y       z     vdW  Elec       q    Type
REMARK                         _______ _______ _______ _____ _____    ______ ____
ROOT
ATOM      1  C   UNL     1       0.615  12.771  19.371  0.00  0.00    +0.000 A 
ATOM      2  C   UNL     1      -0.220  13.047  18.296  0.00  0.00    +0.000 A 
ATOM      3  C   UNL     1      -1.465  12.434  18.293  0.00  0.00    +0.000 A 
ATOM      4  C   UNL     1      -1.934  11.564  17.296  0.00  0.00    +0.000 A 
ATOM      5  C   UNL     1      -3.142  10.910  17.515  0.00  0.00    +0.000 A 
ATOM      6  C   UNL     1      -3.989  11.424  18.486  0.00  0.00    +0.000 A 
ATOM      7  C   UNL     1      -3.427  12.193  19.501  0.00  0.00    +0.000 A 
ATOM      8  C   UNL     1      -2.050  12.276  19.519  0.00  0.00    +0.000 A 
ATOM      9  N   UNL     1      -1.260  11.830  20.520  0.00  0.00    +0.000 NA
ATOM     10  C   UNL     1       0.071  11.820  20.269  0.00  0.00    +0.000 A 
ENDROOT
BRANCH   1  14
ATOM     11  C   UNL     1       4.390  14.843  19.832  0.00  0.00    +0.000 A 
ATOM     12  C   UNL     1       3.587  14.538  20.942  0.00  0.00    +0.000 A 
ATOM     13  C   UNL     1       2.401  13.825  20.783  0.00  0.00    +0.000 A 
ATOM     14  C   UNL     1       1.963  13.384  19.528  0.00  0.00    +0.000 A 
ATOM     15  C   UNL     1       2.797  13.670  18.427  0.00  0.00    +0.000 A 
ATOM     16  C   UNL     1       3.987  14.391  18.587  0.00  0.00    +0.000 A 
BRANCH  11  18
ATOM     17  C   UNL     1       5.496  16.910  19.574  0.00  0.00    +0.000 C 
ATOM     18  O   UNL     1       5.484  15.601  20.117  0.00  0.00    +0.000 OA
ENDBRANCH  11  18
ENDBRANCH   1  14
BRANCH   5  19
ATOM     19  O   UNL     1      -3.375   9.766  16.804  0.00  0.00    +0.000 OA
ATOM     20  C   UNL     1      -3.007   9.827  15.422  0.00  0.00    +0.000 C 
ENDBRANCH   5  19
BRANCH  10  21
ATOM     21  N   UNL     1       0.926  10.704  20.587  0.00  0.00    +0.000 N 
ATOM     22  H   UNL     1       1.794  11.119  20.929  0.00  0.00    +0.000 HD
BRANCH  21  23
ATOM     23  C   UNL     1       1.265   9.514  19.893  0.00  0.00    +0.000 A 
ATOM     24  C   UNL     1       1.440   9.597  18.498  0.00  0.00    +0.000 A 
ATOM     25  C   UNL     1       1.965   8.538  17.741  0.00  0.00    +0.000 A 
ATOM     26  C   UNL     1       2.360   7.351  18.352  0.00  0.00    +0.000 A 
ATOM     27  C   UNL     1       2.142   7.234  19.731  0.00  0.00    +0.000 A 
ATOM     28  C   UNL     1       1.601   8.305  20.495  0.00  0.00    +0.000 A 
BRANCH  26  29
ATOM     29  N   UNL     1       3.004   6.295  17.637  0.00  0.00    +0.000 N 
ATOM     30  C   UNL     1       4.349   6.208  17.337  0.00  0.00    +0.000 C 
ATOM     31  O   UNL     1       5.220   7.039  17.586  0.00  0.00    +0.000 OA
ATOM     32  H   UNL     1       2.427   5.517  17.341  0.00  0.00    +0.000 HD
BRANCH  30  33
ATOM     33  C   UNL     1       4.787   4.866  16.699  0.00  0.00    +0.000 C 
BRANCH  33  34
ATOM     34  N   UNL     1       4.416   3.682  17.517  0.00  0.00    +0.000 NA
ATOM     35  C   UNL     1       4.598   3.949  18.952  0.00  0.00    +0.000 C 
ATOM     36  C   UNL     1       4.239   2.710  19.770  0.00  0.00    +0.000 C 
ATOM     37  C   UNL     1       2.798   2.286  19.523  0.00  0.00    +0.000 C 
ATOM     38  C   UNL     1       2.532   2.137  18.029  0.00  0.00    +0.000 C 
ATOM     39  C   UNL     1       2.988   3.373  17.252  0.00  0.00    +0.000 C 
ENDBRANCH  33  34
ENDBRANCH  30  33
ENDBRANCH  26  29
ENDBRANCH  21  23
ENDBRANCH  10  21
TORSDOF 8
ENDMDL
MODEL 5
REMARK VINA RESULT:      -8.2      3.372     10.676
REMARK  Name = 
REMARK  10 active torsions:
REMARK  status: ('A' for Active; 'I' for Inactive)
REMARK    1  A    between atoms: C_1  and  O_2
REMARK    2  A    between atoms: O_2  and  C_3
REMARK    3  A    between atoms: C_6  and  C_7
REMARK    4  A    between atoms: C_11  and  O_12
REMARK    5  A    between atoms: O_12  and  C_13
REMARK    6  A    between atoms: C_18  and  N_19
REMARK    7  A    between atoms: N_19  and  C_20
REMARK    8  A    between atoms: C_23  and  N_24
REMARK    9  A    between atoms: C_25  and  C_27
REMARK   10  A    between atoms: C_27  and  N_28
REMARK                            x       y       z     vdW  Elec       q    Type
REMARK                         _______ _______ _______ _____ _____    ______ ____
ROOT
ATOM      1  C   UNL     1      -2.770  12.273  19.556  0.00  0.00    +0.000 A 
ATOM      2  C   UNL     1      -3.591  13.185  20.206  0.00  0.00    +0.000 A 
ATOM      3  C   UNL     1      -3.111  13.733  21.387  0.00  0.00    +0.000 A 
ATOM      4  C   UNL     1      -3.734  13.620  22.640  0.00  0.00    +0.000 A 
ATOM      5  C   UNL     1      -3.049  14.093  23.755  0.00  0.00    +0.000 A 
ATOM      6  C   UNL     1      -2.000  14.976  23.543  0.00  0.00    +0.000 A 
ATOM      7  C   UNL     1      -1.367  14.951  22.304  0.00  0.00    +0.000 A 
ATOM      8  C   UNL     1      -1.763  13.959  21.430  0.00  0.00    +0.000 A 
ATOM      9  N   UNL     1      -0.963  12.979  20.956  0.00  0.00    +0.000 NA
ATOM     10  C   UNL     1      -1.580  11.987  20.270  0.00  0.00    +0.000 A 
ENDROOT
BRANCH   1  14
ATOM     11  C   UNL     1      -3.788  10.700  15.652  0.00  0.00    +0.000 A 
ATOM     12  C   UNL     1      -2.451  10.814  16.064  0.00  0.00    +0.000 A 
ATOM     13  C   UNL     1      -2.141  11.273  17.342  0.00  0.00    +0.000 A 
ATOM     14  C   UNL     1      -3.134  11.633  18.262  0.00  0.00    +0.000 A 
ATOM     15  C   UNL     1      -4.473  11.482  17.844  0.00  0.00    +0.000 A 
ATOM     16  C   UNL     1      -4.783  11.025  16.557  0.00  0.00    +0.000 A 
BRANCH  11  18
ATOM     17  C   UNL     1      -2.802   9.760  13.725  0.00  0.00    +0.000 C 
ATOM     18  O   UNL     1      -3.948  10.304  14.359  0.00  0.00    +0.000 OA
ENDBRANCH  11  18
ENDBRANCH   1  14
BRANCH   5  19
ATOM     19  O   UNL     1      -3.416  13.597  24.976  0.00  0.00    +0.000 OA
ATOM     20  C   UNL     1      -4.374  12.535  24.932  0.00  0.00    +0.000 C 
ENDBRANCH   5  19
BRANCH  10  21
ATOM     21  N   UNL     1      -1.303  10.589  20.483  0.00  0.00    +0.000 N 
ATOM     22  H   UNL     1      -1.721  10.367  21.388  0.00  0.00    +0.000 HD
BRANCH  21  23
ATOM     23  C   UNL     1      -0.129   9.802  20.350  0.00  0.00    +0.000 A 
ATOM     24  C   UNL     1       0.168   8.892  21.383  0.00  0.00    +0.000 A 
ATOM     25  C   UNL     1       1.184   7.930  21.268  0.00  0.00    +0.000 A 
ATOM     26  C   UNL     1       1.937   7.823  20.103  0.00  0.00    +0.000 A 
ATOM     27  C   UNL     1       1.689   8.757  19.088  0.00  0.00    +0.000 A 
ATOM     28  C   UNL     1       0.665   9.736  19.209  0.00  0.00    +0.000 A 
BRANCH  26  29
ATOM     29  N   UNL     1       2.900   6.787  19.901  0.00  0.00    +0.000 N 
ATOM     30  C   UNL     1       2.648   5.510  19.438  0.00  0.00    +0.000 C 
ATOM     31  O   UNL     1       1.553   5.024  19.164  0.00  0.00    +0.000 OA
ATOM     32  H   UNL     1       3.870   7.012  20.090  0.00  0.00    +0.000 HD
BRANCH  30  33
ATOM     33  C   UNL     1       3.911   4.658  19.160  0.00  0.00    +0.000 C 
BRANCH  33  34
ATOM     34  N   UNL     1       4.883   5.331  18.259  0.00  0.00    +0.000 NA
ATOM     35  C   UNL     1       6.240   4.794  18.445  0.00  0.00    +0.000 C 
ATOM     36  C   UNL     1       7.225   5.520  17.532  0.00  0.00    +0.000 C 
ATOM     37  C   UNL     1       6.829   5.373  16.068  0.00  0.00    +0.000 C 
ATOM     38  C   UNL     1       5.377   5.789  15.862  0.00  0.00    +0.000 C 
ATOM     39  C   UNL     1       4.448   5.094  16.860  0.00  0.00    +0.000 C 
ENDBRANCH  33  34
ENDBRANCH  30  33
ENDBRANCH  26  29
ENDBRANCH  21  23
ENDBRANCH  10  21
TORSDOF 8
ENDMDL
MODEL 6
REMARK VINA RESULT:      -8.2      3.640      9.238
REMARK  Name = 
REMARK  10 active torsions:
REMARK  status: ('A' for Active; 'I' for Inactive)
REMARK    1  A    between atoms: C_1  and  O_2
REMARK    2  A    between atoms: O_2  and  C_3
REMARK    3  A    between atoms: C_6  and  C_7
REMARK    4  A    between atoms: C_11  and  O_12
REMARK    5  A    between atoms: O_12  and  C_13
REMARK    6  A    between atoms: C_18  and  N_19
REMARK    7  A    between atoms: N_19  and  C_20
REMARK    8  A    between atoms: C_23  and  N_24
REMARK    9  A    between atoms: C_25  and  C_27
REMARK   10  A    between atoms: C_27  and  N_28
REMARK                            x       y       z     vdW  Elec       q    Type
REMARK                         _______ _______ _______ _____ _____    ______ ____
ROOT
ATOM      1  C   UNL     1       0.316  12.840  19.645  0.00  0.00    +0.000 A 
ATOM      2  C   UNL     1      -0.363  13.040  18.450  0.00  0.00    +0.000 A 
ATOM      3  C   UNL     1      -1.565  12.366  18.289  0.00  0.00    +0.000 A 
ATOM      4  C   UNL     1      -1.842  11.443  17.267  0.00  0.00    +0.000 A 
ATOM      5  C   UNL     1      -3.039  10.737  17.333  0.00  0.00    +0.000 A 
ATOM      6  C   UNL     1      -4.042  11.237  18.149  0.00  0.00    +0.000 A 
ATOM      7  C   UNL     1      -3.671  12.065  19.206  0.00  0.00    +0.000 A 
ATOM      8  C   UNL     1      -2.317  12.217  19.422  0.00  0.00    +0.000 A 
ATOM      9  N   UNL     1      -1.664  11.842  20.544  0.00  0.00    +0.000 NA
ATOM     10  C   UNL     1      -0.312  11.891  20.490  0.00  0.00    +0.000 A 
ENDROOT
BRANCH   1  14
ATOM     11  C   UNL     1       3.897  15.110  20.523  0.00  0.00    +0.000 A 
ATOM     12  C   UNL     1       2.875  14.969  21.474  0.00  0.00    +0.000 A 
ATOM     13  C   UNL     1       1.752  14.192  21.196  0.00  0.00    +0.000 A 
ATOM     14  C   UNL     1       1.596  13.524  19.974  0.00  0.00    +0.000 A 
ATOM     15  C   UNL     1       2.648  13.650  19.042  0.00  0.00    +0.000 A 
ATOM     16  C   UNL     1       3.774  14.435  19.321  0.00  0.00    +0.000 A 
BRANCH  11  18
ATOM     17  C   UNL     1       4.941  17.207  20.245  0.00  0.00    +0.000 C 
ATOM     18  O   UNL     1       4.903  15.949  20.896  0.00  0.00    +0.000 OA
ENDBRANCH  11  18
ENDBRANCH   1  14
BRANCH   5  19
ATOM     19  O   UNL     1      -3.113   9.560  16.639  0.00  0.00    +0.000 OA
ATOM     20  C   UNL     1      -2.961   9.684  15.221  0.00  0.00    +0.000 C 
ENDBRANCH   5  19
BRANCH  10  21
ATOM     21  N   UNL     1       0.536  10.830  20.972  0.00  0.00    +0.000 N 
ATOM     22  H   UNL     1       1.369  11.295  21.335  0.00  0.00    +0.000 HD
BRANCH  21  23
ATOM     23  C   UNL     1       0.946   9.590  20.418  0.00  0.00    +0.000 A 
ATOM     24  C   UNL     1       1.384   9.584  19.079  0.00  0.00    +0.000 A 
ATOM     25  C   UNL     1       1.995   8.464  18.493  0.00  0.00    +0.000 A 
ATOM     26  C   UNL     1       2.214   7.303  19.228  0.00  0.00    +0.000 A 
ATOM     27  C   UNL     1       1.735   7.276  20.545  0.00  0.00    +0.000 A 
ATOM     28  C   UNL     1       1.109   8.408  21.135  0.00  0.00    +0.000 A 
BRANCH  26  29
ATOM     29  N   UNL     1       2.933   6.184  18.706  0.00  0.00    +0.000 N 
ATOM     30  C   UNL     1       2.401   5.127  17.994  0.00  0.00    +0.000 C 
ATOM     31  O   UNL     1       1.217   4.935  17.724  0.00  0.00    +0.000 OA
ATOM     32  H   UNL     1       3.936   6.172  18.846  0.00  0.00    +0.000 HD
BRANCH  30  33
ATOM     33  C   UNL     1       3.447   4.146  17.409  0.00  0.00    +0.000 C 
BRANCH  33  34
ATOM     34  N   UNL     1       4.718   4.810  17.019  0.00  0.00    +0.000 NA
ATOM     35  C   UNL     1       5.820   4.413  17.909  0.00  0.00    +0.000 C 
ATOM     36  C   UNL     1       7.107   5.130  17.508  0.00  0.00    +0.000 C 
ATOM     37  C   UNL     1       7.491   4.810  16.069  0.00  0.00    +0.000 C 
ATOM     38  C   UNL     1       6.318   5.077  15.131  0.00  0.00    +0.000 C 
ATOM     39  C   UNL     1       5.038   4.404  15.628  0.00  0.00    +0.000 C 
ENDBRANCH  33  34
ENDBRANCH  30  33
ENDBRANCH  26  29
ENDBRANCH  21  23
ENDBRANCH  10  21
TORSDOF 8
ENDMDL
MODEL 7
REMARK VINA RESULT:      -8.1      2.403      3.205
REMARK  Name = 
REMARK  10 active torsions:
REMARK  status: ('A' for Active; 'I' for Inactive)
REMARK    1  A    between atoms: C_1  and  O_2
REMARK    2  A    between atoms: O_2  and  C_3
REMARK    3  A    between atoms: C_6  and  C_7
REMARK    4  A    between atoms: C_11  and  O_12
REMARK    5  A    between atoms: O_12  and  C_13
REMARK    6  A    between atoms: C_18  and  N_19
REMARK    7  A    between atoms: N_19  and  C_20
REMARK    8  A    between atoms: C_23  and  N_24
REMARK    9  A    between atoms: C_25  and  C_27
REMARK   10  A    between atoms: C_27  and  N_28
REMARK                            x       y       z     vdW  Elec       q    Type
REMARK                         _______ _______ _______ _____ _____    ______ ____
ROOT
ATOM      1  C   UNL     1       4.073   4.386  17.172  0.00  0.00    +0.000 A 
ATOM      2  C   UNL     1       4.040   3.131  17.768  0.00  0.00    +0.000 A 
ATOM      3  C   UNL     1       2.972   2.863  18.611  0.00  0.00    +0.000 A 
ATOM      4  C   UNL     1       3.081   2.530  19.971  0.00  0.00    +0.000 A 
ATOM      5  C   UNL     1       1.911   2.442  20.717  0.00  0.00    +0.000 A 
ATOM      6  C   UNL     1       0.714   2.302  20.030  0.00  0.00    +0.000 A 
ATOM      7  C   UNL     1       0.660   2.754  18.715  0.00  0.00    +0.000 A 
ATOM      8  C   UNL     1       1.776   3.417  18.246  0.00  0.00    +0.000 A 
ATOM      9  N   UNL     1       1.798   4.705  17.838  0.00  0.00    +0.000 NA
ATOM     10  C   UNL     1       3.023   5.234  17.601  0.00  0.00    +0.000 A 
ENDROOT
BRANCH   1  14
ATOM     11  C   UNL     1       7.312   5.314  14.451  0.00  0.00    +0.000 A 
ATOM     12  C   UNL     1       6.216   4.541  14.040  0.00  0.00    +0.000 A 
ATOM     13  C   UNL     1       5.156   4.294  14.911  0.00  0.00    +0.000 A 
ATOM     14  C   UNL     1       5.136   4.802  16.216  0.00  0.00    +0.000 A 
ATOM     15  C   UNL     1       6.230   5.604  16.604  0.00  0.00    +0.000 A 
ATOM     16  C   UNL     1       7.296   5.847  15.729  0.00  0.00    +0.000 A 
BRANCH  11  18
ATOM     17  C   UNL     1       7.897   5.446  12.170  0.00  0.00    +0.000 C 
ATOM     18  O   UNL     1       8.306   5.420  13.527  0.00  0.00    +0.000 OA
ENDBRANCH  11  18
ENDBRANCH   1  14
BRANCH   5  19
ATOM     19  O   UNL     1       2.020   2.571  22.075  0.00  0.00    +0.000 OA
ATOM     20  C   UNL     1       0.852   2.195  22.813  0.00  0.00    +0.000 C 
ENDBRANCH   5  19
BRANCH  10  21
ATOM     21  N   UNL     1       3.425   6.534  18.074  0.00  0.00    +0.000 N 
ATOM     22  H   UNL     1       4.216   6.362  18.696  0.00  0.00    +0.000 HD
BRANCH  21  23
ATOM     23  C   UNL     1       2.706   7.642  18.593  0.00  0.00    +0.000 A 
ATOM     24  C   UNL     1       2.480   8.736  17.735  0.00  0.00    +0.000 A 
ATOM     25  C   UNL     1       1.619   9.792  18.073  0.00  0.00    +0.000 A 
ATOM     26  C   UNL     1       0.929   9.790  19.282  0.00  0.00    +0.000 A 
ATOM     27  C   UNL     1       1.186   8.737  20.169  0.00  0.00    +0.000 A 
ATOM     28  C   UNL     1       2.065   7.672  19.828  0.00  0.00    +0.000 A 
BRANCH  26  29
ATOM     29  N   UNL     1      -0.042  10.785  19.616  0.00  0.00    +0.000 N 
ATOM     30  C   UNL     1       0.149  11.871  20.447  0.00  0.00    +0.000 C 
ATOM     31  O   UNL     1       1.164  12.150  21.082  0.00  0.00    +0.000 OA
ATOM     32  H   UNL     1      -0.954  10.705  19.183  0.00  0.00    +0.000 HD
BRANCH  30  33
ATOM     33  C   UNL     1      -1.032  12.872  20.489  0.00  0.00    +0.000 C 
BRANCH  33  34
ATOM     34  N   UNL     1      -2.162  12.408  21.335  0.00  0.00    +0.000 NA
ATOM     35  C   UNL     1      -1.904  12.675  22.759  0.00  0.00    +0.000 C 
ATOM     36  C   UNL     1      -3.063  12.163  23.611  0.00  0.00    +0.000 C 
ATOM     37  C   UNL     1      -4.374  12.827  23.211  0.00  0.00    +0.000 C 
ATOM     38  C   UNL     1      -4.606  12.693  21.710  0.00  0.00    +0.000 C 
ATOM     39  C   UNL     1      -3.381  13.141  20.912  0.00  0.00    +0.000 C 
ENDBRANCH  33  34
ENDBRANCH  30  33
ENDBRANCH  26  29
ENDBRANCH  21  23
ENDBRANCH  10  21
TORSDOF 8
ENDMDL
MODEL 8
REMARK VINA RESULT:      -8.1      2.901      9.901
REMARK  Name = 
REMARK  10 active torsions:
REMARK  status: ('A' for Active; 'I' for Inactive)
REMARK    1  A    between atoms: C_1  and  O_2
REMARK    2  A    between atoms: O_2  and  C_3
REMARK    3  A    between atoms: C_6  and  C_7
REMARK    4  A    between atoms: C_11  and  O_12
REMARK    5  A    between atoms: O_12  and  C_13
REMARK    6  A    between atoms: C_18  and  N_19
REMARK    7  A    between atoms: N_19  and  C_20
REMARK    8  A    between atoms: C_23  and  N_24
REMARK    9  A    between atoms: C_25  and  C_27
REMARK   10  A    between atoms: C_27  and  N_28
REMARK                            x       y       z     vdW  Elec       q    Type
REMARK                         _______ _______ _______ _____ _____    ______ ____
ROOT
ATOM      1  C   UNL     1      -0.909  13.237  21.174  0.00  0.00    +0.000 A 
ATOM      2  C   UNL     1      -1.968  14.092  21.453  0.00  0.00    +0.000 A 
ATOM      3  C   UNL     1      -3.012  13.576  22.207  0.00  0.00    +0.000 A 
ATOM      4  C   UNL     1      -4.348  13.492  21.784  0.00  0.00    +0.000 A 
ATOM      5  C   UNL     1      -5.248  12.807  22.595  0.00  0.00    +0.000 A 
ATOM      6  C   UNL     1      -4.891  12.591  23.918  0.00  0.00    +0.000 A 
ATOM      7  C   UNL     1      -3.536  12.587  24.236  0.00  0.00    +0.000 A 
ATOM      8  C   UNL     1      -2.655  12.680  23.177  0.00  0.00    +0.000 A 
ATOM      9  N   UNL     1      -1.753  11.735  22.834  0.00  0.00    +0.000 NA
ATOM     10  C   UNL     1      -1.117  11.919  21.653  0.00  0.00    +0.000 A 
ENDROOT
BRANCH   1  14
ATOM     11  C   UNL     1       2.638  14.703  19.171  0.00  0.00    +0.000 A 
ATOM     12  C   UNL     1       2.729  13.808  20.247  0.00  0.00    +0.000 A 
ATOM     13  C   UNL     1       1.577  13.304  20.848  0.00  0.00    +0.000 A 
ATOM     14  C   UNL     1       0.296  13.661  20.410  0.00  0.00    +0.000 A 
ATOM     15  C   UNL     1       0.221  14.536  19.306  0.00  0.00    +0.000 A 
ATOM     16  C   UNL     1       1.380  15.045  18.706  0.00  0.00    +0.000 A 
BRANCH  11  18
ATOM     17  C   UNL     1       3.854  15.671  17.396  0.00  0.00    +0.000 C 
ATOM     18  O   UNL     1       3.836  15.170  18.722  0.00  0.00    +0.000 OA
ENDBRANCH  11  18
ENDBRANCH   1  14
BRANCH   5  19
ATOM     19  O   UNL     1      -6.390  12.337  22.009  0.00  0.00    +0.000 OA
ATOM     20  C   UNL     1      -7.605  12.712  22.666  0.00  0.00    +0.000 C 
ENDBRANCH   5  19
BRANCH  10  21
ATOM     21  N   UNL     1      -0.933  10.869  20.684  0.00  0.00    +0.000 N 
ATOM     22  H   UNL     1      -1.794  10.321  20.714  0.00  0.00    +0.000 HD
BRANCH  21  23
ATOM     23  C   UNL     1       0.134   9.972  20.417  0.00  0.00    +0.000 A 
ATOM     24  C   UNL     1       0.521   9.091  21.446  0.00  0.00    +0.000 A 
ATOM     25  C   UNL     1       1.421   8.035  21.233  0.00  0.00    +0.000 A 
ATOM     26  C   UNL     1       1.962   7.801  19.972  0.00  0.00    +0.000 A 
ATOM     27  C   UNL     1       1.629   8.702  18.952  0.00  0.00    +0.000 A 
ATOM     28  C   UNL     1       0.723   9.776  19.171  0.00  0.00    +0.000 A 
BRANCH  26  29
ATOM     29  N   UNL     1       2.791   6.673  19.687  0.00  0.00    +0.000 N 
ATOM     30  C   UNL     1       2.533   5.359  20.025  0.00  0.00    +0.000 C 
ATOM     31  O   UNL     1       1.576   4.933  20.668  0.00  0.00    +0.000 OA
ATOM     32  H   UNL     1       3.641   6.843  19.162  0.00  0.00    +0.000 HD
BRANCH  30  33
ATOM     33  C   UNL     1       3.528   4.329  19.436  0.00  0.00    +0.000 C 
BRANCH  33  34
ATOM     34  N   UNL     1       4.550   4.945  18.550  0.00  0.00    +0.000 NA
ATOM     35  C   UNL     1       5.858   5.019  19.219  0.00  0.00    +0.000 C 
ATOM     36  C   UNL     1       6.884   5.682  18.302  0.00  0.00    +0.000 C 
ATOM     37  C   UNL     1       7.037   4.910  16.998  0.00  0.00    +0.000 C 
ATOM     38  C   UNL     1       5.677   4.689  16.345  0.00  0.00    +0.000 C 
ATOM     39  C   UNL     1       4.668   4.102  17.334  0.00  0.00    +0.000 C 
ENDBRANCH  33  34
ENDBRANCH  30  33
ENDBRANCH  26  29
ENDBRANCH  21  23
ENDBRANCH  10  21
TORSDOF 8
ENDMDL
MODEL 9
REMARK VINA RESULT:      -8.1      3.555      9.353
REMARK  Name = 
REMARK  10 active torsions:
REMARK  status: ('A' for Active; 'I' for Inactive)
REMARK    1  A    between atoms: C_1  and  O_2
REMARK    2  A    between atoms: O_2  and  C_3
REMARK    3  A    between atoms: C_6  and  C_7
REMARK    4  A    between atoms: C_11  and  O_12
REMARK    5  A    between atoms: O_12  and  C_13
REMARK    6  A    between atoms: C_18  and  N_19
REMARK    7  A    between atoms: N_19  and  C_20
REMARK    8  A    between atoms: C_23  and  N_24
REMARK    9  A    between atoms: C_25  and  C_27
REMARK   10  A    between atoms: C_27  and  N_28
REMARK                            x       y       z     vdW  Elec       q    Type
REMARK                         _______ _______ _______ _____ _____    ______ ____
ROOT
ATOM      1  C   UNL     1      -0.260  12.640  19.762  0.00  0.00    +0.000 A 
ATOM      2  C   UNL     1      -0.769  12.945  18.505  0.00  0.00    +0.000 A 
ATOM      3  C   UNL     1      -1.917  12.273  18.111  0.00  0.00    +0.000 A 
ATOM      4  C   UNL     1      -2.022  11.449  16.980  0.00  0.00    +0.000 A 
ATOM      5  C   UNL     1      -3.197  10.723  16.807  0.00  0.00    +0.000 A 
ATOM      6  C   UNL     1      -4.318  11.131  17.514  0.00  0.00    +0.000 A 
ATOM      7  C   UNL     1      -4.123  11.858  18.685  0.00  0.00    +0.000 A 
ATOM      8  C   UNL     1      -2.817  12.007  19.106  0.00  0.00    +0.000 A 
ATOM      9  N   UNL     1      -2.320  11.535  20.270  0.00  0.00    +0.000 NA
ATOM     10  C   UNL     1      -0.975  11.607  20.416  0.00  0.00    +0.000 A 
ENDROOT
BRANCH   1  14
ATOM     11  C   UNL     1       3.151  14.845  21.262  0.00  0.00    +0.000 A 
ATOM     12  C   UNL     1       1.896  14.936  21.883  0.00  0.00    +0.000 A 
ATOM     13  C   UNL     1       0.821  14.181  21.421  0.00  0.00    +0.000 A 
ATOM     14  C   UNL     1       0.942  13.307  20.333  0.00  0.00    +0.000 A 
ATOM     15  C   UNL     1       2.218  13.202  19.740  0.00  0.00    +0.000 A 
ATOM     16  C   UNL     1       3.297  13.966  20.203  0.00  0.00    +0.000 A 
BRANCH  11  18
ATOM     17  C   UNL     1       3.903  16.103  23.111  0.00  0.00    +0.000 C 
ATOM     18  O   UNL     1       4.094  15.686  21.770  0.00  0.00    +0.000 OA
ENDBRANCH  11  18
ENDBRANCH   1  14
BRANCH   5  19
ATOM     19  O   UNL     1      -3.140   9.618  16.004  0.00  0.00    +0.000 OA
ATOM     20  C   UNL     1      -3.049   9.893  14.602  0.00  0.00    +0.000 C 
ENDBRANCH   5  19
BRANCH  10  21
ATOM     21  N   UNL     1      -0.177  10.515  20.914  0.00  0.00    +0.000 N 
ATOM     22  H   UNL     1       0.254  10.866  21.770  0.00  0.00    +0.000 HD
BRANCH  21  23
ATOM     23  C   UNL     1       0.750   9.633  20.300  0.00  0.00    +0.000 A 
ATOM     24  C   UNL     1       1.195   8.527  21.050  0.00  0.00    +0.000 A 
ATOM     25  C   UNL     1       1.950   7.489  20.483  0.00  0.00    +0.000 A 
ATOM     26  C   UNL     1       2.278   7.501  19.130  0.00  0.00    +0.000 A 
ATOM     27  C   UNL     1       1.888   8.621  18.384  0.00  0.00    +0.000 A 
ATOM     28  C   UNL     1       1.130   9.676  18.962  0.00  0.00    +0.000 A 
BRANCH  26  29
ATOM     29  N   UNL     1       2.945   6.412  18.489  0.00  0.00    +0.000 N 
ATOM     30  C   UNL     1       2.452   5.133  18.321  0.00  0.00    +0.000 C 
ATOM     31  O   UNL     1       1.381   4.691  18.730  0.00  0.00    +0.000 OA
ATOM     32  H   UNL     1       3.859   6.596  18.095  0.00  0.00    +0.000 HD
BRANCH  30  33
ATOM     33  C   UNL     1       3.329   4.209  17.440  0.00  0.00    +0.000 C 
BRANCH  33  34
ATOM     34  N   UNL     1       4.691   4.754  17.198  0.00  0.00    +0.000 NA
ATOM     35  C   UNL     1       5.623   4.347  18.261  0.00  0.00    +0.000 C 
ATOM     36  C   UNL     1       7.006   4.942  18.008  0.00  0.00    +0.000 C 
ATOM     37  C   UNL     1       7.561   4.491  16.663  0.00  0.00    +0.000 C 
ATOM     38  C   UNL     1       6.556   4.769  15.549  0.00  0.00    +0.000 C 
ATOM     39  C   UNL     1       5.170   4.224  15.896  0.00  0.00    +0.000 C 
ENDBRANCH  33  34
ENDBRANCH  30  33
ENDBRANCH  26  29
ENDBRANCH  21  23
ENDBRANCH  10  21
TORSDOF 8
ENDMDL
