MODEL 1
REMARK VINA RESULT:      -9.1      0.000      0.000
REMARK  Name = 
REMARK  6 active torsions:
REMARK  status: ('A' for Active; 'I' for Inactive)
REMARK    1  A    between atoms: C_2  and  C_23
REMARK    2  A    between atoms: N_3  and  C_4
REMARK    3  A    between atoms: C_7  and  C_8
REMARK    4  A    between atoms: C_8  and  N_9
REMARK    5  A    between atoms: N_14  and  C_15
REMARK    6  A    between atoms: C_25  and  C_26
REMARK                            x       y       z     vdW  Elec       q    Type
REMARK                         _______ _______ _______ _____ _____    ______ ____
ROOT
ATOM      1  C   UNL     1       1.272   9.208  19.754  0.00  0.00    +0.000 C 
ATOM      2  C   UNL     1       0.374   9.728  18.628  0.00  0.00    +0.000 C 
ATOM      3  C   UNL     1      -0.202  11.108  18.983  0.00  0.00    +0.000 C 
ATOM      4  C   UNL     1      -0.926  11.111  20.345  0.00  0.00    +0.000 C 
ATOM      5  C   UNL     1      -0.010  10.553  21.445  0.00  0.00    +0.000 C 
ATOM      6  C   UNL     1       0.522   9.172  21.087  0.00  0.00    +0.000 C 
ENDROOT
BRANCH   1   9
ATOM      7  O   UNL     1       2.738   8.419  17.324  0.00  0.00    +0.000 OA
ATOM      8  C   UNL     1       2.540   7.633  18.237  0.00  0.00    +0.000 C 
ATOM      9  N   UNL     1       1.942   7.955  19.439  0.00  0.00    +0.000 N 
ATOM     10  H   UNL     1       1.974   7.272  20.183  0.00  0.00    +0.000 HD
BRANCH   8  11
ATOM     11  C   UNL     1       2.874   6.184  18.099  0.00  0.00    +0.000 A 
ATOM     12  C   UNL     1       1.952   5.249  18.622  0.00  0.00    +0.000 A 
ATOM     13  C   UNL     1       2.214   3.871  18.592  0.00  0.00    +0.000 A 
ATOM     14  C   UNL     1       3.390   3.427  17.974  0.00  0.00    +0.000 A 
ATOM     15  C   UNL     1       4.286   4.346  17.414  0.00  0.00    +0.000 A 
ATOM     16  C   UNL     1       4.037   5.725  17.481  0.00  0.00    +0.000 A 
ATOM     17 CL   UNL     1       5.248   6.773  16.841  0.00  0.00    +0.000 Cl
BRANCH  13  18
ATOM     18  C   UNL     1       1.275   2.883  19.245  0.00  0.00    +0.000 C 
ATOM     19  F   UNL     1       0.260   2.487  18.428  0.00  0.00    +0.000 F 
ATOM     20  F   UNL     1       1.900   1.747  19.651  0.00  0.00    +0.000 F 
ATOM     21  F   UNL     1       0.678   3.405  20.352  0.00  0.00    +0.000 F 
ENDBRANCH  13  18
ENDBRANCH   8  11
ENDBRANCH   1   9
BRANCH   4  22
ATOM     22  C   UNL     1      -1.406  12.507  20.784  0.00  0.00    +0.000 C 
BRANCH  22  23
ATOM     23  N   UNL     1      -2.858  12.562  20.847  0.00  0.00    +0.000 N 
ATOM     24  C   UNL     1      -3.428  12.519  22.088  0.00  0.00    +0.000 A 
ATOM     25  N   UNL     1      -2.897  12.095  23.215  0.00  0.00    +0.000 NA
ATOM     26  N   UNL     1      -3.902  12.088  24.144  0.00  0.00    +0.000 NA
ATOM     27  N   UNL     1      -5.040  12.519  23.623  0.00  0.00    +0.000 NA
ATOM     28  N   UNL     1      -4.758  12.868  22.343  0.00  0.00    +0.000 N 
ATOM     29  H   UNL     1      -3.305  11.956  20.159  0.00  0.00    +0.000 HD
BRANCH  28  30
ATOM     30  C   UNL     1      -5.723  13.469  21.496  0.00  0.00    +0.000 A 
ATOM     31  C   UNL     1      -5.698  14.845  21.227  0.00  0.00    +0.000 A 
ATOM     32  C   UNL     1      -6.600  15.403  20.325  0.00  0.00    +0.000 A 
ATOM     33  C   UNL     1      -7.544  14.595  19.695  0.00  0.00    +0.000 A 
ATOM     34  C   UNL     1      -7.608  13.234  19.995  0.00  0.00    +0.000 A 
ATOM     35  C   UNL     1      -6.712  12.671  20.905  0.00  0.00    +0.000 A 
ENDBRANCH  28  30
ENDBRANCH  22  23
ENDBRANCH   4  22
TORSDOF 6
ENDMDL
MODEL 2
REMARK VINA RESULT:      -9.1      1.200      1.569
REMARK  Name = 
REMARK  6 active torsions:
REMARK  status: ('A' for Active; 'I' for Inactive)
REMARK    1  A    between atoms: C_2  and  C_23
REMARK    2  A    between atoms: N_3  and  C_4
REMARK    3  A    between atoms: C_7  and  C_8
REMARK    4  A    between atoms: C_8  and  N_9
REMARK    5  A    between atoms: N_14  and  C_15
REMARK    6  A    between atoms: C_25  and  C_26
REMARK                            x       y       z     vdW  Elec       q    Type
REMARK                         _______ _______ _______ _____ _____    ______ ____
ROOT
ATOM      1  C   UNL     1       1.013   9.510  19.559  0.00  0.00    +0.000 C 
ATOM      2  C   UNL     1       0.144   9.886  18.355  0.00  0.00    +0.000 C 
ATOM      3  C   UNL     1      -0.534  11.246  18.575  0.00  0.00    +0.000 C 
ATOM      4  C   UNL     1      -1.327  11.303  19.897  0.00  0.00    +0.000 C 
ATOM      5  C   UNL     1      -0.438  10.890  21.079  0.00  0.00    +0.000 C 
ATOM      6  C   UNL     1       0.198   9.525  20.855  0.00  0.00    +0.000 C 
ENDROOT
BRANCH   1   9
ATOM      7  O   UNL     1       2.622   8.627  17.256  0.00  0.00    +0.000 OA
ATOM      8  C   UNL     1       2.439   7.907  18.225  0.00  0.00    +0.000 C 
ATOM      9  N   UNL     1       1.775   8.285  19.375  0.00  0.00    +0.000 N 
ATOM     10  H   UNL     1       1.822   7.669  20.174  0.00  0.00    +0.000 HD
BRANCH   8  11
ATOM     11  C   UNL     1       2.873   6.478  18.222  0.00  0.00    +0.000 A 
ATOM     12  C   UNL     1       1.965   5.519  18.725  0.00  0.00    +0.000 A 
ATOM     13  C   UNL     1       2.311   4.162  18.817  0.00  0.00    +0.000 A 
ATOM     14  C   UNL     1       3.566   3.759  18.341  0.00  0.00    +0.000 A 
ATOM     15  C   UNL     1       4.452   4.697  17.800  0.00  0.00    +0.000 A 
ATOM     16  C   UNL     1       4.115   6.058  17.745  0.00  0.00    +0.000 A 
ATOM     17 CL   UNL     1       5.315   7.141  17.144  0.00  0.00    +0.000 Cl
BRANCH  13  18
ATOM     18  C   UNL     1       1.377   3.158  19.452  0.00  0.00    +0.000 C 
ATOM     19  F   UNL     1       0.620   3.688  20.453  0.00  0.00    +0.000 F 
ATOM     20  F   UNL     1       0.504   2.613  18.565  0.00  0.00    +0.000 F 
ATOM     21  F   UNL     1       2.053   2.116  20.010  0.00  0.00    +0.000 F 
ENDBRANCH  13  18
ENDBRANCH   8  11
ENDBRANCH   1   9
BRANCH   4  22
ATOM     22  C   UNL     1      -1.916  12.692  20.203  0.00  0.00    +0.000 C 
BRANCH  22  23
ATOM     23  N   UNL     1      -3.290  12.791  19.736  0.00  0.00    +0.000 N 
ATOM     24  C   UNL     1      -4.269  12.819  20.688  0.00  0.00    +0.000 A 
ATOM     25  N   UNL     1      -4.197  12.434  21.945  0.00  0.00    +0.000 NA
ATOM     26  N   UNL     1      -5.468  12.497  22.448  0.00  0.00    +0.000 NA
ATOM     27  N   UNL     1      -6.324  12.934  21.538  0.00  0.00    +0.000 NA
ATOM     28  N   UNL     1      -5.586  13.217  20.435  0.00  0.00    +0.000 N 
ATOM     29  H   UNL     1      -3.485  12.166  18.954  0.00  0.00    +0.000 HD
BRANCH  28  30
ATOM     30  C   UNL     1      -6.156  13.805  19.277  0.00  0.00    +0.000 A 
ATOM     31  C   UNL     1      -6.321  15.193  19.174  0.00  0.00    +0.000 A 
ATOM     32  C   UNL     1      -6.802  15.760  17.995  0.00  0.00    +0.000 A 
ATOM     33  C   UNL     1      -7.135  14.943  16.917  0.00  0.00    +0.000 A 
ATOM     34  C   UNL     1      -7.022  13.558  17.029  0.00  0.00    +0.000 A 
ATOM     35  C   UNL     1      -6.549  12.984  18.211  0.00  0.00    +0.000 A 
ENDBRANCH  28  30
ENDBRANCH  22  23
ENDBRANCH   4  22
TORSDOF 6
ENDMDL
MODEL 3
REMARK VINA RESULT:      -9.1      4.983     11.567
REMARK  Name = 
REMARK  6 active torsions:
REMARK  status: ('A' for Active; 'I' for Inactive)
REMARK    1  A    between atoms: C_2  and  C_23
REMARK    2  A    between atoms: N_3  and  C_4
REMARK    3  A    between atoms: C_7  and  C_8
REMARK    4  A    between atoms: C_8  and  N_9
REMARK    5  A    between atoms: N_14  and  C_15
REMARK    6  A    between atoms: C_25  and  C_26
REMARK                            x       y       z     vdW  Elec       q    Type
REMARK                         _______ _______ _______ _____ _____    ______ ____
ROOT
ATOM      1  C   UNL     1       2.152   7.654  19.726  0.00  0.00    +0.000 C 
ATOM      2  C   UNL     1       1.565   6.366  20.310  0.00  0.00    +0.000 C 
ATOM      3  C   UNL     1       2.399   5.146  19.889  0.00  0.00    +0.000 C 
ATOM      4  C   UNL     1       2.580   5.056  18.359  0.00  0.00    +0.000 C 
ATOM      5  C   UNL     1       3.138   6.374  17.802  0.00  0.00    +0.000 C 
ATOM      6  C   UNL     1       2.278   7.564  18.204  0.00  0.00    +0.000 C 
ENDROOT
BRANCH   1   9
ATOM      7  O   UNL     1       0.815   9.754  18.152  0.00  0.00    +0.000 OA
ATOM      8  C   UNL     1       0.945   9.844  19.363  0.00  0.00    +0.000 C 
ATOM      9  N   UNL     1       1.478   8.862  20.175  0.00  0.00    +0.000 N 
ATOM     10  H   UNL     1       1.389   8.975  21.175  0.00  0.00    +0.000 HD
BRANCH   8  11
ATOM     11  C   UNL     1       0.592  11.101  20.089  0.00  0.00    +0.000 A 
ATOM     12  C   UNL     1      -0.370  11.010  21.120  0.00  0.00    +0.000 A 
ATOM     13  C   UNL     1      -0.808  12.150  21.812  0.00  0.00    +0.000 A 
ATOM     14  C   UNL     1      -0.225  13.386  21.503  0.00  0.00    +0.000 A 
ATOM     15  C   UNL     1       0.761  13.474  20.514  0.00  0.00    +0.000 A 
ATOM     16  C   UNL     1       1.167  12.338  19.799  0.00  0.00    +0.000 A 
ATOM     17 CL   UNL     1       2.323  12.573  18.540  0.00  0.00    +0.000 Cl
BRANCH  13  18
ATOM     18  C   UNL     1      -1.912  12.063  22.841  0.00  0.00    +0.000 C 
ATOM     19  F   UNL     1      -3.158  12.148  22.300  0.00  0.00    +0.000 F 
ATOM     20  F   UNL     1      -1.885  10.904  23.551  0.00  0.00    +0.000 F 
ATOM     21  F   UNL     1      -1.836  13.070  23.755  0.00  0.00    +0.000 F 
ENDBRANCH  13  18
ENDBRANCH   8  11
ENDBRANCH   1   9
BRANCH   4  22
ATOM     22  C   UNL     1       3.514   3.914  17.915  0.00  0.00    +0.000 C 
BRANCH  22  23
ATOM     23  N   UNL     1       4.449   4.370  16.900  0.00  0.00    +0.000 N 
ATOM     24  C   UNL     1       5.776   4.358  17.227  0.00  0.00    +0.000 A 
ATOM     25  N   UNL     1       6.320   4.320  18.425  0.00  0.00    +0.000 NA
ATOM     26  N   UNL     1       7.667   4.494  18.249  0.00  0.00    +0.000 NA
ATOM     27  N   UNL     1       7.971   4.617  16.966  0.00  0.00    +0.000 NA
ATOM     28  N   UNL     1       6.807   4.462  16.288  0.00  0.00    +0.000 N 
ATOM     29  H   UNL     1       4.140   5.225  16.436  0.00  0.00    +0.000 HD
BRANCH  28  30
ATOM     30  C   UNL     1       6.758   4.435  14.871  0.00  0.00    +0.000 A 
ATOM     31  C   UNL     1       7.648   5.196  14.099  0.00  0.00    +0.000 A 
ATOM     32  C   UNL     1       7.644   5.090  12.710  0.00  0.00    +0.000 A 
ATOM     33  C   UNL     1       6.741   4.236  12.081  0.00  0.00    +0.000 A 
ATOM     34  C   UNL     1       5.819   3.513  12.838  0.00  0.00    +0.000 A 
ATOM     35  C   UNL     1       5.813   3.623  14.230  0.00  0.00    +0.000 A 
ENDBRANCH  28  30
ENDBRANCH  22  23
ENDBRANCH   4  22
TORSDOF 6
ENDMDL
MODEL 4
REMARK VINA RESULT:      -9.0      3.990      5.322
REMARK  Name = 
REMARK  6 active torsions:
REMARK  status: ('A' for Active; 'I' for Inactive)
REMARK    1  A    between atoms: C_2  and  C_23
REMARK    2  A    between atoms: N_3  and  C_4
REMARK    3  A    between atoms: C_7  and  C_8
REMARK    4  A    between atoms: C_8  and  N_9
REMARK    5  A    between atoms: N_14  and  C_15
REMARK    6  A    between atoms: C_25  and  C_26
REMARK                            x       y       z     vdW  Elec       q    Type
REMARK                         _______ _______ _______ _____ _____    ______ ____
ROOT
ATOM      1  C   UNL     1       2.638   6.619  18.372  0.00  0.00    +0.000 C 
ATOM      2  C   UNL     1       2.924   6.016  19.750  0.00  0.00    +0.000 C 
ATOM      3  C   UNL     1       1.832   6.409  20.756  0.00  0.00    +0.000 C 
ATOM      4  C   UNL     1       1.620   7.936  20.828  0.00  0.00    +0.000 C 
ATOM      5  C   UNL     1       1.368   8.514  19.428  0.00  0.00    +0.000 C 
ATOM      6  C   UNL     1       2.479   8.139  18.456  0.00  0.00    +0.000 C 
ENDROOT
BRANCH   1   9
ATOM      7  O   UNL     1       3.466   3.904  17.584  0.00  0.00    +0.000 OA
ATOM      8  C   UNL     1       3.971   4.899  17.087  0.00  0.00    +0.000 C 
ATOM      9  N   UNL     1       3.571   6.197  17.340  0.00  0.00    +0.000 N 
ATOM     10  H   UNL     1       3.946   6.930  16.755  0.00  0.00    +0.000 HD
BRANCH   8  11
ATOM     11  C   UNL     1       5.155   4.798  16.182  0.00  0.00    +0.000 A 
ATOM     12  C   UNL     1       4.930   4.355  14.860  0.00  0.00    +0.000 A 
ATOM     13  C   UNL     1       5.991   4.171  13.960  0.00  0.00    +0.000 A 
ATOM     14  C   UNL     1       7.288   4.494  14.381  0.00  0.00    +0.000 A 
ATOM     15  C   UNL     1       7.512   4.975  15.677  0.00  0.00    +0.000 A 
ATOM     16  C   UNL     1       6.451   5.122  16.583  0.00  0.00    +0.000 A 
ATOM     17 CL   UNL     1       6.849   5.636  18.181  0.00  0.00    +0.000 Cl
BRANCH  13  18
ATOM     18  C   UNL     1       5.757   3.599  12.581  0.00  0.00    +0.000 C 
ATOM     19  F   UNL     1       4.476   3.756  12.145  0.00  0.00    +0.000 F 
ATOM     20  F   UNL     1       6.552   4.160  11.633  0.00  0.00    +0.000 F 
ATOM     21  F   UNL     1       6.001   2.259  12.538  0.00  0.00    +0.000 F 
ENDBRANCH  13  18
ENDBRANCH   8  11
ENDBRANCH   1   9
BRANCH   4  22
ATOM     22  C   UNL     1       0.449   8.352  21.737  0.00  0.00    +0.000 C 
BRANCH  22  23
ATOM     23  N   UNL     1      -0.506   9.176  21.013  0.00  0.00    +0.000 N 
ATOM     24  C   UNL     1      -0.293  10.525  21.017  0.00  0.00    +0.000 A 
ATOM     25  N   UNL     1       0.443  11.231  21.849  0.00  0.00    +0.000 NA
ATOM     26  N   UNL     1       0.211  12.549  21.556  0.00  0.00    +0.000 NA
ATOM     27  N   UNL     1      -0.635  12.674  20.547  0.00  0.00    +0.000 NA
ATOM     28  N   UNL     1      -0.917  11.412  20.135  0.00  0.00    +0.000 N 
ATOM     29  H   UNL     1      -1.473   8.904  21.190  0.00  0.00    +0.000 HD
BRANCH  28  30
ATOM     30  C   UNL     1      -1.725  11.153  18.998  0.00  0.00    +0.000 A 
ATOM     31  C   UNL     1      -2.988  11.743  18.855  0.00  0.00    +0.000 A 
ATOM     32  C   UNL     1      -3.730  11.547  17.693  0.00  0.00    +0.000 A 
ATOM     33  C   UNL     1      -3.222  10.749  16.670  0.00  0.00    +0.000 A 
ATOM     34  C   UNL     1      -1.987  10.118  16.825  0.00  0.00    +0.000 A 
ATOM     35  C   UNL     1      -1.244  10.304  17.992  0.00  0.00    +0.000 A 
ENDBRANCH  28  30
ENDBRANCH  22  23
ENDBRANCH   4  22
TORSDOF 6
ENDMDL
MODEL 5
REMARK VINA RESULT:      -9.0      1.623      2.382
REMARK  Name = 
REMARK  6 active torsions:
REMARK  status: ('A' for Active; 'I' for Inactive)
REMARK    1  A    between atoms: C_2  and  C_23
REMARK    2  A    between atoms: N_3  and  C_4
REMARK    3  A    between atoms: C_7  and  C_8
REMARK    4  A    between atoms: C_8  and  N_9
REMARK    5  A    between atoms: N_14  and  C_15
REMARK    6  A    between atoms: C_25  and  C_26
REMARK                            x       y       z     vdW  Elec       q    Type
REMARK                         _______ _______ _______ _____ _____    ______ ____
ROOT
ATOM      1  C   UNL     1       1.566   8.946  19.618  0.00  0.00    +0.000 C 
ATOM      2  C   UNL     1       0.800   9.589  18.459  0.00  0.00    +0.000 C 
ATOM      3  C   UNL     1       0.389  11.028  18.808  0.00  0.00    +0.000 C 
ATOM      4  C   UNL     1      -0.396  11.110  20.134  0.00  0.00    +0.000 C 
ATOM      5  C   UNL     1       0.383  10.427  21.267  0.00  0.00    +0.000 C 
ATOM      6  C   UNL     1       0.752   8.993  20.913  0.00  0.00    +0.000 C 
ENDROOT
BRANCH   1   9
ATOM      7  O   UNL     1       3.396   8.088  17.474  0.00  0.00    +0.000 OA
ATOM      8  C   UNL     1       2.878   7.286  18.236  0.00  0.00    +0.000 C 
ATOM      9  N   UNL     1       2.085   7.621  19.316  0.00  0.00    +0.000 N 
ATOM     10  H   UNL     1       1.844   6.891  19.971  0.00  0.00    +0.000 HD
BRANCH   8  11
ATOM     11  C   UNL     1       3.004   5.814  18.014  0.00  0.00    +0.000 A 
ATOM     12  C   UNL     1       2.035   4.979  18.613  0.00  0.00    +0.000 A 
ATOM     13  C   UNL     1       2.111   3.581  18.510  0.00  0.00    +0.000 A 
ATOM     14  C   UNL     1       3.142   3.022  17.743  0.00  0.00    +0.000 A 
ATOM     15  C   UNL     1       4.079   3.847  17.110  0.00  0.00    +0.000 A 
ATOM     16  C   UNL     1       4.020   5.242  17.248  0.00  0.00    +0.000 A 
ATOM     17 CL   UNL     1       5.275   6.160  16.502  0.00  0.00    +0.000 Cl
BRANCH  13  18
ATOM     18  C   UNL     1       1.133   2.689  19.239  0.00  0.00    +0.000 C 
ATOM     19  F   UNL     1       0.715   3.208  20.426  0.00  0.00    +0.000 F 
ATOM     20  F   UNL     1       0.008   2.437  18.519  0.00  0.00    +0.000 F 
ATOM     21  F   UNL     1       1.675   1.475  19.535  0.00  0.00    +0.000 F 
ENDBRANCH  13  18
ENDBRANCH   8  11
ENDBRANCH   1   9
BRANCH   4  22
ATOM     22  C   UNL     1      -0.716  12.551  20.572  0.00  0.00    +0.000 C 
BRANCH  22  23
ATOM     23  N   UNL     1      -1.637  12.563  21.696  0.00  0.00    +0.000 N 
ATOM     24  C   UNL     1      -1.463  13.541  22.633  0.00  0.00    +0.000 A 
ATOM     25  N   UNL     1      -0.391  14.271  22.860  0.00  0.00    +0.000 NA
ATOM     26  N   UNL     1      -0.640  14.989  23.999  0.00  0.00    +0.000 NA
ATOM     27  N   UNL     1      -1.851  14.738  24.470  0.00  0.00    +0.000 NA
ATOM     28  N   UNL     1      -2.426  13.881  23.589  0.00  0.00    +0.000 N 
ATOM     29  H   UNL     1      -1.793  11.633  22.086  0.00  0.00    +0.000 HD
BRANCH  28  30
ATOM     30  C   UNL     1      -3.775  13.462  23.716  0.00  0.00    +0.000 A 
ATOM     31  C   UNL     1      -4.149  12.499  24.664  0.00  0.00    +0.000 A 
ATOM     32  C   UNL     1      -5.490  12.163  24.835  0.00  0.00    +0.000 A 
ATOM     33  C   UNL     1      -6.465  12.775  24.050  0.00  0.00    +0.000 A 
ATOM     34  C   UNL     1      -6.096  13.697  23.070  0.00  0.00    +0.000 A 
ATOM     35  C   UNL     1      -4.753  14.030  22.889  0.00  0.00    +0.000 A 
ENDBRANCH  28  30
ENDBRANCH  22  23
ENDBRANCH   4  22
TORSDOF 6
ENDMDL
MODEL 6
REMARK VINA RESULT:      -9.0      4.801     10.819
REMARK  Name = 
REMARK  6 active torsions:
REMARK  status: ('A' for Active; 'I' for Inactive)
REMARK    1  A    between atoms: C_2  and  C_23
REMARK    2  A    between atoms: N_3  and  C_4
REMARK    3  A    between atoms: C_7  and  C_8
REMARK    4  A    between atoms: C_8  and  N_9
REMARK    5  A    between atoms: N_14  and  C_15
REMARK    6  A    between atoms: C_25  and  C_26
REMARK                            x       y       z     vdW  Elec       q    Type
REMARK                         _______ _______ _______ _____ _____    ______ ____
ROOT
ATOM      1  C   UNL     1       0.029  11.434  20.477  0.00  0.00    +0.000 C 
ATOM      2  C   UNL     1      -0.290   9.937  20.525  0.00  0.00    +0.000 C 
ATOM      3  C   UNL     1       0.855   9.115  19.915  0.00  0.00    +0.000 C 
ATOM      4  C   UNL     1       1.221   9.580  18.490  0.00  0.00    +0.000 C 
ATOM      5  C   UNL     1       1.503  11.090  18.470  0.00  0.00    +0.000 C 
ATOM      6  C   UNL     1       0.341  11.887  19.048  0.00  0.00    +0.000 C 
ENDROOT
BRANCH   1   9
ATOM      7  O   UNL     1      -0.656  11.629  23.335  0.00  0.00    +0.000 OA
ATOM      8  C   UNL     1      -1.281  12.239  22.482  0.00  0.00    +0.000 C 
ATOM      9  N   UNL     1      -0.963  12.268  21.138  0.00  0.00    +0.000 N 
ATOM     10  H   UNL     1      -1.447  12.931  20.550  0.00  0.00    +0.000 HD
BRANCH   8  11
ATOM     11  C   UNL     1      -2.534  12.979  22.820  0.00  0.00    +0.000 A 
ATOM     12  C   UNL     1      -3.745  12.493  22.277  0.00  0.00    +0.000 A 
ATOM     13  C   UNL     1      -4.961  13.160  22.491  0.00  0.00    +0.000 A 
ATOM     14  C   UNL     1      -4.965  14.296  23.310  0.00  0.00    +0.000 A 
ATOM     15  C   UNL     1      -3.776  14.757  23.887  0.00  0.00    +0.000 A 
ATOM     16  C   UNL     1      -2.557  14.108  23.639  0.00  0.00    +0.000 A 
ATOM     17 CL   UNL     1      -1.139  14.810  24.325  0.00  0.00    +0.000 Cl
BRANCH  13  18
ATOM     18  C   UNL     1      -6.235  12.696  21.823  0.00  0.00    +0.000 C 
ATOM     19  F   UNL     1      -7.112  12.114  22.687  0.00  0.00    +0.000 F 
ATOM     20  F   UNL     1      -6.914  13.705  21.216  0.00  0.00    +0.000 F 
ATOM     21  F   UNL     1      -5.994  11.766  20.858  0.00  0.00    +0.000 F 
ENDBRANCH  13  18
ENDBRANCH   8  11
ENDBRANCH   1   9
BRANCH   4  22
ATOM     22  C   UNL     1       2.446   8.856  17.901  0.00  0.00    +0.000 C 
BRANCH  22  23
ATOM     23  N   UNL     1       2.313   7.414  18.034  0.00  0.00    +0.000 N 
ATOM     24  C   UNL     1       3.421   6.661  17.770  0.00  0.00    +0.000 A 
ATOM     25  N   UNL     1       4.496   7.001  17.090  0.00  0.00    +0.000 NA
ATOM     26  N   UNL     1       5.250   5.866  16.954  0.00  0.00    +0.000 NA
ATOM     27  N   UNL     1       4.677   4.835  17.554  0.00  0.00    +0.000 NA
ATOM     28  N   UNL     1       3.554   5.320  18.143  0.00  0.00    +0.000 N 
ATOM     29  H   UNL     1       1.455   7.058  17.612  0.00  0.00    +0.000 HD
BRANCH  28  30
ATOM     30  C   UNL     1       2.727   4.514  18.966  0.00  0.00    +0.000 A 
ATOM     31  C   UNL     1       2.741   4.646  20.361  0.00  0.00    +0.000 A 
ATOM     32  C   UNL     1       1.860   3.908  21.148  0.00  0.00    +0.000 A 
ATOM     33  C   UNL     1       0.968   3.022  20.548  0.00  0.00    +0.000 A 
ATOM     34  C   UNL     1       0.981   2.848  19.164  0.00  0.00    +0.000 A 
ATOM     35  C   UNL     1       1.869   3.578  18.372  0.00  0.00    +0.000 A 
ENDBRANCH  28  30
ENDBRANCH  22  23
ENDBRANCH   4  22
TORSDOF 6
ENDMDL
MODEL 7
REMARK VINA RESULT:      -8.9      2.946      4.827
REMARK  Name = 
REMARK  6 active torsions:
REMARK  status: ('A' for Active; 'I' for Inactive)
REMARK    1  A    between atoms: C_2  and  C_23
REMARK    2  A    between atoms: N_3  and  C_4
REMARK    3  A    between atoms: C_7  and  C_8
REMARK    4  A    between atoms: C_8  and  N_9
REMARK    5  A    between atoms: N_14  and  C_15
REMARK    6  A    between atoms: C_25  and  C_26
REMARK                            x       y       z     vdW  Elec       q    Type
REMARK                         _______ _______ _______ _____ _____    ______ ____
ROOT
ATOM      1  C   UNL     1       1.215   9.314  19.657  0.00  0.00    +0.000 C 
ATOM      2  C   UNL     1       0.308   9.789  18.519  0.00  0.00    +0.000 C 
ATOM      3  C   UNL     1      -0.273  11.177  18.827  0.00  0.00    +0.000 C 
ATOM      4  C   UNL     1      -0.989  11.226  20.193  0.00  0.00    +0.000 C 
ATOM      5  C   UNL     1      -0.065  10.712  21.307  0.00  0.00    +0.000 C 
ATOM      6  C   UNL     1       0.473   9.322  20.996  0.00  0.00    +0.000 C 
ENDROOT
BRANCH   1   9
ATOM      7  O   UNL     1       2.689   8.454  17.256  0.00  0.00    +0.000 OA
ATOM      8  C   UNL     1       2.491   7.696  18.194  0.00  0.00    +0.000 C 
ATOM      9  N   UNL     1       1.890   8.054  19.384  0.00  0.00    +0.000 N 
ATOM     10  H   UNL     1       1.923   7.395  20.149  0.00  0.00    +0.000 HD
BRANCH   8  11
ATOM     11  C   UNL     1       2.831   6.244  18.102  0.00  0.00    +0.000 A 
ATOM     12  C   UNL     1       1.911   5.324  18.653  0.00  0.00    +0.000 A 
ATOM     13  C   UNL     1       2.178   3.946  18.667  0.00  0.00    +0.000 A 
ATOM     14  C   UNL     1       3.357   3.486  18.066  0.00  0.00    +0.000 A 
ATOM     15  C   UNL     1       4.250   4.390  17.479  0.00  0.00    +0.000 A 
ATOM     16  C   UNL     1       3.997   5.770  17.501  0.00  0.00    +0.000 A 
ATOM     17 CL   UNL     1       5.205   6.802  16.830  0.00  0.00    +0.000 Cl
BRANCH  13  18
ATOM     18  C   UNL     1       1.241   2.976  19.350  0.00  0.00    +0.000 C 
ATOM     19  F   UNL     1       0.285   2.477  18.518  0.00  0.00    +0.000 F 
ATOM     20  F   UNL     1       1.883   1.901  19.876  0.00  0.00    +0.000 F 
ATOM     21  F   UNL     1       0.567   3.559  20.380  0.00  0.00    +0.000 F 
ENDBRANCH  13  18
ENDBRANCH   8  11
ENDBRANCH   1   9
BRANCH   4  22
ATOM     22  C   UNL     1      -1.475  12.634  20.584  0.00  0.00    +0.000 C 
BRANCH  22  23
ATOM     23  N   UNL     1      -0.532  13.651  20.148  0.00  0.00    +0.000 N 
ATOM     24  C   UNL     1       0.148  14.326  21.121  0.00  0.00    +0.000 A 
ATOM     25  N   UNL     1      -0.155  14.443  22.396  0.00  0.00    +0.000 NA
ATOM     26  N   UNL     1       0.726  15.347  22.927  0.00  0.00    +0.000 NA
ATOM     27  N   UNL     1       1.582  15.777  22.014  0.00  0.00    +0.000 NA
ATOM     28  N   UNL     1       1.291  15.095  20.877  0.00  0.00    +0.000 N 
ATOM     29  H   UNL     1      -0.909  14.247  19.410  0.00  0.00    +0.000 HD
BRANCH  28  30
ATOM     30  C   UNL     1       2.072  15.225  19.700  0.00  0.00    +0.000 A 
ATOM     31  C   UNL     1       1.970  16.358  18.882  0.00  0.00    +0.000 A 
ATOM     32  C   UNL     1       2.807  16.508  17.779  0.00  0.00    +0.000 A 
ATOM     33  C   UNL     1       3.741  15.520  17.476  0.00  0.00    +0.000 A 
ATOM     34  C   UNL     1       3.814  14.365  18.256  0.00  0.00    +0.000 A 
ATOM     35  C   UNL     1       2.972  14.207  19.357  0.00  0.00    +0.000 A 
ENDBRANCH  28  30
ENDBRANCH  22  23
ENDBRANCH   4  22
TORSDOF 6
ENDMDL
MODEL 8
REMARK VINA RESULT:      -8.9      0.878      1.423
REMARK  Name = 
REMARK  6 active torsions:
REMARK  status: ('A' for Active; 'I' for Inactive)
REMARK    1  A    between atoms: C_2  and  C_23
REMARK    2  A    between atoms: N_3  and  C_4
REMARK    3  A    between atoms: C_7  and  C_8
REMARK    4  A    between atoms: C_8  and  N_9
REMARK    5  A    between atoms: N_14  and  C_15
REMARK    6  A    between atoms: C_25  and  C_26
REMARK                            x       y       z     vdW  Elec       q    Type
REMARK                         _______ _______ _______ _____ _____    ______ ____
ROOT
ATOM      1  C   UNL     1       1.394   8.806  20.770  0.00  0.00    +0.000 C 
ATOM      2  C   UNL     1       1.127   9.946  19.784  0.00  0.00    +0.000 C 
ATOM      3  C   UNL     1       0.568  11.178  20.512  0.00  0.00    +0.000 C 
ATOM      4  C   UNL     1      -0.677  10.847  21.360  0.00  0.00    +0.000 C 
ATOM      5  C   UNL     1      -0.386   9.679  22.314  0.00  0.00    +0.000 C 
ATOM      6  C   UNL     1       0.135   8.459  21.568  0.00  0.00    +0.000 C 
ENDROOT
BRANCH   1   9
ATOM      7  O   UNL     1       2.203   8.344  17.976  0.00  0.00    +0.000 OA
ATOM      8  C   UNL     1       2.303   7.472  18.826  0.00  0.00    +0.000 C 
ATOM      9  N   UNL     1       2.029   7.644  20.168  0.00  0.00    +0.000 N 
ATOM     10  H   UNL     1       2.299   6.907  20.805  0.00  0.00    +0.000 HD
BRANCH   8  11
ATOM     11  C   UNL     1       2.674   6.072  18.460  0.00  0.00    +0.000 A 
ATOM     12  C   UNL     1       1.826   5.035  18.908  0.00  0.00    +0.000 A 
ATOM     13  C   UNL     1       2.131   3.686  18.664  0.00  0.00    +0.000 A 
ATOM     14  C   UNL     1       3.271   3.384  17.909  0.00  0.00    +0.000 A 
ATOM     15  C   UNL     1       4.091   4.411  17.425  0.00  0.00    +0.000 A 
ATOM     16  C   UNL     1       3.802   5.755  17.704  0.00  0.00    +0.000 A 
ATOM     17 CL   UNL     1       4.926   6.934  17.136  0.00  0.00    +0.000 Cl
BRANCH  13  18
ATOM     18  C   UNL     1       1.277   2.577  19.234  0.00  0.00    +0.000 C 
ATOM     19  F   UNL     1       0.797   2.854  20.478  0.00  0.00    +0.000 F 
ATOM     20  F   UNL     1       0.193   2.294  18.465  0.00  0.00    +0.000 F 
ATOM     21  F   UNL     1       1.972   1.412  19.356  0.00  0.00    +0.000 F 
ENDBRANCH  13  18
ENDBRANCH   8  11
ENDBRANCH   1   9
BRANCH   4  22
ATOM     22  C   UNL     1      -1.186  12.035  22.197  0.00  0.00    +0.000 C 
BRANCH  22  23
ATOM     23  N   UNL     1      -2.520  12.435  21.777  0.00  0.00    +0.000 N 
ATOM     24  C   UNL     1      -3.487  12.478  22.741  0.00  0.00    +0.000 A 
ATOM     25  N   UNL     1      -3.491  11.894  23.920  0.00  0.00    +0.000 NA
ATOM     26  N   UNL     1      -4.737  12.090  24.451  0.00  0.00    +0.000 NA
ATOM     27  N   UNL     1      -5.499  12.802  23.637  0.00  0.00    +0.000 NA
ATOM     28  N   UNL     1      -4.716  13.126  22.578  0.00  0.00    +0.000 N 
ATOM     29  H   UNL     1      -2.812  11.982  20.911  0.00  0.00    +0.000 HD
BRANCH  28  30
ATOM     30  C   UNL     1      -5.170  13.976  21.537  0.00  0.00    +0.000 A 
ATOM     31  C   UNL     1      -5.782  13.455  20.389  0.00  0.00    +0.000 A 
ATOM     32  C   UNL     1      -6.300  14.308  19.417  0.00  0.00    +0.000 A 
ATOM     33  C   UNL     1      -6.197  15.688  19.578  0.00  0.00    +0.000 A 
ATOM     34  C   UNL     1      -5.544  16.214  20.693  0.00  0.00    +0.000 A 
ATOM     35  C   UNL     1      -5.015  15.363  21.665  0.00  0.00    +0.000 A 
ENDBRANCH  28  30
ENDBRANCH  22  23
ENDBRANCH   4  22
TORSDOF 6
ENDMDL
MODEL 9
REMARK VINA RESULT:      -8.8      2.952      4.911
REMARK  Name = 
REMARK  6 active torsions:
REMARK  status: ('A' for Active; 'I' for Inactive)
REMARK    1  A    between atoms: C_2  and  C_23
REMARK    2  A    between atoms: N_3  and  C_4
REMARK    3  A    between atoms: C_7  and  C_8
REMARK    4  A    between atoms: C_8  and  N_9
REMARK    5  A    between atoms: N_14  and  C_15
REMARK    6  A    between atoms: C_25  and  C_26
REMARK                            x       y       z     vdW  Elec       q    Type
REMARK                         _______ _______ _______ _____ _____    ______ ____
ROOT
ATOM      1  C   UNL     1       1.234   9.317  19.582  0.00  0.00    +0.000 C 
ATOM      2  C   UNL     1       0.358   9.820  18.432  0.00  0.00    +0.000 C 
ATOM      3  C   UNL     1      -0.219  11.208  18.750  0.00  0.00    +0.000 C 
ATOM      4  C   UNL     1      -0.966  11.240  20.100  0.00  0.00    +0.000 C 
ATOM      5  C   UNL     1      -0.073  10.699  21.226  0.00  0.00    +0.000 C 
ATOM      6  C   UNL     1       0.460   9.310  20.903  0.00  0.00    +0.000 C 
ENDROOT
BRANCH   1   9
ATOM      7  O   UNL     1       2.788   8.498  17.218  0.00  0.00    +0.000 OA
ATOM      8  C   UNL     1       2.546   7.721  18.128  0.00  0.00    +0.000 C 
ATOM      9  N   UNL     1       1.904   8.057  19.304  0.00  0.00    +0.000 N 
ATOM     10  H   UNL     1       1.900   7.378  20.052  0.00  0.00    +0.000 HD
BRANCH   8  11
ATOM     11  C   UNL     1       2.872   6.267  18.013  0.00  0.00    +0.000 A 
ATOM     12  C   UNL     1       1.964   5.348  18.586  0.00  0.00    +0.000 A 
ATOM     13  C   UNL     1       2.222   3.968  18.580  0.00  0.00    +0.000 A 
ATOM     14  C   UNL     1       3.377   3.506  17.936  0.00  0.00    +0.000 A 
ATOM     15  C   UNL     1       4.257   4.409  17.328  0.00  0.00    +0.000 A 
ATOM     16  C   UNL     1       4.014   5.790  17.370  0.00  0.00    +0.000 A 
ATOM     17 CL   UNL     1       5.207   6.819  16.669  0.00  0.00    +0.000 Cl
BRANCH  13  18
ATOM     18  C   UNL     1       1.300   2.999  19.284  0.00  0.00    +0.000 C 
ATOM     19  F   UNL     1       0.666   3.545  20.358  0.00  0.00    +0.000 F 
ATOM     20  F   UNL     1       0.324   2.512  18.474  0.00  0.00    +0.000 F 
ATOM     21  F   UNL     1       1.973   1.915  19.763  0.00  0.00    +0.000 F 
ENDBRANCH  13  18
ENDBRANCH   8  11
ENDBRANCH   1   9
BRANCH   4  22
ATOM     22  C   UNL     1      -1.449  12.645  20.503  0.00  0.00    +0.000 C 
BRANCH  22  23
ATOM     23  N   UNL     1      -0.485  13.660  20.111  0.00  0.00    +0.000 N 
ATOM     24  C   UNL     1       0.147  14.338  21.114  0.00  0.00    +0.000 A 
ATOM     25  N   UNL     1      -0.218  14.459  22.373  0.00  0.00    +0.000 NA
ATOM     26  N   UNL     1       0.636  15.364  22.944  0.00  0.00    +0.000 NA
ATOM     27  N   UNL     1       1.536  15.790  22.073  0.00  0.00    +0.000 NA
ATOM     28  N   UNL     1       1.300  15.106  20.925  0.00  0.00    +0.000 N 
ATOM     29  H   UNL     1      -0.826  14.254  19.354  0.00  0.00    +0.000 HD
BRANCH  28  30
ATOM     30  C   UNL     1       2.138  15.231  19.788  0.00  0.00    +0.000 A 
ATOM     31  C   UNL     1       2.991  14.190  19.395  0.00  0.00    +0.000 A 
ATOM     32  C   UNL     1       3.741  14.296  18.226  0.00  0.00    +0.000 A 
ATOM     33  C   UNL     1       3.658  15.450  17.449  0.00  0.00    +0.000 A 
ATOM     34  C   UNL     1       2.850  16.511  17.860  0.00  0.00    +0.000 A 
ATOM     35  C   UNL     1       2.103  16.413  19.035  0.00  0.00    +0.000 A 
ENDBRANCH  28  30
ENDBRANCH  22  23
ENDBRANCH   4  22
TORSDOF 6
ENDMDL
