MODEL 1
REMARK VINA RESULT:      -8.0      0.000      0.000
REMARK  Name = 
REMARK  5 active torsions:
REMARK  status: ('A' for Active; 'I' for Inactive)
REMARK    1  A    between atoms: C_2  and  C_3
REMARK    2  A    between atoms: C_3  and  S_4
REMARK    3  A    between atoms: S_4  and  C_5
REMARK    4  A    between atoms: C_11  and  C_12
REMARK    5  A    between atoms: N_20  and  C_21
REMARK                            x       y       z     vdW  Elec       q    Type
REMARK                         _______ _______ _______ _____ _____    ______ ____
ROOT
ATOM      1  C   UNL     1       7.169   6.124  17.217  0.00  0.00    +0.000 A 
ATOM      2  N   UNL     1       7.654   6.163  15.963  0.00  0.00    +0.000 NA
ATOM      3  C   UNL     1       6.991   5.493  15.012  0.00  0.00    +0.000 A 
ATOM      4  N   UNL     1       5.868   4.786  15.158  0.00  0.00    +0.000 NA
ATOM      5  C   UNL     1       5.424   4.767  16.426  0.00  0.00    +0.000 A 
ATOM      6  S   UNL     1       4.006   3.930  16.840  0.00  0.00    +0.000 S 
ATOM      7  C   UNL     1       4.123   4.374  18.497  0.00  0.00    +0.000 A 
ATOM      8  C   UNL     1       5.249   5.156  18.705  0.00  0.00    +0.000 A 
ATOM      9  C   UNL     1       6.010   5.398  17.511  0.00  0.00    +0.000 A 
ENDROOT
BRANCH   7  10
ATOM     10  C   UNL     1       3.134   3.901  19.483  0.00  0.00    +0.000 A 
ATOM     11  C   UNL     1       3.502   2.939  20.438  0.00  0.00    +0.000 A 
ATOM     12  C   UNL     1       2.580   2.460  21.374  0.00  0.00    +0.000 A 
ATOM     13  C   UNL     1       1.274   2.938  21.373  0.00  0.00    +0.000 A 
ATOM     14  C   UNL     1       0.890   3.900  20.444  0.00  0.00    +0.000 A 
ATOM     15  C   UNL     1       1.813   4.382  19.510  0.00  0.00    +0.000 A 
ENDBRANCH   7  10
BRANCH   1  16
ATOM     16  S   UNL     1       7.965   7.072  18.482  0.00  0.00    +0.000 S 
BRANCH  16  17
ATOM     17  C   UNL     1       7.904   8.724  17.703  0.00  0.00    +0.000 C 
BRANCH  17  19
ATOM     18  O   UNL     1       9.391   9.472  19.449  0.00  0.00    +0.000 OA
ATOM     19  C   UNL     1       8.782   9.746  18.420  0.00  0.00    +0.000 C 
ATOM     20  N   UNL     1       8.777  11.023  17.895  0.00  0.00    +0.000 N 
ATOM     21  H   UNL     1       8.338  11.109  16.981  0.00  0.00    +0.000 HD
BRANCH  20  22
ATOM     22  C   UNL     1       9.577  12.155  18.360  0.00  0.00    +0.000 C 
ATOM     23  C   UNL     1       9.197  12.616  19.776  0.00  0.00    +0.000 C 
ATOM     24  C   UNL     1       8.119  13.680  19.636  0.00  0.00    +0.000 C 
ATOM     25  S   UNL     1       8.664  14.664  18.252  0.00  0.00    +0.000 S 
ATOM     26  O   UNL     1       9.598  15.650  18.765  0.00  0.00    +0.000 OA
ATOM     27  O   UNL     1       7.535  15.058  17.441  0.00  0.00    +0.000 OA
ATOM     28  C   UNL     1       9.621  13.386  17.444  0.00  0.00    +0.000 C 
ENDBRANCH  20  22
ENDBRANCH  17  19
ENDBRANCH  16  17
ENDBRANCH   1  16
TORSDOF 5
ENDMDL
MODEL 2
REMARK VINA RESULT:      -7.8      0.474      1.056
REMARK  Name = 
REMARK  5 active torsions:
REMARK  status: ('A' for Active; 'I' for Inactive)
REMARK    1  A    between atoms: C_2  and  C_3
REMARK    2  A    between atoms: C_3  and  S_4
REMARK    3  A    between atoms: S_4  and  C_5
REMARK    4  A    between atoms: C_11  and  C_12
REMARK    5  A    between atoms: N_20  and  C_21
REMARK                            x       y       z     vdW  Elec       q    Type
REMARK                         _______ _______ _______ _____ _____    ______ ____
ROOT
ATOM      1  C   UNL     1       7.091   5.953  17.171  0.00  0.00    +0.000 A 
ATOM      2  N   UNL     1       7.525   6.019  15.899  0.00  0.00    +0.000 NA
ATOM      3  C   UNL     1       6.819   5.376  14.960  0.00  0.00    +0.000 A 
ATOM      4  N   UNL     1       5.699   4.671  15.135  0.00  0.00    +0.000 NA
ATOM      5  C   UNL     1       5.308   4.623  16.420  0.00  0.00    +0.000 A 
ATOM      6  S   UNL     1       3.904   3.782  16.872  0.00  0.00    +0.000 S 
ATOM      7  C   UNL     1       4.091   4.185  18.532  0.00  0.00    +0.000 A 
ATOM      8  C   UNL     1       5.228   4.957  18.713  0.00  0.00    +0.000 A 
ATOM      9  C   UNL     1       5.941   5.225  17.494  0.00  0.00    +0.000 A 
ENDROOT
BRANCH   7  10
ATOM     10  C   UNL     1       3.141   3.692  19.547  0.00  0.00    +0.000 A 
ATOM     11  C   UNL     1       1.796   4.096  19.500  0.00  0.00    +0.000 A 
ATOM     12  C   UNL     1       0.877   3.657  20.459  0.00  0.00    +0.000 A 
ATOM     13  C   UNL     1       1.286   2.805  21.479  0.00  0.00    +0.000 A 
ATOM     14  C   UNL     1       2.611   2.383  21.537  0.00  0.00    +0.000 A 
ATOM     15  C   UNL     1       3.529   2.817  20.576  0.00  0.00    +0.000 A 
ENDBRANCH   7  10
BRANCH   1  16
ATOM     16  S   UNL     1       7.943   6.867  18.424  0.00  0.00    +0.000 S 
BRANCH  16  17
ATOM     17  C   UNL     1       7.871   8.535  17.681  0.00  0.00    +0.000 C 
BRANCH  17  19
ATOM     18  O   UNL     1       9.109   9.381  19.571  0.00  0.00    +0.000 OA
ATOM     19  C   UNL     1       8.762   9.540  18.405  0.00  0.00    +0.000 C 
ATOM     20  N   UNL     1       9.079  10.685  17.701  0.00  0.00    +0.000 N 
ATOM     21  H   UNL     1       8.842  10.660  16.712  0.00  0.00    +0.000 HD
BRANCH  20  22
ATOM     22  C   UNL     1       9.962  11.761  18.148  0.00  0.00    +0.000 C 
ATOM     23  C   UNL     1      10.012  11.899  19.678  0.00  0.00    +0.000 C 
ATOM     24  C   UNL     1       8.923  12.880  20.084  0.00  0.00    +0.000 C 
ATOM     25  S   UNL     1       9.015  14.160  18.847  0.00  0.00    +0.000 S 
ATOM     26  O   UNL     1      10.042  15.096  19.268  0.00  0.00    +0.000 OA
ATOM     27  O   UNL     1       7.690  14.617  18.497  0.00  0.00    +0.000 OA
ATOM     28  C   UNL     1       9.710  13.150  17.544  0.00  0.00    +0.000 C 
ENDBRANCH  20  22
ENDBRANCH  17  19
ENDBRANCH  16  17
ENDBRANCH   1  16
TORSDOF 5
ENDMDL
MODEL 3
REMARK VINA RESULT:      -7.8      5.953      8.448
REMARK  Name = 
REMARK  5 active torsions:
REMARK  status: ('A' for Active; 'I' for Inactive)
REMARK    1  A    between atoms: C_2  and  C_3
REMARK    2  A    between atoms: C_3  and  S_4
REMARK    3  A    between atoms: S_4  and  C_5
REMARK    4  A    between atoms: C_11  and  C_12
REMARK    5  A    between atoms: N_20  and  C_21
REMARK                            x       y       z     vdW  Elec       q    Type
REMARK                         _______ _______ _______ _____ _____    ______ ____
ROOT
ATOM      1  C   UNL     1       1.991   7.457  19.578  0.00  0.00    +0.000 A 
ATOM      2  N   UNL     1       2.759   7.280  18.488  0.00  0.00    +0.000 NA
ATOM      3  C   UNL     1       2.817   8.274  17.593  0.00  0.00    +0.000 A 
ATOM      4  N   UNL     1       2.202   9.457  17.660  0.00  0.00    +0.000 NA
ATOM      5  C   UNL     1       1.439   9.587  18.759  0.00  0.00    +0.000 A 
ATOM      6  S   UNL     1       0.567  11.014  19.050  0.00  0.00    +0.000 S 
ATOM      7  C   UNL     1      -0.077  10.423  20.529  0.00  0.00    +0.000 A 
ATOM      8  C   UNL     1       0.386   9.139  20.775  0.00  0.00    +0.000 A 
ATOM      9  C   UNL     1       1.272   8.644  19.759  0.00  0.00    +0.000 A 
ENDROOT
BRANCH   7  10
ATOM     10  C   UNL     1      -1.015  11.233  21.329  0.00  0.00    +0.000 A 
ATOM     11  C   UNL     1      -1.818  12.199  20.699  0.00  0.00    +0.000 A 
ATOM     12  C   UNL     1      -2.703  12.993  21.435  0.00  0.00    +0.000 A 
ATOM     13  C   UNL     1      -2.804  12.833  22.813  0.00  0.00    +0.000 A 
ATOM     14  C   UNL     1      -2.028  11.873  23.456  0.00  0.00    +0.000 A 
ATOM     15  C   UNL     1      -1.145  11.076  22.720  0.00  0.00    +0.000 A 
ENDBRANCH   7  10
BRANCH   1  16
ATOM     16  S   UNL     1       1.962   6.205  20.829  0.00  0.00    +0.000 S 
BRANCH  16  17
ATOM     17  C   UNL     1       1.808   4.724  19.768  0.00  0.00    +0.000 C 
BRANCH  17  19
ATOM     18  O   UNL     1       3.607   3.172  20.181  0.00  0.00    +0.000 OA
ATOM     19  C   UNL     1       3.154   4.067  19.476  0.00  0.00    +0.000 C 
ATOM     20  N   UNL     1       3.874   4.603  18.426  0.00  0.00    +0.000 N 
ATOM     21  H   UNL     1       3.357   5.255  17.841  0.00  0.00    +0.000 HD
BRANCH  20  22
ATOM     22  C   UNL     1       5.151   4.113  17.912  0.00  0.00    +0.000 C 
ATOM     23  C   UNL     1       6.358   4.883  18.472  0.00  0.00    +0.000 C 
ATOM     24  C   UNL     1       6.638   6.042  17.529  0.00  0.00    +0.000 C 
ATOM     25  S   UNL     1       6.424   5.336  15.906  0.00  0.00    +0.000 S 
ATOM     26  O   UNL     1       7.680   4.707  15.539  0.00  0.00    +0.000 OA
ATOM     27  O   UNL     1       5.781   6.285  15.027  0.00  0.00    +0.000 OA
ATOM     28  C   UNL     1       5.292   4.036  16.386  0.00  0.00    +0.000 C 
ENDBRANCH  20  22
ENDBRANCH  17  19
ENDBRANCH  16  17
ENDBRANCH   1  16
TORSDOF 5
ENDMDL
MODEL 4
REMARK VINA RESULT:      -7.7      5.855      8.251
REMARK  Name = 
REMARK  5 active torsions:
REMARK  status: ('A' for Active; 'I' for Inactive)
REMARK    1  A    between atoms: C_2  and  C_3
REMARK    2  A    between atoms: C_3  and  S_4
REMARK    3  A    between atoms: S_4  and  C_5
REMARK    4  A    between atoms: C_11  and  C_12
REMARK    5  A    between atoms: N_20  and  C_21
REMARK                            x       y       z     vdW  Elec       q    Type
REMARK                         _______ _______ _______ _____ _____    ______ ____
ROOT
ATOM      1  C   UNL     1       2.153   7.368  19.399  0.00  0.00    +0.000 A 
ATOM      2  N   UNL     1       2.893   7.201  18.289  0.00  0.00    +0.000 NA
ATOM      3  C   UNL     1       2.904   8.190  17.386  0.00  0.00    +0.000 A 
ATOM      4  N   UNL     1       2.266   9.359  17.463  0.00  0.00    +0.000 NA
ATOM      5  C   UNL     1       1.532   9.480  18.583  0.00  0.00    +0.000 A 
ATOM      6  S   UNL     1       0.639  10.891  18.890  0.00  0.00    +0.000 S 
ATOM      7  C   UNL     1       0.049  10.296  20.391  0.00  0.00    +0.000 A 
ATOM      8  C   UNL     1       0.546   9.024  20.631  0.00  0.00    +0.000 A 
ATOM      9  C   UNL     1       1.414   8.541  19.593  0.00  0.00    +0.000 A 
ENDROOT
BRANCH   7  10
ATOM     10  C   UNL     1      -0.883  11.092  21.212  0.00  0.00    +0.000 A 
ATOM     11  C   UNL     1      -0.972  10.859  22.594  0.00  0.00    +0.000 A 
ATOM     12  C   UNL     1      -1.859  11.587  23.394  0.00  0.00    +0.000 A 
ATOM     13  C   UNL     1      -2.670  12.563  22.825  0.00  0.00    +0.000 A 
ATOM     14  C   UNL     1      -2.590  12.818  21.459  0.00  0.00    +0.000 A 
ATOM     15  C   UNL     1      -1.700  12.093  20.660  0.00  0.00    +0.000 A 
ENDBRANCH   7  10
BRANCH   1  16
ATOM     16  S   UNL     1       2.186   6.125  20.658  0.00  0.00    +0.000 S 
BRANCH  16  17
ATOM     17  C   UNL     1       1.706   4.672  19.658  0.00  0.00    +0.000 C 
BRANCH  17  19
ATOM     18  O   UNL     1       2.837   2.835  18.578  0.00  0.00    +0.000 OA
ATOM     19  C   UNL     1       2.904   3.979  19.016  0.00  0.00    +0.000 C 
ATOM     20  N   UNL     1       4.094   4.680  19.040  0.00  0.00    +0.000 N 
ATOM     21  H   UNL     1       4.011   5.656  19.315  0.00  0.00    +0.000 HD
BRANCH  20  22
ATOM     22  C   UNL     1       5.359   4.261  18.439  0.00  0.00    +0.000 C 
ATOM     23  C   UNL     1       6.545   5.142  18.862  0.00  0.00    +0.000 C 
ATOM     24  C   UNL     1       6.658   6.274  17.853  0.00  0.00    +0.000 C 
ATOM     25  S   UNL     1       6.365   5.480  16.284  0.00  0.00    +0.000 S 
ATOM     26  O   UNL     1       7.631   4.928  15.836  0.00  0.00    +0.000 OA
ATOM     27  O   UNL     1       5.581   6.338  15.425  0.00  0.00    +0.000 OA
ATOM     28  C   UNL     1       5.379   4.124  16.910  0.00  0.00    +0.000 C 
ENDBRANCH  20  22
ENDBRANCH  17  19
ENDBRANCH  16  17
ENDBRANCH   1  16
TORSDOF 5
ENDMDL
MODEL 5
REMARK VINA RESULT:      -7.7      1.303      1.692
REMARK  Name = 
REMARK  5 active torsions:
REMARK  status: ('A' for Active; 'I' for Inactive)
REMARK    1  A    between atoms: C_2  and  C_3
REMARK    2  A    between atoms: C_3  and  S_4
REMARK    3  A    between atoms: S_4  and  C_5
REMARK    4  A    between atoms: C_11  and  C_12
REMARK    5  A    between atoms: N_20  and  C_21
REMARK                            x       y       z     vdW  Elec       q    Type
REMARK                         _______ _______ _______ _____ _____    ______ ____
ROOT
ATOM      1  C   UNL     1       7.189   6.116  17.308  0.00  0.00    +0.000 A 
ATOM      2  N   UNL     1       7.671   6.123  16.053  0.00  0.00    +0.000 NA
ATOM      3  C   UNL     1       7.026   5.399  15.128  0.00  0.00    +0.000 A 
ATOM      4  N   UNL     1       5.924   4.665  15.303  0.00  0.00    +0.000 NA
ATOM      5  C   UNL     1       5.484   4.679  16.572  0.00  0.00    +0.000 A 
ATOM      6  S   UNL     1       4.092   3.817  17.021  0.00  0.00    +0.000 S 
ATOM      7  C   UNL     1       4.199   4.324  18.659  0.00  0.00    +0.000 A 
ATOM      8  C   UNL     1       5.301   5.146  18.836  0.00  0.00    +0.000 A 
ATOM      9  C   UNL     1       6.052   5.367  17.632  0.00  0.00    +0.000 A 
ENDROOT
BRANCH   7  10
ATOM     10  C   UNL     1       3.225   3.858  19.665  0.00  0.00    +0.000 A 
ATOM     11  C   UNL     1       1.967   4.474  19.759  0.00  0.00    +0.000 A 
ATOM     12  C   UNL     1       1.031   4.064  20.714  0.00  0.00    +0.000 A 
ATOM     13  C   UNL     1       1.337   3.028  21.590  0.00  0.00    +0.000 A 
ATOM     14  C   UNL     1       2.573   2.395  21.506  0.00  0.00    +0.000 A 
ATOM     15  C   UNL     1       3.507   2.802  20.549  0.00  0.00    +0.000 A 
ENDBRANCH   7  10
BRANCH   1  16
ATOM     16  S   UNL     1       7.958   7.132  18.536  0.00  0.00    +0.000 S 
BRANCH  16  17
ATOM     17  C   UNL     1       7.757   8.766  17.742  0.00  0.00    +0.000 C 
BRANCH  17  19
ATOM     18  O   UNL     1       9.363  10.552  17.510  0.00  0.00    +0.000 OA
ATOM     19  C   UNL     1       8.752   9.799  18.262  0.00  0.00    +0.000 C 
ATOM     20  N   UNL     1       8.994   9.775  19.622  0.00  0.00    +0.000 N 
ATOM     21  H   UNL     1       8.352   9.200  20.161  0.00  0.00    +0.000 HD
BRANCH  20  22
ATOM     22  C   UNL     1       9.850  10.697  20.367  0.00  0.00    +0.000 C 
ATOM     23  C   UNL     1       9.056  11.695  21.223  0.00  0.00    +0.000 C 
ATOM     24  C   UNL     1       8.796  12.925  20.369  0.00  0.00    +0.000 C 
ATOM     25  S   UNL     1      10.333  13.179  19.502  0.00  0.00    +0.000 S 
ATOM     26  O   UNL     1      11.201  13.946  20.378  0.00  0.00    +0.000 OA
ATOM     27  O   UNL     1      10.080  13.605  18.145  0.00  0.00    +0.000 OA
ATOM     28  C   UNL     1      10.889  11.479  19.550  0.00  0.00    +0.000 C 
ENDBRANCH  20  22
ENDBRANCH  17  19
ENDBRANCH  16  17
ENDBRANCH   1  16
TORSDOF 5
ENDMDL
MODEL 6
REMARK VINA RESULT:      -7.5      6.045      9.947
REMARK  Name = 
REMARK  5 active torsions:
REMARK  status: ('A' for Active; 'I' for Inactive)
REMARK    1  A    between atoms: C_2  and  C_3
REMARK    2  A    between atoms: C_3  and  S_4
REMARK    3  A    between atoms: S_4  and  C_5
REMARK    4  A    between atoms: C_11  and  C_12
REMARK    5  A    between atoms: N_20  and  C_21
REMARK                            x       y       z     vdW  Elec       q    Type
REMARK                         _______ _______ _______ _____ _____    ______ ____
ROOT
ATOM      1  C   UNL     1       0.961   9.841  20.019  0.00  0.00    +0.000 A 
ATOM      2  N   UNL     1       0.400   9.227  21.076  0.00  0.00    +0.000 NA
ATOM      3  C   UNL     1      -0.061   9.992  22.075  0.00  0.00    +0.000 A 
ATOM      4  N   UNL     1      -0.044  11.325  22.144  0.00  0.00    +0.000 NA
ATOM      5  C   UNL     1       0.534  11.895  21.073  0.00  0.00    +0.000 A 
ATOM      6  S   UNL     1       0.660  13.584  20.948  0.00  0.00    +0.000 S 
ATOM      7  C   UNL     1       1.439  13.500  19.419  0.00  0.00    +0.000 A 
ATOM      8  C   UNL     1       1.591  12.178  19.029  0.00  0.00    +0.000 A 
ATOM      9  C   UNL     1       1.064  11.236  19.977  0.00  0.00    +0.000 A 
ENDROOT
BRANCH   7  10
ATOM     10  C   UNL     1       1.881  14.723  18.722  0.00  0.00    +0.000 A 
ATOM     11  C   UNL     1       3.060  14.707  17.959  0.00  0.00    +0.000 A 
ATOM     12  C   UNL     1       3.511  15.856  17.301  0.00  0.00    +0.000 A 
ATOM     13  C   UNL     1       2.788  17.041  17.393  0.00  0.00    +0.000 A 
ATOM     14  C   UNL     1       1.610  17.076  18.133  0.00  0.00    +0.000 A 
ATOM     15  C   UNL     1       1.157  15.926  18.787  0.00  0.00    +0.000 A 
ENDBRANCH   7  10
BRANCH   1  16
ATOM     16  S   UNL     1       1.496   8.871  18.639  0.00  0.00    +0.000 S 
BRANCH  16  17
ATOM     17  C   UNL     1       2.172   7.427  19.531  0.00  0.00    +0.000 C 
BRANCH  17  19
ATOM     18  O   UNL     1       1.836   5.570  18.027  0.00  0.00    +0.000 OA
ATOM     19  C   UNL     1       2.631   6.316  18.590  0.00  0.00    +0.000 C 
ATOM     20  N   UNL     1       3.997   6.141  18.481  0.00  0.00    +0.000 N 
ATOM     21  H   UNL     1       4.558   6.883  18.892  0.00  0.00    +0.000 HD
BRANCH  20  22
ATOM     22  C   UNL     1       4.682   5.194  17.604  0.00  0.00    +0.000 C 
ATOM     23  C   UNL     1       5.724   4.339  18.341  0.00  0.00    +0.000 C 
ATOM     24  C   UNL     1       7.053   5.074  18.269  0.00  0.00    +0.000 C 
ATOM     25  S   UNL     1       7.107   5.703  16.602  0.00  0.00    +0.000 S 
ATOM     26  O   UNL     1       7.626   4.643  15.757  0.00  0.00    +0.000 OA
ATOM     27  O   UNL     1       7.690   7.024  16.582  0.00  0.00    +0.000 OA
ATOM     28  C   UNL     1       5.338   5.778  16.344  0.00  0.00    +0.000 C 
ENDBRANCH  20  22
ENDBRANCH  17  19
ENDBRANCH  16  17
ENDBRANCH   1  16
TORSDOF 5
ENDMDL
MODEL 7
REMARK VINA RESULT:      -7.4      5.722      7.500
REMARK  Name = 
REMARK  5 active torsions:
REMARK  status: ('A' for Active; 'I' for Inactive)
REMARK    1  A    between atoms: C_2  and  C_3
REMARK    2  A    between atoms: C_3  and  S_4
REMARK    3  A    between atoms: S_4  and  C_5
REMARK    4  A    between atoms: C_11  and  C_12
REMARK    5  A    between atoms: N_20  and  C_21
REMARK                            x       y       z     vdW  Elec       q    Type
REMARK                         _______ _______ _______ _____ _____    ______ ____
ROOT
ATOM      1  C   UNL     1       2.073   5.799  19.691  0.00  0.00    +0.000 A 
ATOM      2  N   UNL     1       1.343   5.111  20.587  0.00  0.00    +0.000 NA
ATOM      3  C   UNL     1       1.422   3.774  20.570  0.00  0.00    +0.000 A 
ATOM      4  N   UNL     1       2.170   3.022  19.759  0.00  0.00    +0.000 NA
ATOM      5  C   UNL     1       2.875   3.748  18.875  0.00  0.00    +0.000 A 
ATOM      6  S   UNL     1       3.899   2.995  17.750  0.00  0.00    +0.000 S 
ATOM      7  C   UNL     1       4.390   4.492  17.063  0.00  0.00    +0.000 A 
ATOM      8  C   UNL     1       3.760   5.545  17.708  0.00  0.00    +0.000 A 
ATOM      9  C   UNL     1       2.883   5.128  18.766  0.00  0.00    +0.000 A 
ENDROOT
BRANCH   7  10
ATOM     10  C   UNL     1       5.326   4.536  15.923  0.00  0.00    +0.000 A 
ATOM     11  C   UNL     1       4.929   4.034  14.673  0.00  0.00    +0.000 A 
ATOM     12  C   UNL     1       5.801   4.048  13.579  0.00  0.00    +0.000 A 
ATOM     13  C   UNL     1       7.084   4.567  13.717  0.00  0.00    +0.000 A 
ATOM     14  C   UNL     1       7.494   5.081  14.944  0.00  0.00    +0.000 A 
ATOM     15  C   UNL     1       6.620   5.071  16.036  0.00  0.00    +0.000 A 
ENDBRANCH   7  10
BRANCH   1  16
ATOM     16  S   UNL     1       2.067   7.567  19.743  0.00  0.00    +0.000 S 
BRANCH  16  17
ATOM     17  C   UNL     1       1.196   7.818  21.330  0.00  0.00    +0.000 C 
BRANCH  17  19
ATOM     18  O   UNL     1       1.273   9.651  22.897  0.00  0.00    +0.000 OA
ATOM     19  C   UNL     1       1.122   9.287  21.735  0.00  0.00    +0.000 C 
ATOM     20  N   UNL     1       0.782  10.175  20.732  0.00  0.00    +0.000 N 
ATOM     21  H   UNL     1       0.797   9.786  19.793  0.00  0.00    +0.000 HD
BRANCH  20  22
ATOM     22  C   UNL     1       0.708  11.630  20.852  0.00  0.00    +0.000 C 
ATOM     23  C   UNL     1      -0.594  12.112  21.511  0.00  0.00    +0.000 C 
ATOM     24  C   UNL     1      -1.610  12.340  20.404  0.00  0.00    +0.000 C 
ATOM     25  S   UNL     1      -0.666  13.117  19.107  0.00  0.00    +0.000 S 
ATOM     26  O   UNL     1      -0.628  14.540  19.393  0.00  0.00    +0.000 OA
ATOM     27  O   UNL     1      -1.089  12.628  17.816  0.00  0.00    +0.000 OA
ATOM     28  C   UNL     1       0.924  12.435  19.563  0.00  0.00    +0.000 C 
ENDBRANCH  20  22
ENDBRANCH  17  19
ENDBRANCH  16  17
ENDBRANCH   1  16
TORSDOF 5
ENDMDL
MODEL 8
REMARK VINA RESULT:      -7.3      6.039      7.961
REMARK  Name = 
REMARK  5 active torsions:
REMARK  status: ('A' for Active; 'I' for Inactive)
REMARK    1  A    between atoms: C_2  and  C_3
REMARK    2  A    between atoms: C_3  and  S_4
REMARK    3  A    between atoms: S_4  and  C_5
REMARK    4  A    between atoms: C_11  and  C_12
REMARK    5  A    between atoms: N_20  and  C_21
REMARK                            x       y       z     vdW  Elec       q    Type
REMARK                         _______ _______ _______ _____ _____    ______ ____
ROOT
ATOM      1  C   UNL     1       2.070   5.837  19.823  0.00  0.00    +0.000 A 
ATOM      2  N   UNL     1       1.354   5.162  20.739  0.00  0.00    +0.000 NA
ATOM      3  C   UNL     1       1.451   3.826  20.752  0.00  0.00    +0.000 A 
ATOM      4  N   UNL     1       2.204   3.064  19.955  0.00  0.00    +0.000 NA
ATOM      5  C   UNL     1       2.894   3.779  19.050  0.00  0.00    +0.000 A 
ATOM      6  S   UNL     1       3.922   3.014  17.937  0.00  0.00    +0.000 S 
ATOM      7  C   UNL     1       4.390   4.501  17.213  0.00  0.00    +0.000 A 
ATOM      8  C   UNL     1       3.749   5.560  17.837  0.00  0.00    +0.000 A 
ATOM      9  C   UNL     1       2.883   5.156  18.910  0.00  0.00    +0.000 A 
ENDROOT
BRANCH   7  10
ATOM     10  C   UNL     1       5.318   4.531  16.067  0.00  0.00    +0.000 A 
ATOM     11  C   UNL     1       6.582   5.127  16.206  0.00  0.00    +0.000 A 
ATOM     12  C   UNL     1       7.476   5.184  15.131  0.00  0.00    +0.000 A 
ATOM     13  C   UNL     1       7.121   4.643  13.900  0.00  0.00    +0.000 A 
ATOM     14  C   UNL     1       5.879   4.036  13.744  0.00  0.00    +0.000 A 
ATOM     15  C   UNL     1       4.987   3.975  14.819  0.00  0.00    +0.000 A 
ENDBRANCH   7  10
BRANCH   1  16
ATOM     16  S   UNL     1       2.041   7.607  19.835  0.00  0.00    +0.000 S 
BRANCH  16  17
ATOM     17  C   UNL     1       1.001   7.880  21.313  0.00  0.00    +0.000 C 
BRANCH  17  19
ATOM     18  O   UNL     1       1.703   9.708  22.722  0.00  0.00    +0.000 OA
ATOM     19  C   UNL     1       1.013   9.333  21.780  0.00  0.00    +0.000 C 
ATOM     20  N   UNL     1       0.131  10.182  21.140  0.00  0.00    +0.000 N 
ATOM     21  H   UNL     1      -0.302   9.798  20.303  0.00  0.00    +0.000 HD
BRANCH  20  22
ATOM     22  C   UNL     1      -0.002  11.620  21.361  0.00  0.00    +0.000 C 
ATOM     23  C   UNL     1      -0.833  11.962  22.607  0.00  0.00    +0.000 C 
ATOM     24  C   UNL     1      -2.284  12.087  22.169  0.00  0.00    +0.000 C 
ATOM     25  S   UNL     1      -2.191  12.962  20.619  0.00  0.00    +0.000 S 
ATOM     26  O   UNL     1      -2.141  14.381  20.926  0.00  0.00    +0.000 OA
ATOM     27  O   UNL     1      -3.160  12.437  19.686  0.00  0.00    +0.000 OA
ATOM     28  C   UNL     1      -0.533  12.448  20.182  0.00  0.00    +0.000 C 
ENDBRANCH  20  22
ENDBRANCH  17  19
ENDBRANCH  16  17
ENDBRANCH   1  16
TORSDOF 5
ENDMDL
MODEL 9
REMARK VINA RESULT:      -7.2      5.613      7.352
REMARK  Name = 
REMARK  5 active torsions:
REMARK  status: ('A' for Active; 'I' for Inactive)
REMARK    1  A    between atoms: C_2  and  C_3
REMARK    2  A    between atoms: C_3  and  S_4
REMARK    3  A    between atoms: S_4  and  C_5
REMARK    4  A    between atoms: C_11  and  C_12
REMARK    5  A    between atoms: N_20  and  C_21
REMARK                            x       y       z     vdW  Elec       q    Type
REMARK                         _______ _______ _______ _____ _____    ______ ____
ROOT
ATOM      1  C   UNL     1       1.894   5.099  20.046  0.00  0.00    +0.000 A 
ATOM      2  N   UNL     1       1.087   4.303  20.770  0.00  0.00    +0.000 NA
ATOM      3  C   UNL     1       1.119   2.986  20.525  0.00  0.00    +0.000 A 
ATOM      4  N   UNL     1       1.886   2.350  19.637  0.00  0.00    +0.000 NA
ATOM      5  C   UNL     1       2.669   3.184  18.931  0.00  0.00    +0.000 A 
ATOM      6  S   UNL     1       3.730   2.589  17.747  0.00  0.00    +0.000 S 
ATOM      7  C   UNL     1       4.315   4.157  17.358  0.00  0.00    +0.000 A 
ATOM      8  C   UNL     1       3.686   5.112  18.142  0.00  0.00    +0.000 A 
ATOM      9  C   UNL     1       2.732   4.561  19.064  0.00  0.00    +0.000 A 
ENDROOT
BRANCH   7  10
ATOM     10  C   UNL     1       5.318   4.353  16.294  0.00  0.00    +0.000 A 
ATOM     11  C   UNL     1       5.000   4.032  14.964  0.00  0.00    +0.000 A 
ATOM     12  C   UNL     1       5.937   4.192  13.938  0.00  0.00    +0.000 A 
ATOM     13  C   UNL     1       7.208   4.679  14.224  0.00  0.00    +0.000 A 
ATOM     14  C   UNL     1       7.541   5.015  15.533  0.00  0.00    +0.000 A 
ATOM     15  C   UNL     1       6.603   4.859  16.558  0.00  0.00    +0.000 A 
ENDBRANCH   7  10
BRANCH   1  16
ATOM     16  S   UNL     1       1.948   6.831  20.405  0.00  0.00    +0.000 S 
BRANCH  16  17
ATOM     17  C   UNL     1       2.498   7.457  18.778  0.00  0.00    +0.000 C 
BRANCH  17  19
ATOM     18  O   UNL     1       1.957   9.272  17.283  0.00  0.00    +0.000 OA
ATOM     19  C   UNL     1       1.826   8.773  18.396  0.00  0.00    +0.000 C 
ATOM     20  N   UNL     1       1.136   9.416  19.406  0.00  0.00    +0.000 N 
ATOM     21  H   UNL     1       0.991   8.861  20.246  0.00  0.00    +0.000 HD
BRANCH  20  22
ATOM     22  C   UNL     1       0.361  10.648  19.278  0.00  0.00    +0.000 C 
ATOM     23  C   UNL     1       1.231  11.913  19.333  0.00  0.00    +0.000 C 
ATOM     24  C   UNL     1       1.320  12.344  20.788  0.00  0.00    +0.000 C 
ATOM     25  S   UNL     1      -0.334  12.103  21.409  0.00  0.00    +0.000 S 
ATOM     26  O   UNL     1      -1.097  13.294  21.082  0.00  0.00    +0.000 OA
ATOM     27  O   UNL     1      -0.294  11.592  22.759  0.00  0.00    +0.000 OA
ATOM     28  C   UNL     1      -0.812  10.824  20.252  0.00  0.00    +0.000 C 
ENDBRANCH  20  22
ENDBRANCH  17  19
ENDBRANCH  16  17
ENDBRANCH   1  16
TORSDOF 5
ENDMDL
