MODEL 1
REMARK VINA RESULT:      -6.6      0.000      0.000
REMARK  Name = 
REMARK  2 active torsions:
REMARK  status: ('A' for Active; 'I' for Inactive)
REMARK    1  A    between atoms: C_5  and  C_6
REMARK    2  A    between atoms: N_7  and  N_8
REMARK                            x       y       z     vdW  Elec       q    Type
REMARK                         _______ _______ _______ _____ _____    ______ ____
ROOT
ATOM      1  C   UNL     1       8.313   9.643  17.458  0.00  0.00    +0.000 C 
ATOM      2  N   UNL     1       7.724   8.613  17.971  0.00  0.00    +0.000 NA
ENDROOT
BRANCH   2   3
ATOM      3  N   UNL     1       7.284   7.671  17.088  0.00  0.00    +0.000 N 
ATOM      4  C   UNL     1       7.468   6.348  17.314  0.00  0.00    +0.000 A 
ATOM      5  N   UNL     1       7.639   5.837  18.581  0.00  0.00    +0.000 NA
ATOM      6  N   UNL     1       7.833   4.533  18.445  0.00  0.00    +0.000 NA
ATOM      7  N   UNL     1       7.786   4.329  17.127  0.00  0.00    +0.000 N 
ATOM      8  N   UNL     1       7.530   5.404  16.365  0.00  0.00    +0.000 NA
ATOM      9  H   UNL     1       7.227   7.919  16.105  0.00  0.00    +0.000 HD
ATOM     10  H   UNL     1       7.949   3.409  16.728  0.00  0.00    +0.000 HD
ENDBRANCH   2   3
BRANCH   1  15
ATOM     11 CL   UNL     1      10.593  13.874  21.021  0.00  0.00    +0.000 Cl
ATOM     12  C   UNL     1       9.949  12.657  19.989  0.00  0.00    +0.000 A 
ATOM     13  C   UNL     1       9.487  13.001  18.720  0.00  0.00    +0.000 A 
ATOM     14  C   UNL     1       8.963  12.013  17.885  0.00  0.00    +0.000 A 
ATOM     15  C   UNL     1       8.902  10.684  18.325  0.00  0.00    +0.000 A 
ATOM     16  C   UNL     1       9.365  10.341  19.597  0.00  0.00    +0.000 A 
ATOM     17  C   UNL     1       9.892  11.334  20.431  0.00  0.00    +0.000 A 
ENDBRANCH   1  15
TORSDOF 2
ENDMDL
MODEL 2
REMARK VINA RESULT:      -6.5      0.445      1.329
REMARK  Name = 
REMARK  2 active torsions:
REMARK  status: ('A' for Active; 'I' for Inactive)
REMARK    1  A    between atoms: C_5  and  C_6
REMARK    2  A    between atoms: N_7  and  N_8
REMARK                            x       y       z     vdW  Elec       q    Type
REMARK                         _______ _______ _______ _____ _____    ______ ____
ROOT
ATOM      1  C   UNL     1       8.432   9.601  17.561  0.00  0.00    +0.000 C 
ATOM      2  N   UNL     1       7.998   8.497  18.074  0.00  0.00    +0.000 NA
ENDROOT
BRANCH   2   3
ATOM      3  N   UNL     1       7.634   7.525  17.190  0.00  0.00    +0.000 N 
ATOM      4  C   UNL     1       7.396   6.254  17.592  0.00  0.00    +0.000 A 
ATOM      5  N   UNL     1       7.024   5.951  18.882  0.00  0.00    +0.000 NA
ATOM      6  N   UNL     1       6.914   4.631  18.949  0.00  0.00    +0.000 NA
ATOM      7  N   UNL     1       7.234   4.212  17.723  0.00  0.00    +0.000 N 
ATOM      8  N   UNL     1       7.512   5.165  16.821  0.00  0.00    +0.000 NA
ATOM      9  H   UNL     1       7.955   7.602  16.228  0.00  0.00    +0.000 HD
ATOM     10  H   UNL     1       7.275   3.223  17.497  0.00  0.00    +0.000 HD
ENDBRANCH   2   3
BRANCH   1  15
ATOM     11 CL   UNL     1      10.559  13.999  21.015  0.00  0.00    +0.000 Cl
ATOM     12  C   UNL     1       9.935  12.734  20.029  0.00  0.00    +0.000 A 
ATOM     13  C   UNL     1       9.898  11.430  20.519  0.00  0.00    +0.000 A 
ATOM     14  C   UNL     1       9.394  10.405  19.717  0.00  0.00    +0.000 A 
ATOM     15  C   UNL     1       8.930  10.690  18.426  0.00  0.00    +0.000 A 
ATOM     16  C   UNL     1       8.968  11.997  17.936  0.00  0.00    +0.000 A 
ATOM     17  C   UNL     1       9.473  13.023  18.744  0.00  0.00    +0.000 A 
ENDBRANCH   1  15
TORSDOF 2
ENDMDL
MODEL 3
REMARK VINA RESULT:      -6.5      6.097      6.697
REMARK  Name = 
REMARK  2 active torsions:
REMARK  status: ('A' for Active; 'I' for Inactive)
REMARK    1  A    between atoms: C_5  and  C_6
REMARK    2  A    between atoms: N_7  and  N_8
REMARK                            x       y       z     vdW  Elec       q    Type
REMARK                         _______ _______ _______ _____ _____    ______ ____
ROOT
ATOM      1  C   UNL     1       3.497   6.743  17.973  0.00  0.00    +0.000 C 
ATOM      2  N   UNL     1       3.663   5.576  18.505  0.00  0.00    +0.000 NA
ENDROOT
BRANCH   2   3
ATOM      3  N   UNL     1       4.644   4.801  17.961  0.00  0.00    +0.000 N 
ATOM      4  C   UNL     1       5.918   4.845  18.422  0.00  0.00    +0.000 A 
ATOM      5  N   UNL     1       6.220   5.250  19.702  0.00  0.00    +0.000 NA
ATOM      6  N   UNL     1       7.541   5.216  19.812  0.00  0.00    +0.000 NA
ATOM      7  N   UNL     1       7.961   4.815  18.610  0.00  0.00    +0.000 N 
ATOM      8  N   UNL     1       7.008   4.534  17.708  0.00  0.00    +0.000 NA
ATOM      9  H   UNL     1       4.567   4.538  16.983  0.00  0.00    +0.000 HD
ATOM     10  H   UNL     1       8.951   4.741  18.393  0.00  0.00    +0.000 HD
ENDBRANCH   2   3
BRANCH   1  15
ATOM     11 CL   UNL     1      -0.375  10.678  20.277  0.00  0.00    +0.000 Cl
ATOM     12  C   UNL     1       0.728   9.536  19.613  0.00  0.00    +0.000 A 
ATOM     13  C   UNL     1       1.215   8.503  20.411  0.00  0.00    +0.000 A 
ATOM     14  C   UNL     1       2.112   7.579  19.872  0.00  0.00    +0.000 A 
ATOM     15  C   UNL     1       2.519   7.696  18.536  0.00  0.00    +0.000 A 
ATOM     16  C   UNL     1       2.030   8.733  17.738  0.00  0.00    +0.000 A 
ATOM     17  C   UNL     1       1.129   9.656  18.281  0.00  0.00    +0.000 A 
ENDBRANCH   1  15
TORSDOF 2
ENDMDL
MODEL 4
REMARK VINA RESULT:      -6.4      6.138      6.555
REMARK  Name = 
REMARK  2 active torsions:
REMARK  status: ('A' for Active; 'I' for Inactive)
REMARK    1  A    between atoms: C_5  and  C_6
REMARK    2  A    between atoms: N_7  and  N_8
REMARK                            x       y       z     vdW  Elec       q    Type
REMARK                         _______ _______ _______ _____ _____    ______ ____
ROOT
ATOM      1  C   UNL     1       3.801   6.505  17.449  0.00  0.00    +0.000 C 
ATOM      2  N   UNL     1       3.707   5.216  17.445  0.00  0.00    +0.000 NA
ENDROOT
BRANCH   2   3
ATOM      3  N   UNL     1       4.659   4.545  16.734  0.00  0.00    +0.000 N 
ATOM      4  C   UNL     1       5.941   4.466  17.165  0.00  0.00    +0.000 A 
ATOM      5  N   UNL     1       6.277   4.596  18.493  0.00  0.00    +0.000 NA
ATOM      6  N   UNL     1       7.598   4.511  18.564  0.00  0.00    +0.000 NA
ATOM      7  N   UNL     1       7.985   4.353  17.296  0.00  0.00    +0.000 N 
ATOM      8  N   UNL     1       7.009   4.282  16.378  0.00  0.00    +0.000 NA
ATOM      9  H   UNL     1       4.557   4.488  15.725  0.00  0.00    +0.000 HD
ATOM     10  H   UNL     1       8.969   4.302  17.047  0.00  0.00    +0.000 HD
ENDBRANCH   2   3
BRANCH   1  15
ATOM     11 CL   UNL     1       0.138   9.898  20.744  0.00  0.00    +0.000 Cl
ATOM     12  C   UNL     1       1.182   8.913  19.794  0.00  0.00    +0.000 A 
ATOM     13  C   UNL     1       1.695   7.734  20.329  0.00  0.00    +0.000 A 
ATOM     14  C   UNL     1       2.543   6.937  19.558  0.00  0.00    +0.000 A 
ATOM     15  C   UNL     1       2.874   7.326  18.254  0.00  0.00    +0.000 A 
ATOM     16  C   UNL     1       2.359   8.509  17.718  0.00  0.00    +0.000 A 
ATOM     17  C   UNL     1       1.507   9.304  18.494  0.00  0.00    +0.000 A 
ENDBRANCH   1  15
TORSDOF 2
ENDMDL
MODEL 5
REMARK VINA RESULT:      -6.4      6.720      8.172
REMARK  Name = 
REMARK  2 active torsions:
REMARK  status: ('A' for Active; 'I' for Inactive)
REMARK    1  A    between atoms: C_5  and  C_6
REMARK    2  A    between atoms: N_7  and  N_8
REMARK                            x       y       z     vdW  Elec       q    Type
REMARK                         _______ _______ _______ _____ _____    ______ ____
ROOT
ATOM      1  C   UNL     1       5.035   3.917  18.996  0.00  0.00    +0.000 C 
ATOM      2  N   UNL     1       4.833   2.705  19.398  0.00  0.00    +0.000 NA
ENDROOT
BRANCH   2   3
ATOM      3  N   UNL     1       4.217   2.567  20.607  0.00  0.00    +0.000 N 
ATOM      4  C   UNL     1       2.872   2.667  20.732  0.00  0.00    +0.000 A 
ATOM      5  N   UNL     1       2.018   2.426  19.681  0.00  0.00    +0.000 NA
ATOM      6  N   UNL     1       0.789   2.651  20.126  0.00  0.00    +0.000 NA
ATOM      7  N   UNL     1       0.963   3.025  21.395  0.00  0.00    +0.000 N 
ATOM      8  N   UNL     1       2.226   3.026  21.849  0.00  0.00    +0.000 NA
ATOM      9  H   UNL     1       4.732   2.826  21.444  0.00  0.00    +0.000 HD
ATOM     10  H   UNL     1       0.178   3.306  21.976  0.00  0.00    +0.000 HD
ENDBRANCH   2   3
BRANCH   1  15
ATOM     11 CL   UNL     1       7.370   5.109  13.619  0.00  0.00    +0.000 Cl
ATOM     12  C   UNL     1       6.700   4.753  15.163  0.00  0.00    +0.000 A 
ATOM     13  C   UNL     1       5.379   4.320  15.259  0.00  0.00    +0.000 A 
ATOM     14  C   UNL     1       4.836   4.033  16.512  0.00  0.00    +0.000 A 
ATOM     15  C   UNL     1       5.618   4.183  17.665  0.00  0.00    +0.000 A 
ATOM     16  C   UNL     1       6.942   4.617  17.567  0.00  0.00    +0.000 A 
ATOM     17  C   UNL     1       7.484   4.901  16.309  0.00  0.00    +0.000 A 
ENDBRANCH   1  15
TORSDOF 2
ENDMDL
MODEL 6
REMARK VINA RESULT:      -6.4      6.769      8.211
REMARK  Name = 
REMARK  2 active torsions:
REMARK  status: ('A' for Active; 'I' for Inactive)
REMARK    1  A    between atoms: C_5  and  C_6
REMARK    2  A    between atoms: N_7  and  N_8
REMARK                            x       y       z     vdW  Elec       q    Type
REMARK                         _______ _______ _______ _____ _____    ______ ____
ROOT
ATOM      1  C   UNL     1       4.897   3.948  18.866  0.00  0.00    +0.000 C 
ATOM      2  N   UNL     1       4.915   2.750  19.352  0.00  0.00    +0.000 NA
ENDROOT
BRANCH   2   3
ATOM      3  N   UNL     1       4.265   2.572  20.537  0.00  0.00    +0.000 N 
ATOM      4  C   UNL     1       2.916   2.654  20.625  0.00  0.00    +0.000 A 
ATOM      5  N   UNL     1       2.096   2.433  19.542  0.00  0.00    +0.000 NA
ATOM      6  N   UNL     1       0.852   2.633  19.956  0.00  0.00    +0.000 NA
ATOM      7  N   UNL     1       0.984   2.973  21.239  0.00  0.00    +0.000 N 
ATOM      8  N   UNL     1       2.232   2.975  21.731  0.00  0.00    +0.000 NA
ATOM      9  H   UNL     1       4.752   2.813  21.396  0.00  0.00    +0.000 HD
ATOM     10  H   UNL     1       0.179   3.228  21.804  0.00  0.00    +0.000 HD
ENDBRANCH   2   3
BRANCH   1  15
ATOM     11 CL   UNL     1       7.351   5.002  13.513  0.00  0.00    +0.000 Cl
ATOM     12  C   UNL     1       6.644   4.712  15.055  0.00  0.00    +0.000 A 
ATOM     13  C   UNL     1       7.427   4.815  16.203  0.00  0.00    +0.000 A 
ATOM     14  C   UNL     1       6.853   4.578  17.453  0.00  0.00    +0.000 A 
ATOM     15  C   UNL     1       5.497   4.237  17.547  0.00  0.00    +0.000 A 
ATOM     16  C   UNL     1       4.714   4.134  16.396  0.00  0.00    +0.000 A 
ATOM     17  C   UNL     1       5.293   4.375  15.144  0.00  0.00    +0.000 A 
ENDBRANCH   1  15
TORSDOF 2
ENDMDL
MODEL 7
REMARK VINA RESULT:      -6.3      6.430      7.122
REMARK  Name = 
REMARK  2 active torsions:
REMARK  status: ('A' for Active; 'I' for Inactive)
REMARK    1  A    between atoms: C_5  and  C_6
REMARK    2  A    between atoms: N_7  and  N_8
REMARK                            x       y       z     vdW  Elec       q    Type
REMARK                         _______ _______ _______ _____ _____    ______ ____
ROOT
ATOM      1  C   UNL     1       3.521   4.760  17.445  0.00  0.00    +0.000 C 
ATOM      2  N   UNL     1       4.724   4.323  17.627  0.00  0.00    +0.000 NA
ENDROOT
BRANCH   2   3
ATOM      3  N   UNL     1       5.256   3.584  16.611  0.00  0.00    +0.000 N 
ATOM      4  C   UNL     1       6.087   4.134  15.694  0.00  0.00    +0.000 A 
ATOM      5  N   UNL     1       6.826   5.264  15.960  0.00  0.00    +0.000 NA
ATOM      6  N   UNL     1       7.491   5.556  14.850  0.00  0.00    +0.000 NA
ATOM      7  N   UNL     1       7.113   4.614  13.984  0.00  0.00    +0.000 N 
ATOM      8  N   UNL     1       6.270   3.680  14.447  0.00  0.00    +0.000 NA
ATOM      9  H   UNL     1       4.729   2.786  16.267  0.00  0.00    +0.000 HD
ATOM     10  H   UNL     1       7.441   4.619  13.022  0.00  0.00    +0.000 HD
ENDBRANCH   2   3
BRANCH   1  15
ATOM     11 CL   UNL     1       1.026   8.346  21.532  0.00  0.00    +0.000 Cl
ATOM     12  C   UNL     1       1.732   7.310  20.352  0.00  0.00    +0.000 A 
ATOM     13  C   UNL     1       1.830   5.944  20.605  0.00  0.00    +0.000 A 
ATOM     14  C   UNL     1       2.405   5.105  19.648  0.00  0.00    +0.000 A 
ATOM     15  C   UNL     1       2.879   5.639  18.443  0.00  0.00    +0.000 A 
ATOM     16  C   UNL     1       2.779   7.009  18.191  0.00  0.00    +0.000 A 
ATOM     17  C   UNL     1       2.201   7.847  19.152  0.00  0.00    +0.000 A 
ENDBRANCH   1  15
TORSDOF 2
ENDMDL
MODEL 8
REMARK VINA RESULT:      -6.3      6.330      6.901
REMARK  Name = 
REMARK  2 active torsions:
REMARK  status: ('A' for Active; 'I' for Inactive)
REMARK    1  A    between atoms: C_5  and  C_6
REMARK    2  A    between atoms: N_7  and  N_8
REMARK                            x       y       z     vdW  Elec       q    Type
REMARK                         _______ _______ _______ _____ _____    ______ ____
ROOT
ATOM      1  C   UNL     1       3.629   5.153  17.593  0.00  0.00    +0.000 C 
ATOM      2  N   UNL     1       4.617   4.394  17.941  0.00  0.00    +0.000 NA
ENDROOT
BRANCH   2   3
ATOM      3  N   UNL     1       5.251   3.732  16.932  0.00  0.00    +0.000 N 
ATOM      4  C   UNL     1       6.151   4.353  16.132  0.00  0.00    +0.000 A 
ATOM      5  N   UNL     1       6.842   5.472  16.538  0.00  0.00    +0.000 NA
ATOM      6  N   UNL     1       7.598   5.847  15.515  0.00  0.00    +0.000 NA
ATOM      7  N   UNL     1       7.318   4.961  14.558  0.00  0.00    +0.000 N 
ATOM      8  N   UNL     1       6.454   3.986  14.880  0.00  0.00    +0.000 NA
ATOM      9  H   UNL     1       4.772   2.953  16.489  0.00  0.00    +0.000 HD
ATOM     10  H   UNL     1       7.730   5.034  13.632  0.00  0.00    +0.000 HD
ENDBRANCH   2   3
BRANCH   1  15
ATOM     11 CL   UNL     1       0.670   8.471  21.596  0.00  0.00    +0.000 Cl
ATOM     12  C   UNL     1       1.533   7.522  20.449  0.00  0.00    +0.000 A 
ATOM     13  C   UNL     1       1.999   8.111  19.276  0.00  0.00    +0.000 A 
ATOM     14  C   UNL     1       2.697   7.340  18.345  0.00  0.00    +0.000 A 
ATOM     15  C   UNL     1       2.924   5.980  18.593  0.00  0.00    +0.000 A 
ATOM     16  C   UNL     1       2.457   5.390  19.770  0.00  0.00    +0.000 A 
ATOM     17  C   UNL     1       1.759   6.167  20.702  0.00  0.00    +0.000 A 
ENDBRANCH   1  15
TORSDOF 2
ENDMDL
MODEL 9
REMARK VINA RESULT:      -6.3      6.909      8.111
REMARK  Name = 
REMARK  2 active torsions:
REMARK  status: ('A' for Active; 'I' for Inactive)
REMARK    1  A    between atoms: C_5  and  C_6
REMARK    2  A    between atoms: N_7  and  N_8
REMARK                            x       y       z     vdW  Elec       q    Type
REMARK                         _______ _______ _______ _____ _____    ______ ____
ROOT
ATOM      1  C   UNL     1       4.560   5.279  17.076  0.00  0.00    +0.000 C 
ATOM      2  N   UNL     1       5.755   4.879  16.787  0.00  0.00    +0.000 NA
ENDROOT
BRANCH   2   3
ATOM      3  N   UNL     1       6.415   5.596  15.834  0.00  0.00    +0.000 N 
ATOM      4  C   UNL     1       6.665   5.081  14.606  0.00  0.00    +0.000 A 
ATOM      5  N   UNL     1       5.901   4.074  14.064  0.00  0.00    +0.000 NA
ATOM      6  N   UNL     1       6.434   3.779  12.886  0.00  0.00    +0.000 NA
ATOM      7  N   UNL     1       7.483   4.599  12.787  0.00  0.00    +0.000 N 
ATOM      8  N   UNL     1       7.668   5.457  13.801  0.00  0.00    +0.000 NA
ATOM      9  H   UNL     1       7.089   6.295  16.135  0.00  0.00    +0.000 HD
ATOM     10  H   UNL     1       8.111   4.559  11.989  0.00  0.00    +0.000 HD
ENDBRANCH   2   3
BRANCH   1  15
ATOM     11 CL   UNL     1       1.462   2.720  21.509  0.00  0.00    +0.000 Cl
ATOM     12  C   UNL     1       2.350   3.445  20.225  0.00  0.00    +0.000 A 
ATOM     13  C   UNL     1       3.630   2.985  19.925  0.00  0.00    +0.000 A 
ATOM     14  C   UNL     1       4.351   3.575  18.886  0.00  0.00    +0.000 A 
ATOM     15  C   UNL     1       3.785   4.627  18.152  0.00  0.00    +0.000 A 
ATOM     16  C   UNL     1       2.502   5.088  18.454  0.00  0.00    +0.000 A 
ATOM     17  C   UNL     1       1.782   4.491  19.496  0.00  0.00    +0.000 A 
ENDBRANCH   1  15
TORSDOF 2
ENDMDL
