MODEL 1
REMARK VINA RESULT:      -7.0      0.000      0.000
REMARK  Name = 
REMARK  7 active torsions:
REMARK  status: ('A' for Active; 'I' for Inactive)
REMARK    1  A    between atoms: C_1  and  N_2
REMARK    2  A    between atoms: N_2  and  C_3
REMARK    3  A    between atoms: N_2  and  C_4
REMARK    4  A    between atoms: C_4  and  C_5
REMARK    5  A    between atoms: C_5  and  N_6
REMARK    6  A    between atoms: C_11  and  N_12
REMARK    7  A    between atoms: C_16  and  N_17
REMARK                            x       y       z     vdW  Elec       q    Type
REMARK                         _______ _______ _______ _____ _____    ______ ____
ROOT
ATOM      1  N   UNL     1       2.301   7.870  18.967  0.00  0.00    +0.000 N 
ATOM      2  C   UNL     1       1.911   7.060  20.009  0.00  0.00    +0.000 C 
ATOM      3  O   UNL     1       1.192   7.492  20.899  0.00  0.00    +0.000 OA
ATOM      4  C   UNL     1       2.327   5.634  20.058  0.00  0.00    +0.000 A 
ATOM      5  C   UNL     1       1.890   4.785  21.088  0.00  0.00    +0.000 A 
ATOM      6  C   UNL     1       2.268   3.437  21.106  0.00  0.00    +0.000 A 
ATOM      7  C   UNL     1       3.098   2.932  20.095  0.00  0.00    +0.000 A 
ATOM      8  C   UNL     1       3.546   3.769  19.062  0.00  0.00    +0.000 A 
ATOM      9  C   UNL     1       4.373   3.273  18.041  0.00  0.00    +0.000 A 
ATOM     10  C   UNL     1       4.806   4.117  17.008  0.00  0.00    +0.000 A 
ATOM     11  C   UNL     1       4.411   5.459  16.996  0.00  0.00    +0.000 A 
ATOM     12  C   UNL     1       3.585   5.969  18.010  0.00  0.00    +0.000 A 
ATOM     13  C   UNL     1       3.157   5.127  19.046  0.00  0.00    +0.000 A 
ATOM     14  C   UNL     1       3.141   7.384  17.992  0.00  0.00    +0.000 C 
ATOM     15  O   UNL     1       3.531   8.110  17.090  0.00  0.00    +0.000 OA
ENDROOT
BRANCH   6  16
ATOM     16  N   UNL     1       1.802   2.588  22.140  0.00  0.00    +0.000 N 
ATOM     17  H   UNL     1       1.000   1.959  21.983  0.00  0.00    +0.000 HD
ATOM     18  H   UNL     1       2.268   2.571  23.060  0.00  0.00    +0.000 HD
ENDBRANCH   6  16
BRANCH  10  19
ATOM     19  N   UNL     1       5.635   3.619  15.974  0.00  0.00    +0.000 N 
ATOM     20  H   UNL     1       5.499   3.919  14.998  0.00  0.00    +0.000 HD
ATOM     21  H   UNL     1       6.393   2.951  16.183  0.00  0.00    +0.000 HD
ENDBRANCH  10  19
BRANCH   1  22
ATOM     22  C   UNL     1       1.802   9.247  18.873  0.00  0.00    +0.000 C 
BRANCH  22  23
ATOM     23  C   UNL     1       0.618   9.324  17.885  0.00  0.00    +0.000 C 
BRANCH  23  25
ATOM     24  C   UNL     1      -1.682  10.129  17.646  0.00  0.00    +0.000 C 
ATOM     25  N   UNL     1      -0.374  10.350  18.286  0.00  0.00    +0.000 NA
ATOM     26  C   UNL     1      -0.518  10.363  19.751  0.00  0.00    +0.000 C 
ENDBRANCH  23  25
ENDBRANCH  22  23
ENDBRANCH   1  22
TORSDOF 5
ENDMDL
MODEL 2
REMARK VINA RESULT:      -6.9      2.253      6.366
REMARK  Name = 
REMARK  7 active torsions:
REMARK  status: ('A' for Active; 'I' for Inactive)
REMARK    1  A    between atoms: C_1  and  N_2
REMARK    2  A    between atoms: N_2  and  C_3
REMARK    3  A    between atoms: N_2  and  C_4
REMARK    4  A    between atoms: C_4  and  C_5
REMARK    5  A    between atoms: C_5  and  N_6
REMARK    6  A    between atoms: C_11  and  N_12
REMARK    7  A    between atoms: C_16  and  N_17
REMARK                            x       y       z     vdW  Elec       q    Type
REMARK                         _______ _______ _______ _____ _____    ______ ____
ROOT
ATOM      1  N   UNL     1       5.662   5.083  17.178  0.00  0.00    +0.000 N 
ATOM      2  C   UNL     1       5.093   6.308  16.911  0.00  0.00    +0.000 C 
ATOM      3  O   UNL     1       5.512   7.003  15.996  0.00  0.00    +0.000 OA
ATOM      4  C   UNL     1       3.939   6.799  17.707  0.00  0.00    +0.000 A 
ATOM      5  C   UNL     1       3.318   8.022  17.409  0.00  0.00    +0.000 A 
ATOM      6  C   UNL     1       2.213   8.459  18.150  0.00  0.00    +0.000 A 
ATOM      7  C   UNL     1       1.729   7.674  19.207  0.00  0.00    +0.000 A 
ATOM      8  C   UNL     1       2.341   6.452  19.520  0.00  0.00    +0.000 A 
ATOM      9  C   UNL     1       1.861   5.655  20.572  0.00  0.00    +0.000 A 
ATOM     10  C   UNL     1       2.475   4.429  20.869  0.00  0.00    +0.000 A 
ATOM     11  C   UNL     1       3.571   4.001  20.112  0.00  0.00    +0.000 A 
ATOM     12  C   UNL     1       4.062   4.786  19.058  0.00  0.00    +0.000 A 
ATOM     13  C   UNL     1       3.452   6.014  18.765  0.00  0.00    +0.000 A 
ATOM     14  C   UNL     1       5.207   4.327  18.234  0.00  0.00    +0.000 C 
ATOM     15  O   UNL     1       5.738   3.261  18.508  0.00  0.00    +0.000 OA
ENDROOT
BRANCH   6  16
ATOM     16  N   UNL     1       1.585   9.686  17.823  0.00  0.00    +0.000 N 
ATOM     17  H   UNL     1       0.645   9.698  17.397  0.00  0.00    +0.000 HD
ATOM     18  H   UNL     1       2.047  10.586  18.022  0.00  0.00    +0.000 HD
ENDBRANCH   6  16
BRANCH  10  19
ATOM     19  N   UNL     1       1.991   3.621  21.926  0.00  0.00    +0.000 N 
ATOM     20  H   UNL     1       2.638   3.068  22.506  0.00  0.00    +0.000 HD
ATOM     21  H   UNL     1       0.982   3.577  22.134  0.00  0.00    +0.000 HD
ENDBRANCH  10  19
BRANCH   1  22
ATOM     22  C   UNL     1       6.734   4.562  16.323  0.00  0.00    +0.000 C 
BRANCH  22  23
ATOM     23  C   UNL     1       6.143   3.717  15.174  0.00  0.00    +0.000 C 
BRANCH  23  25
ATOM     24  C   UNL     1       7.525   5.111  13.711  0.00  0.00    +0.000 C 
ATOM     25  N   UNL     1       6.239   4.411  13.868  0.00  0.00    +0.000 NA
ATOM     26  C   UNL     1       6.043   3.449  12.771  0.00  0.00    +0.000 C 
ENDBRANCH  23  25
ENDBRANCH  22  23
ENDBRANCH   1  22
TORSDOF 5
ENDMDL
MODEL 3
REMARK VINA RESULT:      -6.8      0.187      3.558
REMARK  Name = 
REMARK  7 active torsions:
REMARK  status: ('A' for Active; 'I' for Inactive)
REMARK    1  A    between atoms: C_1  and  N_2
REMARK    2  A    between atoms: N_2  and  C_3
REMARK    3  A    between atoms: N_2  and  C_4
REMARK    4  A    between atoms: C_4  and  C_5
REMARK    5  A    between atoms: C_5  and  N_6
REMARK    6  A    between atoms: C_11  and  N_12
REMARK    7  A    between atoms: C_16  and  N_17
REMARK                            x       y       z     vdW  Elec       q    Type
REMARK                         _______ _______ _______ _____ _____    ______ ____
ROOT
ATOM      1  N   UNL     1       2.248   7.830  19.011  0.00  0.00    +0.000 N 
ATOM      2  C   UNL     1       3.043   7.353  17.993  0.00  0.00    +0.000 C 
ATOM      3  O   UNL     1       3.393   8.087  17.079  0.00  0.00    +0.000 OA
ATOM      4  C   UNL     1       3.519   5.946  17.999  0.00  0.00    +0.000 A 
ATOM      5  C   UNL     1       4.374   5.464  16.994  0.00  0.00    +0.000 A 
ATOM      6  C   UNL     1       4.838   4.143  17.028  0.00  0.00    +0.000 A 
ATOM      7  C   UNL     1       4.437   3.290  18.067  0.00  0.00    +0.000 A 
ATOM      8  C   UNL     1       3.581   3.755  19.075  0.00  0.00    +0.000 A 
ATOM      9  C   UNL     1       3.177   2.912  20.123  0.00  0.00    +0.000 A 
ATOM     10  C   UNL     1       2.328   3.392  21.131  0.00  0.00    +0.000 A 
ATOM     11  C   UNL     1       1.882   4.717  21.090  0.00  0.00    +0.000 A 
ATOM     12  C   UNL     1       2.276   5.572  20.049  0.00  0.00    +0.000 A 
ATOM     13  C   UNL     1       3.120   5.091  19.039  0.00  0.00    +0.000 A 
ATOM     14  C   UNL     1       1.829   6.985  20.012  0.00  0.00    +0.000 C 
ATOM     15  O   UNL     1       1.084   7.389  20.893  0.00  0.00    +0.000 OA
ENDROOT
BRANCH   6  16
ATOM     16  N   UNL     1       5.717   3.678  16.019  0.00  0.00    +0.000 N 
ATOM     17  H   UNL     1       6.218   4.343  15.409  0.00  0.00    +0.000 HD
ATOM     18  H   UNL     1       5.884   2.669  15.888  0.00  0.00    +0.000 HD
ENDBRANCH   6  16
BRANCH  10  19
ATOM     19  N   UNL     1       1.924   2.546  22.192  0.00  0.00    +0.000 N 
ATOM     20  H   UNL     1       2.141   2.785  23.170  0.00  0.00    +0.000 HD
ATOM     21  H   UNL     1       1.400   1.678  22.002  0.00  0.00    +0.000 HD
ENDBRANCH  10  19
BRANCH   1  22
ATOM     22  C   UNL     1       1.866   9.246  19.050  0.00  0.00    +0.000 C 
BRANCH  22  23
ATOM     23  C   UNL     1       0.700   9.516  18.074  0.00  0.00    +0.000 C 
BRANCH  23  25
ATOM     24  C   UNL     1      -1.510  10.552  17.879  0.00  0.00    +0.000 C 
ATOM     25  N   UNL     1      -0.213  10.570  18.576  0.00  0.00    +0.000 NA
ATOM     26  C   UNL     1      -0.410  10.415  20.027  0.00  0.00    +0.000 C 
ENDBRANCH  23  25
ENDBRANCH  22  23
ENDBRANCH   1  22
TORSDOF 5
ENDMDL
MODEL 4
REMARK VINA RESULT:      -6.8      2.220      5.790
REMARK  Name = 
REMARK  7 active torsions:
REMARK  status: ('A' for Active; 'I' for Inactive)
REMARK    1  A    between atoms: C_1  and  N_2
REMARK    2  A    between atoms: N_2  and  C_3
REMARK    3  A    between atoms: N_2  and  C_4
REMARK    4  A    between atoms: C_4  and  C_5
REMARK    5  A    between atoms: C_5  and  N_6
REMARK    6  A    between atoms: C_11  and  N_12
REMARK    7  A    between atoms: C_16  and  N_17
REMARK                            x       y       z     vdW  Elec       q    Type
REMARK                         _______ _______ _______ _____ _____    ______ ____
ROOT
ATOM      1  N   UNL     1       5.359   4.913  17.059  0.00  0.00    +0.000 N 
ATOM      2  C   UNL     1       4.866   4.096  18.052  0.00  0.00    +0.000 C 
ATOM      3  O   UNL     1       5.314   2.969  18.213  0.00  0.00    +0.000 OA
ATOM      4  C   UNL     1       3.802   4.577  18.971  0.00  0.00    +0.000 A 
ATOM      5  C   UNL     1       3.331   3.773  20.021  0.00  0.00    +0.000 A 
ATOM      6  C   UNL     1       2.348   4.250  20.897  0.00  0.00    +0.000 A 
ATOM      7  C   UNL     1       1.821   5.538  20.719  0.00  0.00    +0.000 A 
ATOM      8  C   UNL     1       2.280   6.352  19.672  0.00  0.00    +0.000 A 
ATOM      9  C   UNL     1       1.764   7.645  19.487  0.00  0.00    +0.000 A 
ATOM     10  C   UNL     1       2.237   8.453  18.443  0.00  0.00    +0.000 A 
ATOM     11  C   UNL     1       3.228   7.967  17.584  0.00  0.00    +0.000 A 
ATOM     12  C   UNL     1       3.752   6.677  17.756  0.00  0.00    +0.000 A 
ATOM     13  C   UNL     1       3.275   5.867  18.795  0.00  0.00    +0.000 A 
ATOM     14  C   UNL     1       4.821   6.163  16.864  0.00  0.00    +0.000 C 
ATOM     15  O   UNL     1       5.219   6.875  15.954  0.00  0.00    +0.000 OA
ENDROOT
BRANCH   6  16
ATOM     16  N   UNL     1       1.897   3.434  21.964  0.00  0.00    +0.000 N 
ATOM     17  H   UNL     1       0.890   3.343  22.167  0.00  0.00    +0.000 HD
ATOM     18  H   UNL     1       2.566   2.905  22.543  0.00  0.00    +0.000 HD
ENDBRANCH   6  16
BRANCH  10  19
ATOM     19  N   UNL     1       1.723   9.760  18.257  0.00  0.00    +0.000 N 
ATOM     20  H   UNL     1       0.937   9.931  17.614  0.00  0.00    +0.000 HD
ATOM     21  H   UNL     1       2.125  10.560  18.768  0.00  0.00    +0.000 HD
ENDBRANCH  10  19
BRANCH   1  22
ATOM     22  C   UNL     1       6.478   4.466  16.222  0.00  0.00    +0.000 C 
BRANCH  22  23
ATOM     23  C   UNL     1       5.957   3.663  15.010  0.00  0.00    +0.000 C 
BRANCH  23  25
ATOM     24  C   UNL     1       7.476   5.086  13.721  0.00  0.00    +0.000 C 
ATOM     25  N   UNL     1       6.185   4.376  13.731  0.00  0.00    +0.000 NA
ATOM     26  C   UNL     1       6.114   3.429  12.608  0.00  0.00    +0.000 C 
ENDBRANCH  23  25
ENDBRANCH  22  23
ENDBRANCH   1  22
TORSDOF 5
ENDMDL
MODEL 5
REMARK VINA RESULT:      -6.6      2.088      5.285
REMARK  Name = 
REMARK  7 active torsions:
REMARK  status: ('A' for Active; 'I' for Inactive)
REMARK    1  A    between atoms: C_1  and  N_2
REMARK    2  A    between atoms: N_2  and  C_3
REMARK    3  A    between atoms: N_2  and  C_4
REMARK    4  A    between atoms: C_4  and  C_5
REMARK    5  A    between atoms: C_5  and  N_6
REMARK    6  A    between atoms: C_11  and  N_12
REMARK    7  A    between atoms: C_16  and  N_17
REMARK                            x       y       z     vdW  Elec       q    Type
REMARK                         _______ _______ _______ _____ _____    ______ ____
ROOT
ATOM      1  N   UNL     1       4.648   5.299  17.054  0.00  0.00    +0.000 N 
ATOM      2  C   UNL     1       4.369   4.224  17.868  0.00  0.00    +0.000 C 
ATOM      3  O   UNL     1       4.891   3.137  17.665  0.00  0.00    +0.000 OA
ATOM      4  C   UNL     1       3.453   4.369  19.029  0.00  0.00    +0.000 A 
ATOM      5  C   UNL     1       3.204   3.293  19.896  0.00  0.00    +0.000 A 
ATOM      6  C   UNL     1       2.361   3.452  21.003  0.00  0.00    +0.000 A 
ATOM      7  C   UNL     1       1.751   4.692  21.242  0.00  0.00    +0.000 A 
ATOM      8  C   UNL     1       1.986   5.775  20.382  0.00  0.00    +0.000 A 
ATOM      9  C   UNL     1       1.385   7.023  20.614  0.00  0.00    +0.000 A 
ATOM     10  C   UNL     1       1.636   8.101  19.753  0.00  0.00    +0.000 A 
ATOM     11  C   UNL     1       2.491   7.930  18.658  0.00  0.00    +0.000 A 
ATOM     12  C   UNL     1       3.098   6.689  18.413  0.00  0.00    +0.000 A 
ATOM     13  C   UNL     1       2.842   5.610  19.270  0.00  0.00    +0.000 A 
ATOM     14  C   UNL     1       4.025   6.507  17.269  0.00  0.00    +0.000 C 
ATOM     15  O   UNL     1       4.230   7.452  16.523  0.00  0.00    +0.000 OA
ENDROOT
BRANCH   6  16
ATOM     16  N   UNL     1       2.136   2.363  21.881  0.00  0.00    +0.000 N 
ATOM     17  H   UNL     1       1.504   1.593  21.613  0.00  0.00    +0.000 HD
ATOM     18  H   UNL     1       2.614   2.312  22.793  0.00  0.00    +0.000 HD
ENDBRANCH   6  16
BRANCH  10  19
ATOM     19  N   UNL     1       1.036   9.362  19.987  0.00  0.00    +0.000 N 
ATOM     20  H   UNL     1       0.691   9.616  20.924  0.00  0.00    +0.000 HD
ATOM     21  H   UNL     1       0.940  10.048  19.224  0.00  0.00    +0.000 HD
ENDBRANCH  10  19
BRANCH   1  22
ATOM     22  C   UNL     1       5.630   5.173  15.972  0.00  0.00    +0.000 C 
BRANCH  22  23
ATOM     23  C   UNL     1       7.058   5.409  16.511  0.00  0.00    +0.000 C 
BRANCH  23  25
ATOM     24  C   UNL     1       7.785   5.539  18.845  0.00  0.00    +0.000 C 
ATOM     25  N   UNL     1       7.055   6.211  17.757  0.00  0.00    +0.000 NA
ATOM     26  C   UNL     1       7.632   7.541  17.500  0.00  0.00    +0.000 C 
ENDBRANCH  23  25
ENDBRANCH  22  23
ENDBRANCH   1  22
TORSDOF 5
ENDMDL
MODEL 6
REMARK VINA RESULT:      -6.6      1.204      3.843
REMARK  Name = 
REMARK  7 active torsions:
REMARK  status: ('A' for Active; 'I' for Inactive)
REMARK    1  A    between atoms: C_1  and  N_2
REMARK    2  A    between atoms: N_2  and  C_3
REMARK    3  A    between atoms: N_2  and  C_4
REMARK    4  A    between atoms: C_4  and  C_5
REMARK    5  A    between atoms: C_5  and  N_6
REMARK    6  A    between atoms: C_11  and  N_12
REMARK    7  A    between atoms: C_16  and  N_17
REMARK                            x       y       z     vdW  Elec       q    Type
REMARK                         _______ _______ _______ _____ _____    ______ ____
ROOT
ATOM      1  N   UNL     1       1.416   8.931  19.488  0.00  0.00    +0.000 N 
ATOM      2  C   UNL     1       2.207   8.793  18.370  0.00  0.00    +0.000 C 
ATOM      3  O   UNL     1       2.333   9.718  17.578  0.00  0.00    +0.000 OA
ATOM      4  C   UNL     1       2.949   7.532  18.116  0.00  0.00    +0.000 A 
ATOM      5  C   UNL     1       3.801   7.401  17.007  0.00  0.00    +0.000 A 
ATOM      6  C   UNL     1       4.517   6.216  16.796  0.00  0.00    +0.000 A 
ATOM      7  C   UNL     1       4.374   5.146  17.692  0.00  0.00    +0.000 A 
ATOM      8  C   UNL     1       3.524   5.261  18.802  0.00  0.00    +0.000 A 
ATOM      9  C   UNL     1       3.377   4.199  19.709  0.00  0.00    +0.000 A 
ATOM     10  C   UNL     1       2.532   4.329  20.821  0.00  0.00    +0.000 A 
ATOM     11  C   UNL     1       1.833   5.523  21.025  0.00  0.00    +0.000 A 
ATOM     12  C   UNL     1       1.968   6.593  20.127  0.00  0.00    +0.000 A 
ATOM     13  C   UNL     1       2.808   6.461  19.013  0.00  0.00    +0.000 A 
ATOM     14  C   UNL     1       1.250   7.871  20.350  0.00  0.00    +0.000 C 
ATOM     15  O   UNL     1       0.512   7.969  21.319  0.00  0.00    +0.000 OA
ENDROOT
BRANCH   6  16
ATOM     16  N   UNL     1       5.388   6.106  15.684  0.00  0.00    +0.000 N 
ATOM     17  H   UNL     1       5.012   5.976  14.732  0.00  0.00    +0.000 HD
ATOM     18  H   UNL     1       6.410   6.172  15.805  0.00  0.00    +0.000 HD
ENDBRANCH   6  16
BRANCH  10  19
ATOM     19  N   UNL     1       2.386   3.262  21.741  0.00  0.00    +0.000 N 
ATOM     20  H   UNL     1       2.730   2.318  21.513  0.00  0.00    +0.000 HD
ATOM     21  H   UNL     1       1.937   3.415  22.656  0.00  0.00    +0.000 HD
ENDBRANCH  10  19
BRANCH   1  22
ATOM     22  C   UNL     1       0.767  10.213  19.783  0.00  0.00    +0.000 C 
BRANCH  22  23
ATOM     23  C   UNL     1      -0.717  10.176  19.358  0.00  0.00    +0.000 C 
BRANCH  23  25
ATOM     24  C   UNL     1      -1.842   9.957  17.195  0.00  0.00    +0.000 C 
ATOM     25  N   UNL     1      -0.925  10.767  18.015  0.00  0.00    +0.000 NA
ATOM     26  C   UNL     1      -1.436  12.142  18.145  0.00  0.00    +0.000 C 
ENDBRANCH  23  25
ENDBRANCH  22  23
ENDBRANCH   1  22
TORSDOF 5
ENDMDL
MODEL 7
REMARK VINA RESULT:      -6.6      0.883      1.154
REMARK  Name = 
REMARK  7 active torsions:
REMARK  status: ('A' for Active; 'I' for Inactive)
REMARK    1  A    between atoms: C_1  and  N_2
REMARK    2  A    between atoms: N_2  and  C_3
REMARK    3  A    between atoms: N_2  and  C_4
REMARK    4  A    between atoms: C_4  and  C_5
REMARK    5  A    between atoms: C_5  and  N_6
REMARK    6  A    between atoms: C_11  and  N_12
REMARK    7  A    between atoms: C_16  and  N_17
REMARK                            x       y       z     vdW  Elec       q    Type
REMARK                         _______ _______ _______ _____ _____    ______ ____
ROOT
ATOM      1  N   UNL     1       1.855   8.475  19.213  0.00  0.00    +0.000 N 
ATOM      2  C   UNL     1       1.620   7.547  20.203  0.00  0.00    +0.000 C 
ATOM      3  O   UNL     1       0.916   7.826  21.164  0.00  0.00    +0.000 OA
ATOM      4  C   UNL     1       2.189   6.178  20.110  0.00  0.00    +0.000 A 
ATOM      5  C   UNL     1       1.911   5.208  21.087  0.00  0.00    +0.000 A 
ATOM      6  C   UNL     1       2.431   3.913  20.972  0.00  0.00    +0.000 A 
ATOM      7  C   UNL     1       3.245   3.584  19.878  0.00  0.00    +0.000 A 
ATOM      8  C   UNL     1       3.534   4.543  18.896  0.00  0.00    +0.000 A 
ATOM      9  C   UNL     1       4.344   4.223  17.794  0.00  0.00    +0.000 A 
ATOM     10  C   UNL     1       4.618   5.188  16.814  0.00  0.00    +0.000 A 
ATOM     11  C   UNL     1       4.082   6.474  16.936  0.00  0.00    +0.000 A 
ATOM     12  C   UNL     1       3.272   6.808  18.033  0.00  0.00    +0.000 A 
ATOM     13  C   UNL     1       3.003   5.846  19.015  0.00  0.00    +0.000 A 
ATOM     14  C   UNL     1       2.679   8.162  18.157  0.00  0.00    +0.000 C 
ATOM     15  O   UNL     1       2.931   8.995  17.299  0.00  0.00    +0.000 OA
ENDROOT
BRANCH   6  16
ATOM     16  N   UNL     1       2.125   2.939  21.955  0.00  0.00    +0.000 N 
ATOM     17  H   UNL     1       1.182   2.523  22.007  0.00  0.00    +0.000 HD
ATOM     18  H   UNL     1       2.842   2.618  22.621  0.00  0.00    +0.000 HD
ENDBRANCH   6  16
BRANCH  10  19
ATOM     19  N   UNL     1       5.429   4.867  15.698  0.00  0.00    +0.000 N 
ATOM     20  H   UNL     1       5.082   4.999  14.738  0.00  0.00    +0.000 HD
ATOM     21  H   UNL     1       6.384   4.501  15.830  0.00  0.00    +0.000 HD
ENDBRANCH  10  19
BRANCH   1  22
ATOM     22  C   UNL     1       1.207   9.790  19.263  0.00  0.00    +0.000 C 
BRANCH  22  23
ATOM     23  C   UNL     1      -0.086   9.785  18.419  0.00  0.00    +0.000 C 
BRANCH  23  25
ATOM     24  C   UNL     1      -0.799  11.058  20.385  0.00  0.00    +0.000 C 
ATOM     25  N   UNL     1      -1.143  10.635  19.016  0.00  0.00    +0.000 NA
ATOM     26  C   UNL     1      -1.384  11.811  18.164  0.00  0.00    +0.000 C 
ENDBRANCH  23  25
ENDBRANCH  22  23
ENDBRANCH   1  22
TORSDOF 5
ENDMDL
MODEL 8
REMARK VINA RESULT:      -6.5      2.015      5.697
REMARK  Name = 
REMARK  7 active torsions:
REMARK  status: ('A' for Active; 'I' for Inactive)
REMARK    1  A    between atoms: C_1  and  N_2
REMARK    2  A    between atoms: N_2  and  C_3
REMARK    3  A    between atoms: N_2  and  C_4
REMARK    4  A    between atoms: C_4  and  C_5
REMARK    5  A    between atoms: C_5  and  N_6
REMARK    6  A    between atoms: C_11  and  N_12
REMARK    7  A    between atoms: C_16  and  N_17
REMARK                            x       y       z     vdW  Elec       q    Type
REMARK                         _______ _______ _______ _____ _____    ______ ____
ROOT
ATOM      1  N   UNL     1       4.459   5.169  16.936  0.00  0.00    +0.000 N 
ATOM      2  C   UNL     1       3.955   6.425  17.191  0.00  0.00    +0.000 C 
ATOM      3  O   UNL     1       4.191   7.357  16.435  0.00  0.00    +0.000 OA
ATOM      4  C   UNL     1       3.088   6.668  18.373  0.00  0.00    +0.000 A 
ATOM      5  C   UNL     1       2.525   7.932  18.613  0.00  0.00    +0.000 A 
ATOM      6  C   UNL     1       1.687   8.140  19.715  0.00  0.00    +0.000 A 
ATOM      7  C   UNL     1       1.415   7.081  20.593  0.00  0.00    +0.000 A 
ATOM      8  C   UNL     1       1.972   5.813  20.369  0.00  0.00    +0.000 A 
ATOM      9  C   UNL     1       1.703   4.744  21.238  0.00  0.00    +0.000 A 
ATOM     10  C   UNL     1       2.258   3.479  20.998  0.00  0.00    +0.000 A 
ATOM     11  C   UNL     1       3.084   3.283  19.886  0.00  0.00    +0.000 A 
ATOM     12  C   UNL     1       3.364   4.343  19.009  0.00  0.00    +0.000 A 
ATOM     13  C   UNL     1       2.814   5.608  19.252  0.00  0.00    +0.000 A 
ATOM     14  C   UNL     1       4.218   4.138  17.814  0.00  0.00    +0.000 C 
ATOM     15  O   UNL     1       4.701   3.032  17.620  0.00  0.00    +0.000 OA
ENDROOT
BRANCH   6  16
ATOM     16  N   UNL     1       1.110   9.416  19.932  0.00  0.00    +0.000 N 
ATOM     17  H   UNL     1       0.170   9.504  20.349  0.00  0.00    +0.000 HD
ATOM     18  H   UNL     1       1.626  10.276  19.695  0.00  0.00    +0.000 HD
ENDBRANCH   6  16
BRANCH  10  19
ATOM     19  N   UNL     1       1.984   2.397  21.869  0.00  0.00    +0.000 N 
ATOM     20  H   UNL     1       2.599   2.196  22.671  0.00  0.00    +0.000 HD
ATOM     21  H   UNL     1       1.160   1.795  21.718  0.00  0.00    +0.000 HD
ENDBRANCH  10  19
BRANCH   1  22
ATOM     22  C   UNL     1       5.230   4.915  15.714  0.00  0.00    +0.000 C 
BRANCH  22  23
ATOM     23  C   UNL     1       6.719   5.261  15.936  0.00  0.00    +0.000 C 
BRANCH  23  25
ATOM     24  C   UNL     1       7.890   4.632  17.992  0.00  0.00    +0.000 C 
ATOM     25  N   UNL     1       7.002   5.614  17.347  0.00  0.00    +0.000 NA
ATOM     26  C   UNL     1       7.592   6.961  17.419  0.00  0.00    +0.000 C 
ENDBRANCH  23  25
ENDBRANCH  22  23
ENDBRANCH   1  22
TORSDOF 5
ENDMDL
MODEL 9
REMARK VINA RESULT:      -6.5      2.730      6.369
REMARK  Name = 
REMARK  7 active torsions:
REMARK  status: ('A' for Active; 'I' for Inactive)
REMARK    1  A    between atoms: C_1  and  N_2
REMARK    2  A    between atoms: N_2  and  C_3
REMARK    3  A    between atoms: N_2  and  C_4
REMARK    4  A    between atoms: C_4  and  C_5
REMARK    5  A    between atoms: C_5  and  N_6
REMARK    6  A    between atoms: C_11  and  N_12
REMARK    7  A    between atoms: C_16  and  N_17
REMARK                            x       y       z     vdW  Elec       q    Type
REMARK                         _______ _______ _______ _____ _____    ______ ____
ROOT
ATOM      1  N   UNL     1       5.873   4.887  16.045  0.00  0.00    +0.000 N 
ATOM      2  C   UNL     1       5.437   6.131  16.444  0.00  0.00    +0.000 C 
ATOM      3  O   UNL     1       6.062   7.137  16.140  0.00  0.00    +0.000 OA
ATOM      4  C   UNL     1       4.181   6.280  17.224  0.00  0.00    +0.000 A 
ATOM      5  C   UNL     1       3.699   7.548  17.589  0.00  0.00    +0.000 A 
ATOM      6  C   UNL     1       2.499   7.675  18.300  0.00  0.00    +0.000 A 
ATOM      7  C   UNL     1       1.778   6.527  18.661  0.00  0.00    +0.000 A 
ATOM      8  C   UNL     1       2.249   5.254  18.307  0.00  0.00    +0.000 A 
ATOM      9  C   UNL     1       1.532   4.098  18.658  0.00  0.00    +0.000 A 
ATOM     10  C   UNL     1       2.008   2.831  18.290  0.00  0.00    +0.000 A 
ATOM     11  C   UNL     1       3.202   2.721  17.569  0.00  0.00    +0.000 A 
ATOM     12  C   UNL     1       3.930   3.867  17.212  0.00  0.00    +0.000 A 
ATOM     13  C   UNL     1       3.457   5.132  17.585  0.00  0.00    +0.000 A 
ATOM     14  C   UNL     1       5.183   3.760  16.426  0.00  0.00    +0.000 C 
ATOM     15  O   UNL     1       5.590   2.650  16.118  0.00  0.00    +0.000 OA
ENDROOT
BRANCH   6  16
ATOM     16  N   UNL     1       2.015   8.961  18.643  0.00  0.00    +0.000 N 
ATOM     17  H   UNL     1       2.136   9.331  19.598  0.00  0.00    +0.000 HD
ATOM     18  H   UNL     1       1.551   9.556  17.940  0.00  0.00    +0.000 HD
ENDBRANCH   6  16
BRANCH  10  19
ATOM     19  N   UNL     1       1.285   1.664  18.637  0.00  0.00    +0.000 N 
ATOM     20  H   UNL     1       1.703   0.948  19.248  0.00  0.00    +0.000 HD
ATOM     21  H   UNL     1       0.327   1.515  18.287  0.00  0.00    +0.000 HD
ENDBRANCH  10  19
BRANCH   1  22
ATOM     22  C   UNL     1       7.058   4.757  15.190  0.00  0.00    +0.000 C 
BRANCH  22  23
ATOM     23  C   UNL     1       6.676   4.959  13.708  0.00  0.00    +0.000 C 
BRANCH  23  25
ATOM     24  C   UNL     1       4.949   3.574  12.663  0.00  0.00    +0.000 C 
ATOM     25  N   UNL     1       6.371   3.675  13.034  0.00  0.00    +0.000 NA
ATOM     26  C   UNL     1       7.222   3.517  11.843  0.00  0.00    +0.000 C 
ENDBRANCH  23  25
ENDBRANCH  22  23
ENDBRANCH   1  22
TORSDOF 5
ENDMDL
