MODEL 1
REMARK VINA RESULT:      -7.6      0.000      0.000
REMARK  Name = 
REMARK  4 active torsions:
REMARK  status: ('A' for Active; 'I' for Inactive)
REMARK    1  A    between atoms: C_1  and  C_2
REMARK    2  A    between atoms: C_2  and  C_3
REMARK    3  A    between atoms: C_2  and  N_10
REMARK    4  A    between atoms: C_3  and  C_4
REMARK                            x       y       z     vdW  Elec       q    Type
REMARK                         _______ _______ _______ _____ _____    ______ ____
ROOT
ATOM      1  C   UNL     1       5.710   6.918  17.053  0.00  0.00    +0.000 C 
ATOM      2  C   UNL     1       5.032   5.689  16.445  0.00  0.00    +0.000 C 
ENDROOT
BRANCH   2   3
ATOM      3  N   UNL     1       4.035   5.119  17.321  0.00  0.00    +0.000 NA
ATOM      4  C   UNL     1       4.189   5.264  18.759  0.00  0.00    +0.000 C 
ATOM      5  C   UNL     1       2.957   4.569  19.239  0.00  0.00    +0.000 A 
ATOM      6  C   UNL     1       2.103   4.868  20.282  0.00  0.00    +0.000 A 
ATOM      7  C   UNL     1       0.984   4.053  20.457  0.00  0.00    +0.000 A 
ATOM      8  C   UNL     1       0.787   2.916  19.651  0.00  0.00    +0.000 A 
ATOM      9  C   UNL     1       1.625   2.659  18.564  0.00  0.00    +0.000 A 
ATOM     10  C   UNL     1       2.643   3.559  18.322  0.00  0.00    +0.000 A 
ATOM     11  C   UNL     1       3.413   3.816  17.053  0.00  0.00    +0.000 C 
ENDBRANCH   2   3
BRANCH   2  12
ATOM     12  C   UNL     1       6.094   4.641  16.006  0.00  0.00    +0.000 C 
BRANCH  12  13
ATOM     13  C   UNL     1       6.387   4.461  14.526  0.00  0.00    +0.000 A 
ATOM     14  C   UNL     1       5.694   3.560  13.691  0.00  0.00    +0.000 A 
ATOM     15  C   UNL     1       6.043   3.409  12.354  0.00  0.00    +0.000 A 
ATOM     16  C   UNL     1       7.086   4.170  11.811  0.00  0.00    +0.000 A 
ATOM     17  C   UNL     1       7.754   5.086  12.613  0.00  0.00    +0.000 A 
ATOM     18  C   UNL     1       7.413   5.227  13.957  0.00  0.00    +0.000 A 
ENDBRANCH  12  13
ENDBRANCH   2  12
TORSDOF 3
ENDMDL
MODEL 2
REMARK VINA RESULT:      -7.4      1.007      1.235
REMARK  Name = 
REMARK  4 active torsions:
REMARK  status: ('A' for Active; 'I' for Inactive)
REMARK    1  A    between atoms: C_1  and  C_2
REMARK    2  A    between atoms: C_2  and  C_3
REMARK    3  A    between atoms: C_2  and  N_10
REMARK    4  A    between atoms: C_3  and  C_4
REMARK                            x       y       z     vdW  Elec       q    Type
REMARK                         _______ _______ _______ _____ _____    ______ ____
ROOT
ATOM      1  C   UNL     1       5.507   6.697  16.829  0.00  0.00    +0.000 C 
ATOM      2  C   UNL     1       4.897   5.333  16.500  0.00  0.00    +0.000 C 
ENDROOT
BRANCH   2   3
ATOM      3  N   UNL     1       4.138   4.789  17.603  0.00  0.00    +0.000 NA
ATOM      4  C   UNL     1       4.368   3.413  18.011  0.00  0.00    +0.000 C 
ATOM      5  C   UNL     1       3.416   3.304  19.158  0.00  0.00    +0.000 A 
ATOM      6  C   UNL     1       3.540   2.660  20.372  0.00  0.00    +0.000 A 
ATOM      7  C   UNL     1       2.488   2.782  21.280  0.00  0.00    +0.000 A 
ATOM      8  C   UNL     1       1.308   3.464  20.930  0.00  0.00    +0.000 A 
ATOM      9  C   UNL     1       1.219   4.160  19.722  0.00  0.00    +0.000 A 
ATOM     10  C   UNL     1       2.327   4.146  18.900  0.00  0.00    +0.000 A 
ATOM     11  C   UNL     1       2.714   5.095  17.796  0.00  0.00    +0.000 C 
ENDBRANCH   2   3
BRANCH   2  12
ATOM     12  C   UNL     1       5.994   4.349  16.004  0.00  0.00    +0.000 C 
BRANCH  12  13
ATOM     13  C   UNL     1       6.315   4.288  14.519  0.00  0.00    +0.000 A 
ATOM     14  C   UNL     1       5.628   3.469  13.600  0.00  0.00    +0.000 A 
ATOM     15  C   UNL     1       6.003   3.424  12.261  0.00  0.00    +0.000 A 
ATOM     16  C   UNL     1       7.065   4.213  11.803  0.00  0.00    +0.000 A 
ATOM     17  C   UNL     1       7.728   5.052  12.691  0.00  0.00    +0.000 A 
ATOM     18  C   UNL     1       7.361   5.085  14.035  0.00  0.00    +0.000 A 
ENDBRANCH  12  13
ENDBRANCH   2  12
TORSDOF 3
ENDMDL
MODEL 3
REMARK VINA RESULT:      -7.3      2.473      6.468
REMARK  Name = 
REMARK  4 active torsions:
REMARK  status: ('A' for Active; 'I' for Inactive)
REMARK    1  A    between atoms: C_1  and  C_2
REMARK    2  A    between atoms: C_2  and  C_3
REMARK    3  A    between atoms: C_2  and  N_10
REMARK    4  A    between atoms: C_3  and  C_4
REMARK                            x       y       z     vdW  Elec       q    Type
REMARK                         _______ _______ _______ _____ _____    ______ ____
ROOT
ATOM      1  C   UNL     1       3.621   1.898  18.438  0.00  0.00    +0.000 C 
ATOM      2  C   UNL     1       3.452   3.146  17.571  0.00  0.00    +0.000 C 
ENDROOT
BRANCH   2   3
ATOM      3  N   UNL     1       4.549   4.075  17.722  0.00  0.00    +0.000 NA
ATOM      4  C   UNL     1       5.319   4.458  16.551  0.00  0.00    +0.000 C 
ATOM      5  C   UNL     1       6.290   5.415  17.162  0.00  0.00    +0.000 A 
ATOM      6  C   UNL     1       6.804   6.604  16.685  0.00  0.00    +0.000 A 
ATOM      7  C   UNL     1       7.665   7.318  17.518  0.00  0.00    +0.000 A 
ATOM      8  C   UNL     1       8.061   6.797  18.764  0.00  0.00    +0.000 A 
ATOM      9  C   UNL     1       7.489   5.623  19.259  0.00  0.00    +0.000 A 
ATOM     10  C   UNL     1       6.531   5.007  18.479  0.00  0.00    +0.000 A 
ATOM     11  C   UNL     1       5.456   4.029  18.876  0.00  0.00    +0.000 C 
ENDBRANCH   2   3
BRANCH   2  12
ATOM     12  C   UNL     1       2.076   3.818  17.842  0.00  0.00    +0.000 C 
BRANCH  12  13
ATOM     13  C   UNL     1       2.031   5.127  18.612  0.00  0.00    +0.000 A 
ATOM     14  C   UNL     1       2.314   6.385  18.042  0.00  0.00    +0.000 A 
ATOM     15  C   UNL     1       2.302   7.541  18.814  0.00  0.00    +0.000 A 
ATOM     16  C   UNL     1       1.986   7.471  20.176  0.00  0.00    +0.000 A 
ATOM     17  C   UNL     1       1.671   6.243  20.744  0.00  0.00    +0.000 A 
ATOM     18  C   UNL     1       1.698   5.083  19.973  0.00  0.00    +0.000 A 
ENDBRANCH  12  13
ENDBRANCH   2  12
TORSDOF 3
ENDMDL
MODEL 4
REMARK VINA RESULT:      -7.3      0.812      1.651
REMARK  Name = 
REMARK  4 active torsions:
REMARK  status: ('A' for Active; 'I' for Inactive)
REMARK    1  A    between atoms: C_1  and  C_2
REMARK    2  A    between atoms: C_2  and  C_3
REMARK    3  A    between atoms: C_2  and  N_10
REMARK    4  A    between atoms: C_3  and  C_4
REMARK                            x       y       z     vdW  Elec       q    Type
REMARK                         _______ _______ _______ _____ _____    ______ ____
ROOT
ATOM      1  C   UNL     1       7.062   4.677  17.506  0.00  0.00    +0.000 C 
ATOM      2  C   UNL     1       5.749   4.641  16.721  0.00  0.00    +0.000 C 
ENDROOT
BRANCH   2   3
ATOM      3  N   UNL     1       4.599   4.464  17.578  0.00  0.00    +0.000 NA
ATOM      4  C   UNL     1       3.444   3.741  17.074  0.00  0.00    +0.000 C 
ATOM      5  C   UNL     1       2.550   3.784  18.270  0.00  0.00    +0.000 A 
ATOM      6  C   UNL     1       1.697   2.833  18.791  0.00  0.00    +0.000 A 
ATOM      7  C   UNL     1       1.020   3.146  19.971  0.00  0.00    +0.000 A 
ATOM      8  C   UNL     1       1.138   4.421  20.553  0.00  0.00    +0.000 A 
ATOM      9  C   UNL     1       2.048   5.353  20.049  0.00  0.00    +0.000 A 
ATOM     10  C   UNL     1       2.813   4.970  18.966  0.00  0.00    +0.000 A 
ATOM     11  C   UNL     1       4.123   5.527  18.473  0.00  0.00    +0.000 C 
ENDBRANCH   2   3
BRANCH   2  12
ATOM     12  C   UNL     1       5.813   3.566  15.599  0.00  0.00    +0.000 C 
BRANCH  12  13
ATOM     13  C   UNL     1       6.344   3.958  14.230  0.00  0.00    +0.000 A 
ATOM     14  C   UNL     1       5.996   3.297  13.034  0.00  0.00    +0.000 A 
ATOM     15  C   UNL     1       6.554   3.675  11.818  0.00  0.00    +0.000 A 
ATOM     16  C   UNL     1       7.463   4.739  11.764  0.00  0.00    +0.000 A 
ATOM     17  C   UNL     1       7.787   5.423  12.930  0.00  0.00    +0.000 A 
ATOM     18  C   UNL     1       7.238   5.033  14.150  0.00  0.00    +0.000 A 
ENDBRANCH  12  13
ENDBRANCH   2  12
TORSDOF 3
ENDMDL
MODEL 5
REMARK VINA RESULT:      -7.3      1.027      1.592
REMARK  Name = 
REMARK  4 active torsions:
REMARK  status: ('A' for Active; 'I' for Inactive)
REMARK    1  A    between atoms: C_1  and  C_2
REMARK    2  A    between atoms: C_2  and  C_3
REMARK    3  A    between atoms: C_2  and  N_10
REMARK    4  A    between atoms: C_3  and  C_4
REMARK                            x       y       z     vdW  Elec       q    Type
REMARK                         _______ _______ _______ _____ _____    ______ ____
ROOT
ATOM      1  C   UNL     1       4.889   6.747  16.529  0.00  0.00    +0.000 C 
ATOM      2  C   UNL     1       4.622   5.247  16.401  0.00  0.00    +0.000 C 
ENDROOT
BRANCH   2   3
ATOM      3  N   UNL     1       3.953   4.704  17.561  0.00  0.00    +0.000 NA
ATOM      4  C   UNL     1       3.180   5.592  18.413  0.00  0.00    +0.000 C 
ATOM      5  C   UNL     1       2.669   4.623  19.429  0.00  0.00    +0.000 A 
ATOM      6  C   UNL     1       1.444   4.541  20.059  0.00  0.00    +0.000 A 
ATOM      7  C   UNL     1       1.236   3.475  20.935  0.00  0.00    +0.000 A 
ATOM      8  C   UNL     1       2.273   2.570  21.230  0.00  0.00    +0.000 A 
ATOM      9  C   UNL     1       3.487   2.630  20.542  0.00  0.00    +0.000 A 
ATOM     10  C   UNL     1       3.620   3.605  19.575  0.00  0.00    +0.000 A 
ATOM     11  C   UNL     1       4.569   3.674  18.407  0.00  0.00    +0.000 C 
ENDBRANCH   2   3
BRANCH   2  12
ATOM     12  C   UNL     1       5.937   4.484  16.074  0.00  0.00    +0.000 C 
BRANCH  12  13
ATOM     13  C   UNL     1       6.442   4.460  14.641  0.00  0.00    +0.000 A 
ATOM     14  C   UNL     1       7.489   5.275  14.163  0.00  0.00    +0.000 A 
ATOM     15  C   UNL     1       7.872   5.239  12.827  0.00  0.00    +0.000 A 
ATOM     16  C   UNL     1       7.228   4.372  11.936  0.00  0.00    +0.000 A 
ATOM     17  C   UNL     1       6.218   3.538  12.400  0.00  0.00    +0.000 A 
ATOM     18  C   UNL     1       5.825   3.585  13.736  0.00  0.00    +0.000 A 
ENDBRANCH  12  13
ENDBRANCH   2  12
TORSDOF 3
ENDMDL
MODEL 6
REMARK VINA RESULT:      -7.2      2.427      6.399
REMARK  Name = 
REMARK  4 active torsions:
REMARK  status: ('A' for Active; 'I' for Inactive)
REMARK    1  A    between atoms: C_1  and  C_2
REMARK    2  A    between atoms: C_2  and  C_3
REMARK    3  A    between atoms: C_2  and  N_10
REMARK    4  A    between atoms: C_3  and  C_4
REMARK                            x       y       z     vdW  Elec       q    Type
REMARK                         _______ _______ _______ _____ _____    ______ ____
ROOT
ATOM      1  C   UNL     1       3.527   1.710  18.235  0.00  0.00    +0.000 C 
ATOM      2  C   UNL     1       3.280   3.054  17.548  0.00  0.00    +0.000 C 
ENDROOT
BRANCH   2   3
ATOM      3  N   UNL     1       4.395   3.960  17.693  0.00  0.00    +0.000 NA
ATOM      4  C   UNL     1       5.246   4.226  16.546  0.00  0.00    +0.000 C 
ATOM      5  C   UNL     1       6.210   5.202  17.138  0.00  0.00    +0.000 A 
ATOM      6  C   UNL     1       6.790   6.334  16.601  0.00  0.00    +0.000 A 
ATOM      7  C   UNL     1       7.622   7.089  17.428  0.00  0.00    +0.000 A 
ATOM      8  C   UNL     1       7.927   6.659  18.733  0.00  0.00    +0.000 A 
ATOM      9  C   UNL     1       7.288   5.546  19.283  0.00  0.00    +0.000 A 
ATOM     10  C   UNL     1       6.359   4.895  18.496  0.00  0.00    +0.000 A 
ATOM     11  C   UNL     1       5.230   3.983  18.901  0.00  0.00    +0.000 C 
ENDBRANCH   2   3
BRANCH   2  12
ATOM     12  C   UNL     1       1.946   3.683  18.043  0.00  0.00    +0.000 C 
BRANCH  12  13
ATOM     13  C   UNL     1       1.986   5.005  18.792  0.00  0.00    +0.000 A 
ATOM     14  C   UNL     1       1.685   5.141  20.163  0.00  0.00    +0.000 A 
ATOM     15  C   UNL     1       1.694   6.388  20.778  0.00  0.00    +0.000 A 
ATOM     16  C   UNL     1       2.023   7.532  20.040  0.00  0.00    +0.000 A 
ATOM     17  C   UNL     1       2.356   7.408  18.697  0.00  0.00    +0.000 A 
ATOM     18  C   UNL     1       2.333   6.160  18.078  0.00  0.00    +0.000 A 
ENDBRANCH  12  13
ENDBRANCH   2  12
TORSDOF 3
ENDMDL
MODEL 7
REMARK VINA RESULT:      -7.2      0.548      1.258
REMARK  Name = 
REMARK  4 active torsions:
REMARK  status: ('A' for Active; 'I' for Inactive)
REMARK    1  A    between atoms: C_1  and  C_2
REMARK    2  A    between atoms: C_2  and  C_3
REMARK    3  A    between atoms: C_2  and  N_10
REMARK    4  A    between atoms: C_3  and  C_4
REMARK                            x       y       z     vdW  Elec       q    Type
REMARK                         _______ _______ _______ _____ _____    ______ ____
ROOT
ATOM      1  C   UNL     1       5.317   6.679  17.017  0.00  0.00    +0.000 C 
ATOM      2  C   UNL     1       4.703   5.362  16.540  0.00  0.00    +0.000 C 
ENDROOT
BRANCH   2   3
ATOM      3  N   UNL     1       3.792   4.796  17.508  0.00  0.00    +0.000 NA
ATOM      4  C   UNL     1       4.291   4.433  18.824  0.00  0.00    +0.000 C 
ATOM      5  C   UNL     1       3.037   3.935  19.466  0.00  0.00    +0.000 A 
ATOM      6  C   UNL     1       2.568   4.078  20.756  0.00  0.00    +0.000 A 
ATOM      7  C   UNL     1       1.315   3.540  21.053  0.00  0.00    +0.000 A 
ATOM      8  C   UNL     1       0.601   2.801  20.092  0.00  0.00    +0.000 A 
ATOM      9  C   UNL     1       1.060   2.714  18.775  0.00  0.00    +0.000 A 
ATOM     10  C   UNL     1       2.231   3.376  18.467  0.00  0.00    +0.000 A 
ATOM     11  C   UNL     1       2.750   3.833  17.129  0.00  0.00    +0.000 C 
ENDBRANCH   2   3
BRANCH   2  12
ATOM     12  C   UNL     1       5.816   4.358  16.127  0.00  0.00    +0.000 C 
BRANCH  12  13
ATOM     13  C   UNL     1       6.333   4.374  14.698  0.00  0.00    +0.000 A 
ATOM     14  C   UNL     1       7.430   5.148  14.268  0.00  0.00    +0.000 A 
ATOM     15  C   UNL     1       7.823   5.154  12.934  0.00  0.00    +0.000 A 
ATOM     16  C   UNL     1       7.140   4.369  11.998  0.00  0.00    +0.000 A 
ATOM     17  C   UNL     1       6.080   3.573  12.414  0.00  0.00    +0.000 A 
ATOM     18  C   UNL     1       5.677   3.579  13.748  0.00  0.00    +0.000 A 
ENDBRANCH  12  13
ENDBRANCH   2  12
TORSDOF 3
ENDMDL
MODEL 8
REMARK VINA RESULT:      -7.2      1.651      2.583
REMARK  Name = 
REMARK  4 active torsions:
REMARK  status: ('A' for Active; 'I' for Inactive)
REMARK    1  A    between atoms: C_1  and  C_2
REMARK    2  A    between atoms: C_2  and  C_3
REMARK    3  A    between atoms: C_2  and  N_10
REMARK    4  A    between atoms: C_3  and  C_4
REMARK                            x       y       z     vdW  Elec       q    Type
REMARK                         _______ _______ _______ _____ _____    ______ ____
ROOT
ATOM      1  C   UNL     1       2.387   8.477  17.964  0.00  0.00    +0.000 C 
ATOM      2  C   UNL     1       3.047   7.170  17.524  0.00  0.00    +0.000 C 
ENDROOT
BRANCH   2   3
ATOM      3  N   UNL     1       2.637   6.046  18.333  0.00  0.00    +0.000 NA
ATOM      4  C   UNL     1       3.358   5.756  19.562  0.00  0.00    +0.000 C 
ATOM      5  C   UNL     1       2.593   4.572  20.056  0.00  0.00    +0.000 A 
ATOM      6  C   UNL     1       2.224   4.208  21.335  0.00  0.00    +0.000 A 
ATOM      7  C   UNL     1       1.453   3.055  21.484  0.00  0.00    +0.000 A 
ATOM      8  C   UNL     1       1.142   2.247  20.374  0.00  0.00    +0.000 A 
ATOM      9  C   UNL     1       1.471   2.656  19.081  0.00  0.00    +0.000 A 
ATOM     10  C   UNL     1       2.109   3.873  18.944  0.00  0.00    +0.000 A 
ATOM     11  C   UNL     1       2.209   4.773  17.740  0.00  0.00    +0.000 C 
ENDBRANCH   2   3
BRANCH   2  12
ATOM     12  C   UNL     1       4.594   7.327  17.481  0.00  0.00    +0.000 C 
BRANCH  12  13
ATOM     13  C   UNL     1       5.422   6.289  16.741  0.00  0.00    +0.000 A 
ATOM     14  C   UNL     1       5.241   5.964  15.381  0.00  0.00    +0.000 A 
ATOM     15  C   UNL     1       6.001   4.970  14.776  0.00  0.00    +0.000 A 
ATOM     16  C   UNL     1       6.977   4.286  15.511  0.00  0.00    +0.000 A 
ATOM     17  C   UNL     1       7.191   4.621  16.842  0.00  0.00    +0.000 A 
ATOM     18  C   UNL     1       6.418   5.608  17.453  0.00  0.00    +0.000 A 
ENDBRANCH  12  13
ENDBRANCH   2  12
TORSDOF 3
ENDMDL
MODEL 9
REMARK VINA RESULT:      -7.1      1.716      2.755
REMARK  Name = 
REMARK  4 active torsions:
REMARK  status: ('A' for Active; 'I' for Inactive)
REMARK    1  A    between atoms: C_1  and  C_2
REMARK    2  A    between atoms: C_2  and  C_3
REMARK    3  A    between atoms: C_2  and  N_10
REMARK    4  A    between atoms: C_3  and  C_4
REMARK                            x       y       z     vdW  Elec       q    Type
REMARK                         _______ _______ _______ _____ _____    ______ ____
ROOT
ATOM      1  C   UNL     1       2.261   8.512  18.079  0.00  0.00    +0.000 C 
ATOM      2  C   UNL     1       2.950   7.241  17.580  0.00  0.00    +0.000 C 
ENDROOT
BRANCH   2   3
ATOM      3  N   UNL     1       2.575   6.074  18.346  0.00  0.00    +0.000 NA
ATOM      4  C   UNL     1       3.202   5.841  19.636  0.00  0.00    +0.000 C 
ATOM      5  C   UNL     1       2.511   4.585  20.055  0.00  0.00    +0.000 A 
ATOM      6  C   UNL     1       2.060   4.175  21.293  0.00  0.00    +0.000 A 
ATOM      7  C   UNL     1       1.392   2.953  21.368  0.00  0.00    +0.000 A 
ATOM      8  C   UNL     1       1.264   2.130  20.233  0.00  0.00    +0.000 A 
ATOM      9  C   UNL     1       1.671   2.582  18.976  0.00  0.00    +0.000 A 
ATOM     10  C   UNL     1       2.200   3.855  18.901  0.00  0.00    +0.000 A 
ATOM     11  C   UNL     1       2.326   4.772  17.713  0.00  0.00    +0.000 C 
ENDBRANCH   2   3
BRANCH   2  12
ATOM     12  C   UNL     1       4.491   7.437  17.531  0.00  0.00    +0.000 C 
BRANCH  12  13
ATOM     13  C   UNL     1       5.355   6.356  16.901  0.00  0.00    +0.000 A 
ATOM     14  C   UNL     1       6.315   5.606  17.610  0.00  0.00    +0.000 A 
ATOM     15  C   UNL     1       7.106   4.662  16.965  0.00  0.00    +0.000 A 
ATOM     16  C   UNL     1       6.944   4.431  15.593  0.00  0.00    +0.000 A 
ATOM     17  C   UNL     1       5.977   5.138  14.889  0.00  0.00    +0.000 A 
ATOM     18  C   UNL     1       5.195   6.094  15.534  0.00  0.00    +0.000 A 
ENDBRANCH  12  13
ENDBRANCH   2  12
TORSDOF 3
ENDMDL
