MODEL 1
REMARK VINA RESULT:      -6.4      0.000      0.000
REMARK  Name = 
REMARK  4 active torsions:
REMARK  status: ('A' for Active; 'I' for Inactive)
REMARK    1  A    between atoms: C_2  and  C_10
REMARK    2  A    between atoms: N_3  and  C_4
REMARK    3  A    between atoms: N_21  and  C_22
REMARK    4  A    between atoms: C_22  and  C_23
REMARK                            x       y       z     vdW  Elec       q    Type
REMARK                         _______ _______ _______ _____ _____    ______ ____
ROOT
ATOM      1  C   UNL     1      -1.132  12.269  19.162  0.00  0.00    +0.000 C 
ATOM      2  C   UNL     1      -1.632  12.429  20.577  0.00  0.00    +0.000 A 
ATOM      3  C   UNL     1      -2.976  12.749  20.825  0.00  0.00    +0.000 A 
ATOM      4  C   UNL     1      -3.412  13.009  22.123  0.00  0.00    +0.000 A 
ATOM      5  C   UNL     1      -2.512  12.948  23.186  0.00  0.00    +0.000 A 
ATOM      6  C   UNL     1      -1.176  12.622  22.952  0.00  0.00    +0.000 A 
ATOM      7  C   UNL     1      -0.748  12.351  21.655  0.00  0.00    +0.000 A 
ATOM      8  O   UNL     1       0.582  12.110  21.450  0.00  0.00    +0.000 OA
ATOM      9  C   UNL     1       0.800  10.793  20.983  0.00  0.00    +0.000 C 
ATOM     10  C   UNL     1       0.545  10.429  19.514  0.00  0.00    +0.000 C 
ATOM     11  O   UNL     1       1.219   9.554  18.962  0.00  0.00    +0.000 OA
ATOM     12  N   UNL     1      -0.597  10.918  18.900  0.00  0.00    +0.000 N 
ENDROOT
BRANCH   1  14
ATOM     13  O   UNL     1       0.911  13.282  18.252  0.00  0.00    +0.000 OA
ATOM     14  C   UNL     1      -0.209  13.455  18.733  0.00  0.00    +0.000 C 
ATOM     15  N   UNL     1      -0.692  14.716  19.028  0.00  0.00    +0.000 N 
ATOM     16  H   UNL     1      -1.527  14.758  19.606  0.00  0.00    +0.000 HD
BRANCH  15  17
ATOM     17  C   UNL     1       0.037  15.947  18.726  0.00  0.00    +0.000 C 
ATOM     18  C   UNL     1      -0.890  17.103  18.317  0.00  0.00    +0.000 C 
ATOM     19  C   UNL     1      -1.839  17.488  19.450  0.00  0.00    +0.000 C 
ATOM     20  C   UNL     1      -1.081  17.838  20.729  0.00  0.00    +0.000 C 
ATOM     21  C   UNL     1      -0.039  16.788  21.117  0.00  0.00    +0.000 C 
ATOM     22  C   UNL     1       0.857  16.386  19.944  0.00  0.00    +0.000 C 
ENDBRANCH  15  17
ENDBRANCH   1  14
BRANCH  12  23
ATOM     23  C   UNL     1      -1.561   9.882  18.542  0.00  0.00    +0.000 C 
BRANCH  23  24
ATOM     24  C   UNL     1      -2.540  10.373  17.549  0.00  0.00    +0.000 A 
ATOM     25  C   UNL     1      -3.833  10.841  17.656  0.00  0.00    +0.000 A 
ATOM     26  C   UNL     1      -4.219  11.240  16.355  0.00  0.00    +0.000 A 
ATOM     27  C   UNL     1      -3.139  10.993  15.541  0.00  0.00    +0.000 A 
ATOM     28  O   UNL     1      -2.113  10.467  16.257  0.00  0.00    +0.000 OA
ENDBRANCH  23  24
ENDBRANCH  12  23
TORSDOF 4
ENDMDL
MODEL 2
REMARK VINA RESULT:      -6.2      2.087      4.951
REMARK  Name = 
REMARK  4 active torsions:
REMARK  status: ('A' for Active; 'I' for Inactive)
REMARK    1  A    between atoms: C_2  and  C_10
REMARK    2  A    between atoms: N_3  and  C_4
REMARK    3  A    between atoms: N_21  and  C_22
REMARK    4  A    between atoms: C_22  and  C_23
REMARK                            x       y       z     vdW  Elec       q    Type
REMARK                         _______ _______ _______ _____ _____    ______ ____
ROOT
ATOM      1  C   UNL     1       0.961  11.579  20.001  0.00  0.00    +0.000 C 
ATOM      2  C   UNL     1       1.066  13.013  19.542  0.00  0.00    +0.000 A 
ATOM      3  C   UNL     1       2.296  13.687  19.594  0.00  0.00    +0.000 A 
ATOM      4  C   UNL     1       2.371  15.043  19.279  0.00  0.00    +0.000 A 
ATOM      5  C   UNL     1       1.220  15.737  18.906  0.00  0.00    +0.000 A 
ATOM      6  C   UNL     1      -0.005  15.074  18.842  0.00  0.00    +0.000 A 
ATOM      7  C   UNL     1      -0.072  13.716  19.146  0.00  0.00    +0.000 A 
ATOM      8  O   UNL     1      -1.300  13.115  19.148  0.00  0.00    +0.000 OA
ATOM      9  C   UNL     1      -1.386  12.118  18.149  0.00  0.00    +0.000 C 
ATOM     10  C   UNL     1      -0.750  10.737  18.361  0.00  0.00    +0.000 C 
ATOM     11  O   UNL     1      -1.253   9.733  17.848  0.00  0.00    +0.000 OA
ATOM     12  N   UNL     1       0.514  10.671  18.925  0.00  0.00    +0.000 N 
ENDROOT
BRANCH   1  14
ATOM     13  O   UNL     1       0.045  10.382  21.939  0.00  0.00    +0.000 OA
ATOM     14  C   UNL     1       0.185  11.455  21.352  0.00  0.00    +0.000 C 
ATOM     15  N   UNL     1      -0.426  12.614  21.791  0.00  0.00    +0.000 N 
ATOM     16  H   UNL     1      -0.430  13.398  21.143  0.00  0.00    +0.000 HD
BRANCH  15  17
ATOM     17  C   UNL     1      -1.216  12.692  23.018  0.00  0.00    +0.000 C 
ATOM     18  C   UNL     1      -1.261  14.111  23.610  0.00  0.00    +0.000 C 
ATOM     19  C   UNL     1      -1.936  15.094  22.656  0.00  0.00    +0.000 C 
ATOM     20  C   UNL     1      -3.339  14.633  22.269  0.00  0.00    +0.000 C 
ATOM     21  C   UNL     1      -3.387  13.179  21.801  0.00  0.00    +0.000 C 
ATOM     22  C   UNL     1      -2.653  12.229  22.751  0.00  0.00    +0.000 C 
ENDBRANCH  15  17
ENDBRANCH   1  14
BRANCH  12  23
ATOM     23  C   UNL     1       1.539  10.171  18.014  0.00  0.00    +0.000 C 
BRANCH  23  24
ATOM     24  C   UNL     1       1.985   8.813  18.391  0.00  0.00    +0.000 A 
ATOM     25  C   UNL     1       2.748   7.862  17.747  0.00  0.00    +0.000 A 
ATOM     26  C   UNL     1       2.896   6.790  18.658  0.00  0.00    +0.000 A 
ATOM     27  C   UNL     1       2.219   7.156  19.796  0.00  0.00    +0.000 A 
ATOM     28  O   UNL     1       1.662   8.385  19.645  0.00  0.00    +0.000 OA
ENDBRANCH  23  24
ENDBRANCH  12  23
TORSDOF 4
ENDMDL
MODEL 3
REMARK VINA RESULT:      -6.2      2.624      5.459
REMARK  Name = 
REMARK  4 active torsions:
REMARK  status: ('A' for Active; 'I' for Inactive)
REMARK    1  A    between atoms: C_2  and  C_10
REMARK    2  A    between atoms: N_3  and  C_4
REMARK    3  A    between atoms: N_21  and  C_22
REMARK    4  A    between atoms: C_22  and  C_23
REMARK                            x       y       z     vdW  Elec       q    Type
REMARK                         _______ _______ _______ _____ _____    ______ ____
ROOT
ATOM      1  C   UNL     1      -2.088  12.329  20.735  0.00  0.00    +0.000 C 
ATOM      2  C   UNL     1      -2.740  13.004  21.917  0.00  0.00    +0.000 A 
ATOM      3  C   UNL     1      -3.060  12.269  23.068  0.00  0.00    +0.000 A 
ATOM      4  C   UNL     1      -3.764  12.866  24.113  0.00  0.00    +0.000 A 
ATOM      5  C   UNL     1      -4.152  14.202  24.019  0.00  0.00    +0.000 A 
ATOM      6  C   UNL     1      -3.830  14.944  22.883  0.00  0.00    +0.000 A 
ATOM      7  C   UNL     1      -3.115  14.347  21.847  0.00  0.00    +0.000 A 
ATOM      8  O   UNL     1      -2.883  15.079  20.717  0.00  0.00    +0.000 OA
ATOM      9  C   UNL     1      -1.500  15.301  20.523  0.00  0.00    +0.000 C 
ATOM     10  C   UNL     1      -0.600  14.198  19.950  0.00  0.00    +0.000 C 
ATOM     11  O   UNL     1       0.382  14.489  19.260  0.00  0.00    +0.000 OA
ATOM     12  N   UNL     1      -0.765  12.902  20.413  0.00  0.00    +0.000 N 
ENDROOT
BRANCH   1  14
ATOM     13  O   UNL     1      -2.686  11.953  18.384  0.00  0.00    +0.000 OA
ATOM     14  C   UNL     1      -3.072  12.185  19.530  0.00  0.00    +0.000 C 
ATOM     15  N   UNL     1      -4.399  12.443  19.817  0.00  0.00    +0.000 N 
ATOM     16  H   UNL     1      -4.598  12.826  20.737  0.00  0.00    +0.000 HD
BRANCH  15  17
ATOM     17  C   UNL     1      -5.464  12.384  18.818  0.00  0.00    +0.000 C 
ATOM     18  C   UNL     1      -6.266  11.073  18.876  0.00  0.00    +0.000 C 
ATOM     19  C   UNL     1      -6.986  10.917  20.214  0.00  0.00    +0.000 C 
ATOM     20  C   UNL     1      -7.891  12.109  20.512  0.00  0.00    +0.000 C 
ATOM     21  C   UNL     1      -7.190  13.456  20.335  0.00  0.00    +0.000 C 
ATOM     22  C   UNL     1      -6.432  13.557  19.009  0.00  0.00    +0.000 C 
ENDBRANCH  15  17
ENDBRANCH   1  14
BRANCH  12  23
ATOM     23  C   UNL     1       0.376  12.399  21.170  0.00  0.00    +0.000 C 
BRANCH  23  24
ATOM     24  C   UNL     1       0.182  10.989  21.571  0.00  0.00    +0.000 A 
ATOM     25  C   UNL     1       0.188   9.803  20.867  0.00  0.00    +0.000 A 
ATOM     26  C   UNL     1       0.023   8.774  21.823  0.00  0.00    +0.000 A 
ATOM     27  C   UNL     1      -0.071   9.397  23.045  0.00  0.00    +0.000 A 
ATOM     28  O   UNL     1       0.026  10.743  22.903  0.00  0.00    +0.000 OA
ENDBRANCH  23  24
ENDBRANCH  12  23
TORSDOF 4
ENDMDL
MODEL 4
REMARK VINA RESULT:      -6.1      8.248     10.887
REMARK  Name = 
REMARK  4 active torsions:
REMARK  status: ('A' for Active; 'I' for Inactive)
REMARK    1  A    between atoms: C_2  and  C_10
REMARK    2  A    between atoms: N_3  and  C_4
REMARK    3  A    between atoms: N_21  and  C_22
REMARK    4  A    between atoms: C_22  and  C_23
REMARK                            x       y       z     vdW  Elec       q    Type
REMARK                         _______ _______ _______ _____ _____    ______ ____
ROOT
ATOM      1  C   UNL     1       7.845  15.501  18.480  0.00  0.00    +0.000 C 
ATOM      2  C   UNL     1       9.071  16.212  19.000  0.00  0.00    +0.000 A 
ATOM      3  C   UNL     1       9.642  17.268  18.273  0.00  0.00    +0.000 A 
ATOM      4  C   UNL     1      10.837  17.849  18.694  0.00  0.00    +0.000 A 
ATOM      5  C   UNL     1      11.472  17.382  19.845  0.00  0.00    +0.000 A 
ATOM      6  C   UNL     1      10.908  16.340  20.580  0.00  0.00    +0.000 A 
ATOM      7  C   UNL     1       9.707  15.772  20.162  0.00  0.00    +0.000 A 
ATOM      8  O   UNL     1       9.220  14.702  20.861  0.00  0.00    +0.000 OA
ATOM      9  C   UNL     1       7.984  15.007  21.475  0.00  0.00    +0.000 C 
ATOM     10  C   UNL     1       6.684  15.019  20.659  0.00  0.00    +0.000 C 
ATOM     11  O   UNL     1       5.612  14.710  21.188  0.00  0.00    +0.000 OA
ATOM     12  N   UNL     1       6.696  15.605  19.403  0.00  0.00    +0.000 N 
ENDROOT
BRANCH   1  14
ATOM     13  O   UNL     1       7.342  13.343  17.424  0.00  0.00    +0.000 OA
ATOM     14  C   UNL     1       8.177  14.060  17.977  0.00  0.00    +0.000 C 
ATOM     15  N   UNL     1       9.442  13.601  18.290  0.00  0.00    +0.000 N 
ATOM     16  H   UNL     1       9.990  14.178  18.923  0.00  0.00    +0.000 HD
BRANCH  15  17
ATOM     17  C   UNL     1       9.929  12.272  17.927  0.00  0.00    +0.000 C 
ATOM     18  C   UNL     1      11.403  12.275  17.491  0.00  0.00    +0.000 C 
ATOM     19  C   UNL     1      12.322  12.722  18.625  0.00  0.00    +0.000 C 
ATOM     20  C   UNL     1      12.137  11.864  19.875  0.00  0.00    +0.000 C 
ATOM     21  C   UNL     1      10.673  11.705  20.284  0.00  0.00    +0.000 C 
ATOM     22  C   UNL     1       9.772  11.311  19.111  0.00  0.00    +0.000 C 
ENDBRANCH  15  17
ENDBRANCH   1  14
BRANCH  12  23
ATOM     23  C   UNL     1       5.881  16.812  19.310  0.00  0.00    +0.000 C 
BRANCH  23  24
ATOM     24  C   UNL     1       4.596  16.548  18.629  0.00  0.00    +0.000 A 
ATOM     25  C   UNL     1       4.178  15.561  17.761  0.00  0.00    +0.000 A 
ATOM     26  C   UNL     1       2.806  15.802  17.517  0.00  0.00    +0.000 A 
ATOM     27  C   UNL     1       2.475  16.915  18.252  0.00  0.00    +0.000 A 
ATOM     28  O   UNL     1       3.555  17.375  18.933  0.00  0.00    +0.000 OA
ENDBRANCH  23  24
ENDBRANCH  12  23
TORSDOF 4
ENDMDL
MODEL 5
REMARK VINA RESULT:      -5.9      7.048      9.911
REMARK  Name = 
REMARK  4 active torsions:
REMARK  status: ('A' for Active; 'I' for Inactive)
REMARK    1  A    between atoms: C_2  and  C_10
REMARK    2  A    between atoms: N_3  and  C_4
REMARK    3  A    between atoms: N_21  and  C_22
REMARK    4  A    between atoms: C_22  and  C_23
REMARK                            x       y       z     vdW  Elec       q    Type
REMARK                         _______ _______ _______ _____ _____    ______ ____
ROOT
ATOM      1  C   UNL     1       6.088  14.782  19.817  0.00  0.00    +0.000 C 
ATOM      2  C   UNL     1       4.789  15.282  19.233  0.00  0.00    +0.000 A 
ATOM      3  C   UNL     1       3.685  14.424  19.115  0.00  0.00    +0.000 A 
ATOM      4  C   UNL     1       2.524  14.851  18.473  0.00  0.00    +0.000 A 
ATOM      5  C   UNL     1       2.453  16.141  17.947  0.00  0.00    +0.000 A 
ATOM      6  C   UNL     1       3.541  17.005  18.067  0.00  0.00    +0.000 A 
ATOM      7  C   UNL     1       4.694  16.577  18.720  0.00  0.00    +0.000 A 
ATOM      8  O   UNL     1       5.768  17.421  18.754  0.00  0.00    +0.000 OA
ATOM      9  C   UNL     1       6.077  17.809  20.078  0.00  0.00    +0.000 C 
ATOM     10  C   UNL     1       6.838  16.861  21.016  0.00  0.00    +0.000 C 
ATOM     11  O   UNL     1       7.592  17.314  21.884  0.00  0.00    +0.000 OA
ATOM     12  N   UNL     1       6.485  15.521  21.033  0.00  0.00    +0.000 N 
ENDROOT
BRANCH   1  14
ATOM     13  O   UNL     1       6.981  14.830  17.530  0.00  0.00    +0.000 OA
ATOM     14  C   UNL     1       7.197  14.633  18.726  0.00  0.00    +0.000 C 
ATOM     15  N   UNL     1       8.413  14.160  19.182  0.00  0.00    +0.000 N 
ATOM     16  H   UNL     1       8.440  13.831  20.143  0.00  0.00    +0.000 HD
BRANCH  15  17
ATOM     17  C   UNL     1       9.564  13.932  18.311  0.00  0.00    +0.000 C 
ATOM     18  C   UNL     1      10.904  14.237  19.001  0.00  0.00    +0.000 C 
ATOM     19  C   UNL     1      11.140  13.318  20.197  0.00  0.00    +0.000 C 
ATOM     20  C   UNL     1      11.068  11.845  19.802  0.00  0.00    +0.000 C 
ATOM     21  C   UNL     1       9.820  11.502  18.989  0.00  0.00    +0.000 C 
ATOM     22  C   UNL     1       9.583  12.476  17.832  0.00  0.00    +0.000 C 
ENDBRANCH  15  17
ENDBRANCH   1  14
BRANCH  12  23
ATOM     23  C   UNL     1       5.896  15.084  22.294  0.00  0.00    +0.000 C 
BRANCH  23  24
ATOM     24  C   UNL     1       6.394  13.751  22.692  0.00  0.00    +0.000 A 
ATOM     25  C   UNL     1       7.629  13.143  22.598  0.00  0.00    +0.000 A 
ATOM     26  C   UNL     1       7.500  11.885  23.231  0.00  0.00    +0.000 A 
ATOM     27  C   UNL     1       6.200  11.807  23.671  0.00  0.00    +0.000 A 
ATOM     28  O   UNL     1       5.520  12.937  23.350  0.00  0.00    +0.000 OA
ENDBRANCH  23  24
ENDBRANCH  12  23
TORSDOF 4
ENDMDL
MODEL 6
REMARK VINA RESULT:      -5.9      1.764      3.565
REMARK  Name = 
REMARK  4 active torsions:
REMARK  status: ('A' for Active; 'I' for Inactive)
REMARK    1  A    between atoms: C_2  and  C_10
REMARK    2  A    between atoms: N_3  and  C_4
REMARK    3  A    between atoms: N_21  and  C_22
REMARK    4  A    between atoms: C_22  and  C_23
REMARK                            x       y       z     vdW  Elec       q    Type
REMARK                         _______ _______ _______ _____ _____    ______ ____
ROOT
ATOM      1  C   UNL     1      -1.627  12.656  20.329  0.00  0.00    +0.000 C 
ATOM      2  C   UNL     1      -1.125  11.453  21.090  0.00  0.00    +0.000 A 
ATOM      3  C   UNL     1      -1.341  11.346  22.472  0.00  0.00    +0.000 A 
ATOM      4  C   UNL     1      -0.781  10.293  23.194  0.00  0.00    +0.000 A 
ATOM      5  C   UNL     1      -0.002   9.337  22.542  0.00  0.00    +0.000 A 
ATOM      6  C   UNL     1       0.211   9.430  21.166  0.00  0.00    +0.000 A 
ATOM      7  C   UNL     1      -0.362  10.477  20.448  0.00  0.00    +0.000 A 
ATOM      8  O   UNL     1      -0.071  10.582  19.117  0.00  0.00    +0.000 OA
ATOM      9  C   UNL     1      -1.228  10.411  18.322  0.00  0.00    +0.000 C 
ATOM     10  C   UNL     1      -2.240  11.553  18.153  0.00  0.00    +0.000 C 
ATOM     11  O   UNL     1      -2.882  11.668  17.105  0.00  0.00    +0.000 OA
ATOM     12  N   UNL     1      -2.592  12.295  19.270  0.00  0.00    +0.000 N 
ENDROOT
BRANCH   1  14
ATOM     13  O   UNL     1       0.726  13.292  20.033  0.00  0.00    +0.000 OA
ATOM     14  C   UNL     1      -0.459  13.594  19.885  0.00  0.00    +0.000 C 
ATOM     15  N   UNL     1      -0.844  14.834  19.413  0.00  0.00    +0.000 N 
ATOM     16  H   UNL     1      -1.826  15.074  19.517  0.00  0.00    +0.000 HD
BRANCH  15  17
ATOM     17  C   UNL     1       0.103  15.857  18.973  0.00  0.00    +0.000 C 
ATOM     18  C   UNL     1      -0.537  16.905  18.048  0.00  0.00    +0.000 C 
ATOM     19  C   UNL     1      -1.639  17.685  18.764  0.00  0.00    +0.000 C 
ATOM     20  C   UNL     1      -1.126  18.344  20.042  0.00  0.00    +0.000 C 
ATOM     21  C   UNL     1      -0.355  17.382  20.946  0.00  0.00    +0.000 C 
ATOM     22  C   UNL     1       0.702  16.578  20.186  0.00  0.00    +0.000 C 
ENDBRANCH  15  17
ENDBRANCH   1  14
BRANCH  12  23
ATOM     23  C   UNL     1      -3.984  12.127  19.673  0.00  0.00    +0.000 C 
BRANCH  23  24
ATOM     24  C   UNL     1      -4.333  13.016  20.801  0.00  0.00    +0.000 A 
ATOM     25  C   UNL     1      -4.457  14.385  20.915  0.00  0.00    +0.000 A 
ATOM     26  C   UNL     1      -4.897  14.634  22.236  0.00  0.00    +0.000 A 
ATOM     27  C   UNL     1      -5.016  13.405  22.840  0.00  0.00    +0.000 A 
ATOM     28  O   UNL     1      -4.677  12.414  21.976  0.00  0.00    +0.000 OA
ENDBRANCH  23  24
ENDBRANCH  12  23
TORSDOF 4
ENDMDL
MODEL 7
REMARK VINA RESULT:      -5.9      2.496      5.254
REMARK  Name = 
REMARK  4 active torsions:
REMARK  status: ('A' for Active; 'I' for Inactive)
REMARK    1  A    between atoms: C_2  and  C_10
REMARK    2  A    between atoms: N_3  and  C_4
REMARK    3  A    between atoms: N_21  and  C_22
REMARK    4  A    between atoms: C_22  and  C_23
REMARK                            x       y       z     vdW  Elec       q    Type
REMARK                         _______ _______ _______ _____ _____    ______ ____
ROOT
ATOM      1  C   UNL     1      -1.974  12.325  20.669  0.00  0.00    +0.000 C 
ATOM      2  C   UNL     1      -2.652  12.937  21.871  0.00  0.00    +0.000 A 
ATOM      3  C   UNL     1      -2.923  12.159  23.006  0.00  0.00    +0.000 A 
ATOM      4  C   UNL     1      -3.650  12.693  24.070  0.00  0.00    +0.000 A 
ATOM      5  C   UNL     1      -4.110  14.008  24.010  0.00  0.00    +0.000 A 
ATOM      6  C   UNL     1      -3.837  14.793  22.889  0.00  0.00    +0.000 A 
ATOM      7  C   UNL     1      -3.100  14.259  21.835  0.00  0.00    +0.000 A 
ATOM      8  O   UNL     1      -2.916  15.028  20.721  0.00  0.00    +0.000 OA
ATOM      9  C   UNL     1      -1.549  15.329  20.523  0.00  0.00    +0.000 C 
ATOM     10  C   UNL     1      -0.595  14.290  19.918  0.00  0.00    +0.000 C 
ATOM     11  O   UNL     1       0.365  14.649  19.230  0.00  0.00    +0.000 OA
ATOM     12  N   UNL     1      -0.686  12.977  20.352  0.00  0.00    +0.000 N 
ENDROOT
BRANCH   1  14
ATOM     13  O   UNL     1      -2.573  11.889  18.329  0.00  0.00    +0.000 OA
ATOM     14  C   UNL     1      -2.958  12.157  19.467  0.00  0.00    +0.000 C 
ATOM     15  N   UNL     1      -4.283  12.433  19.746  0.00  0.00    +0.000 N 
ATOM     16  H   UNL     1      -4.479  12.843  20.655  0.00  0.00    +0.000 HD
BRANCH  15  17
ATOM     17  C   UNL     1      -5.348  12.356  18.748  0.00  0.00    +0.000 C 
ATOM     18  C   UNL     1      -6.136  11.038  18.817  0.00  0.00    +0.000 C 
ATOM     19  C   UNL     1      -6.854  10.885  20.156  0.00  0.00    +0.000 C 
ATOM     20  C   UNL     1      -7.772  12.071  20.445  0.00  0.00    +0.000 C 
ATOM     21  C   UNL     1      -7.084  13.423  20.257  0.00  0.00    +0.000 C 
ATOM     22  C   UNL     1      -6.327  13.520  18.930  0.00  0.00    +0.000 C 
ENDBRANCH  15  17
ENDBRANCH   1  14
BRANCH  12  23
ATOM     23  C   UNL     1       0.486  12.518  21.090  0.00  0.00    +0.000 C 
BRANCH  23  24
ATOM     24  C   UNL     1       0.725  11.074  20.885  0.00  0.00    +0.000 A 
ATOM     25  C   UNL     1       0.705   9.988  21.736  0.00  0.00    +0.000 A 
ATOM     26  C   UNL     1       0.935   8.849  20.930  0.00  0.00    +0.000 A 
ATOM     27  C   UNL     1       1.077   9.311  19.643  0.00  0.00    +0.000 A 
ATOM     28  O   UNL     1       0.950  10.662  19.605  0.00  0.00    +0.000 OA
ENDBRANCH  23  24
ENDBRANCH  12  23
TORSDOF 4
ENDMDL
MODEL 8
REMARK VINA RESULT:      -5.9      2.076      3.556
REMARK  Name = 
REMARK  4 active torsions:
REMARK  status: ('A' for Active; 'I' for Inactive)
REMARK    1  A    between atoms: C_2  and  C_10
REMARK    2  A    between atoms: N_3  and  C_4
REMARK    3  A    between atoms: N_21  and  C_22
REMARK    4  A    between atoms: C_22  and  C_23
REMARK                            x       y       z     vdW  Elec       q    Type
REMARK                         _______ _______ _______ _____ _____    ______ ____
ROOT
ATOM      1  C   UNL     1       0.108  11.379  20.365  0.00  0.00    +0.000 C 
ATOM      2  C   UNL     1      -1.349  11.685  20.120  0.00  0.00    +0.000 A 
ATOM      3  C   UNL     1      -1.901  11.538  18.839  0.00  0.00    +0.000 A 
ATOM      4  C   UNL     1      -3.215  11.929  18.587  0.00  0.00    +0.000 A 
ATOM      5  C   UNL     1      -3.991  12.467  19.613  0.00  0.00    +0.000 A 
ATOM      6  C   UNL     1      -3.455  12.609  20.893  0.00  0.00    +0.000 A 
ATOM      7  C   UNL     1      -2.146  12.205  21.142  0.00  0.00    +0.000 A 
ATOM      8  O   UNL     1      -1.627  12.428  22.387  0.00  0.00    +0.000 OA
ATOM      9  C   UNL     1      -1.320  11.214  23.041  0.00  0.00    +0.000 C 
ATOM     10  C   UNL     1      -0.046  10.432  22.691  0.00  0.00    +0.000 C 
ATOM     11  O   UNL     1       0.532   9.761  23.551  0.00  0.00    +0.000 OA
ATOM     12  N   UNL     1       0.302  10.300  21.355  0.00  0.00    +0.000 N 
ENDROOT
BRANCH   1  14
ATOM     13  O   UNL     1       1.999  12.675  21.246  0.00  0.00    +0.000 OA
ATOM     14  C   UNL     1       0.943  12.677  20.611  0.00  0.00    +0.000 C 
ATOM     15  N   UNL     1       0.363  13.847  20.160  0.00  0.00    +0.000 N 
ATOM     16  H   UNL     1      -0.597  13.780  19.833  0.00  0.00    +0.000 HD
BRANCH  15  17
ATOM     17  C   UNL     1       0.978  15.163  20.319  0.00  0.00    +0.000 C 
ATOM     18  C   UNL     1       1.019  15.964  19.008  0.00  0.00    +0.000 C 
ATOM     19  C   UNL     1      -0.386  16.259  18.487  0.00  0.00    +0.000 C 
ATOM     20  C   UNL     1      -1.235  16.984  19.528  0.00  0.00    +0.000 C 
ATOM     21  C   UNL     1      -1.207  16.311  20.901  0.00  0.00    +0.000 C 
ATOM     22  C   UNL     1       0.213  15.980  21.366  0.00  0.00    +0.000 C 
ENDBRANCH  15  17
ENDBRANCH   1  14
BRANCH  12  23
ATOM     23  C   UNL     1       0.227   8.928  20.862  0.00  0.00    +0.000 C 
BRANCH  23  24
ATOM     24  C   UNL     1       1.067   8.737  19.661  0.00  0.00    +0.000 A 
ATOM     25  C   UNL     1       1.176   9.427  18.471  0.00  0.00    +0.000 A 
ATOM     26  C   UNL     1       2.220   8.804  17.747  0.00  0.00    +0.000 A 
ATOM     27  C   UNL     1       2.681   7.780  18.540  0.00  0.00    +0.000 A 
ATOM     28  O   UNL     1       1.988   7.732  19.706  0.00  0.00    +0.000 OA
ENDBRANCH  23  24
ENDBRANCH  12  23
TORSDOF 4
ENDMDL
MODEL 9
REMARK VINA RESULT:      -5.8      2.240      4.985
REMARK  Name = 
REMARK  4 active torsions:
REMARK  status: ('A' for Active; 'I' for Inactive)
REMARK    1  A    between atoms: C_2  and  C_10
REMARK    2  A    between atoms: N_3  and  C_4
REMARK    3  A    between atoms: N_21  and  C_22
REMARK    4  A    between atoms: C_22  and  C_23
REMARK                            x       y       z     vdW  Elec       q    Type
REMARK                         _______ _______ _______ _____ _____    ______ ____
ROOT
ATOM      1  C   UNL     1      -1.665  11.781  19.950  0.00  0.00    +0.000 C 
ATOM      2  C   UNL     1      -2.056  12.568  21.177  0.00  0.00    +0.000 A 
ATOM      3  C   UNL     1      -2.441  11.907  22.353  0.00  0.00    +0.000 A 
ATOM      4  C   UNL     1      -2.911  12.630  23.448  0.00  0.00    +0.000 A 
ATOM      5  C   UNL     1      -2.999  14.020  23.380  0.00  0.00    +0.000 A 
ATOM      6  C   UNL     1      -2.610  14.688  22.218  0.00  0.00    +0.000 A 
ATOM      7  C   UNL     1      -2.129  13.961  21.132  0.00  0.00    +0.000 A 
ATOM      8  O   UNL     1      -1.829  14.639  19.983  0.00  0.00    +0.000 OA
ATOM      9  C   UNL     1      -0.451  14.552  19.680  0.00  0.00    +0.000 C 
ATOM     10  C   UNL     1       0.135  13.285  19.042  0.00  0.00    +0.000 C 
ATOM     11  O   UNL     1       1.100  13.360  18.275  0.00  0.00    +0.000 OA
ATOM     12  N   UNL     1      -0.277  12.052  19.522  0.00  0.00    +0.000 N 
ENDROOT
BRANCH   1  14
ATOM     13  O   UNL     1      -2.476  11.747  17.633  0.00  0.00    +0.000 OA
ATOM     14  C   UNL     1      -2.747  11.875  18.828  0.00  0.00    +0.000 C 
ATOM     15  N   UNL     1      -4.015  12.218  19.257  0.00  0.00    +0.000 N 
ATOM     16  H   UNL     1      -4.103  12.504  20.228  0.00  0.00    +0.000 HD
BRANCH  15  17
ATOM     17  C   UNL     1      -5.154  12.378  18.354  0.00  0.00    +0.000 C 
ATOM     18  C   UNL     1      -5.895  11.058  18.089  0.00  0.00    +0.000 C 
ATOM     19  C   UNL     1      -6.499  10.487  19.370  0.00  0.00    +0.000 C 
ATOM     20  C   UNL     1      -7.424  11.489  20.054  0.00  0.00    +0.000 C 
ATOM     21  C   UNL     1      -6.794  12.871  20.225  0.00  0.00    +0.000 C 
ATOM     22  C   UNL     1      -6.149  13.388  18.936  0.00  0.00    +0.000 C 
ENDBRANCH  15  17
ENDBRANCH   1  14
BRANCH  12  23
ATOM     23  C   UNL     1       0.780  11.298  20.189  0.00  0.00    +0.000 C 
BRANCH  23  24
ATOM     24  C   UNL     1       1.186  10.118  19.397  0.00  0.00    +0.000 A 
ATOM     25  C   UNL     1       1.449   9.931  18.056  0.00  0.00    +0.000 A 
ATOM     26  C   UNL     1       1.872   8.588  17.919  0.00  0.00    +0.000 A 
ATOM     27  C   UNL     1       1.843   8.045  19.181  0.00  0.00    +0.000 A 
ATOM     28  O   UNL     1       1.428   8.967  20.087  0.00  0.00    +0.000 OA
ENDBRANCH  23  24
ENDBRANCH  12  23
TORSDOF 4
ENDMDL
