MODEL 1
REMARK VINA RESULT:      -7.7      0.000      0.000
REMARK  Name = 
REMARK  10 active torsions:
REMARK  status: ('A' for Active; 'I' for Inactive)
REMARK    1  A    between atoms: C_1  and  O_2
REMARK    2  A    between atoms: O_2  and  C_3
REMARK    3  A    between atoms: C_6  and  C_7
REMARK    4  A    between atoms: C_7  and  O_8
REMARK    5  A    between atoms: C_7  and  C_9
REMARK    6  A    between atoms: C_11  and  C_12
REMARK    7  A    between atoms: C_15  and  O_16
REMARK    8  A    between atoms: O_16  and  C_17
REMARK    9  A    between atoms: C_18  and  O_19
REMARK   10  A    between atoms: O_19  and  C_20
REMARK                            x       y       z     vdW  Elec       q    Type
REMARK                         _______ _______ _______ _____ _____    ______ ____
ROOT
ATOM      1  C   UNL     1       3.372   4.241  19.299  0.00  0.00    +0.000 A 
ATOM      2  N   UNL     1       3.191   5.501  18.941  0.00  0.00    +0.000 NA
ATOM      3  C   UNL     1       2.303   6.121  19.805  0.00  0.00    +0.000 A 
ATOM      4  C   UNL     1       1.805   5.314  20.811  0.00  0.00    +0.000 A 
ATOM      5  S   UNL     1       2.454   3.733  20.665  0.00  0.00    +0.000 S 
ENDROOT
BRANCH   3   6
ATOM      6  C   UNL     1       1.925   7.512  19.608  0.00  0.00    +0.000 A 
ATOM      7  C   UNL     1       2.079   8.155  18.382  0.00  0.00    +0.000 A 
ATOM      8  C   UNL     1       1.693   9.487  18.248  0.00  0.00    +0.000 A 
ATOM      9  C   UNL     1       1.158  10.208  19.329  0.00  0.00    +0.000 A 
ATOM     10  C   UNL     1       1.003   9.571  20.571  0.00  0.00    +0.000 A 
ATOM     11  C   UNL     1       1.377   8.224  20.689  0.00  0.00    +0.000 A 
BRANCH   9  12
ATOM     12  O   UNL     1       0.852  11.499  18.978  0.00  0.00    +0.000 OA
ATOM     13  C   UNL     1      -0.486  11.812  18.627  0.00  0.00    +0.000 C 
ENDBRANCH   9  12
BRANCH  10  14
ATOM     14  O   UNL     1       0.498  10.291  21.621  0.00  0.00    +0.000 OA
ATOM     15  C   UNL     1      -0.264   9.605  22.606  0.00  0.00    +0.000 C 
ENDBRANCH  10  14
ENDBRANCH   3   6
BRANCH   1  16
ATOM     16  C   UNL     1       4.344   3.288  18.641  0.00  0.00    +0.000 C 
BRANCH  16  20
ATOM     17  C   UNL     1       6.924   5.029  15.612  0.00  0.00    +0.000 A 
ATOM     18  C   UNL     1       5.719   4.421  15.262  0.00  0.00    +0.000 A 
ATOM     19  C   UNL     1       4.883   3.879  16.243  0.00  0.00    +0.000 A 
ATOM     20  C   UNL     1       5.247   3.923  17.597  0.00  0.00    +0.000 A 
ATOM     21  C   UNL     1       6.474   4.520  17.935  0.00  0.00    +0.000 A 
ATOM     22  C   UNL     1       7.306   5.066  16.951  0.00  0.00    +0.000 A 
BRANCH  17  24
ATOM     23  C   UNL     1       7.394   4.923  13.301  0.00  0.00    +0.000 C 
ATOM     24  O   UNL     1       7.661   5.513  14.568  0.00  0.00    +0.000 OA
ENDBRANCH  17  24
ENDBRANCH  16  20
BRANCH  16  25
ATOM     25  O   UNL     1       5.160   2.724  19.676  0.00  0.00    +0.000 OA
ATOM     26  H   UNL     1       6.079   2.911  19.420  0.00  0.00    +0.000 HD
ENDBRANCH  16  25
ENDBRANCH   1  16
TORSDOF 7
ENDMDL
MODEL 2
REMARK VINA RESULT:      -7.5      1.008      1.064
REMARK  Name = 
REMARK  10 active torsions:
REMARK  status: ('A' for Active; 'I' for Inactive)
REMARK    1  A    between atoms: C_1  and  O_2
REMARK    2  A    between atoms: O_2  and  C_3
REMARK    3  A    between atoms: C_6  and  C_7
REMARK    4  A    between atoms: C_7  and  O_8
REMARK    5  A    between atoms: C_7  and  C_9
REMARK    6  A    between atoms: C_11  and  C_12
REMARK    7  A    between atoms: C_15  and  O_16
REMARK    8  A    between atoms: O_16  and  C_17
REMARK    9  A    between atoms: C_18  and  O_19
REMARK   10  A    between atoms: O_19  and  C_20
REMARK                            x       y       z     vdW  Elec       q    Type
REMARK                         _______ _______ _______ _____ _____    ______ ____
ROOT
ATOM      1  C   UNL     1       4.123   4.969  19.364  0.00  0.00    +0.000 A 
ATOM      2  N   UNL     1       3.803   6.248  19.251  0.00  0.00    +0.000 NA
ATOM      3  C   UNL     1       2.523   6.465  19.733  0.00  0.00    +0.000 A 
ATOM      4  C   UNL     1       1.874   5.337  20.199  0.00  0.00    +0.000 A 
ATOM      5  S   UNL     1       2.885   3.965  20.018  0.00  0.00    +0.000 S 
ENDROOT
BRANCH   3   6
ATOM      6  C   UNL     1       1.933   7.795  19.698  0.00  0.00    +0.000 A 
ATOM      7  C   UNL     1       1.760   8.497  18.508  0.00  0.00    +0.000 A 
ATOM      8  C   UNL     1       1.182   9.766  18.533  0.00  0.00    +0.000 A 
ATOM      9  C   UNL     1       0.777  10.363  19.738  0.00  0.00    +0.000 A 
ATOM     10  C   UNL     1       0.951   9.665  20.945  0.00  0.00    +0.000 A 
ATOM     11  C   UNL     1       1.515   8.381  20.905  0.00  0.00    +0.000 A 
BRANCH   9  12
ATOM     12  O   UNL     1       0.240  11.609  19.533  0.00  0.00    +0.000 OA
ATOM     13  C   UNL     1      -1.120  11.711  19.142  0.00  0.00    +0.000 C 
ENDBRANCH   9  12
BRANCH  10  14
ATOM     14  O   UNL     1       0.568  10.267  22.114  0.00  0.00    +0.000 OA
ATOM     15  C   UNL     1      -0.357   9.588  22.952  0.00  0.00    +0.000 C 
ENDBRANCH  10  14
ENDBRANCH   3   6
BRANCH   1  16
ATOM     16  C   UNL     1       5.476   4.384  19.025  0.00  0.00    +0.000 C 
BRANCH  16  20
ATOM     17  C   UNL     1       6.529   4.536  14.815  0.00  0.00    +0.000 A 
ATOM     18  C   UNL     1       5.265   4.108  15.222  0.00  0.00    +0.000 A 
ATOM     19  C   UNL     1       4.925   4.079  16.576  0.00  0.00    +0.000 A 
ATOM     20  C   UNL     1       5.852   4.466  17.556  0.00  0.00    +0.000 A 
ATOM     21  C   UNL     1       7.129   4.877  17.134  0.00  0.00    +0.000 A 
ATOM     22  C   UNL     1       7.465   4.909  15.777  0.00  0.00    +0.000 A 
BRANCH  17  24
ATOM     23  C   UNL     1       6.032   3.518  12.743  0.00  0.00    +0.000 C 
ATOM     24  O   UNL     1       6.750   4.512  13.466  0.00  0.00    +0.000 OA
ENDBRANCH  17  24
ENDBRANCH  16  20
BRANCH  16  25
ATOM     25  O   UNL     1       6.455   5.094  19.794  0.00  0.00    +0.000 OA
ATOM     26  H   UNL     1       7.167   5.321  19.171  0.00  0.00    +0.000 HD
ENDBRANCH  16  25
ENDBRANCH   1  16
TORSDOF 7
ENDMDL
MODEL 3
REMARK VINA RESULT:      -7.5      1.089      1.437
REMARK  Name = 
REMARK  10 active torsions:
REMARK  status: ('A' for Active; 'I' for Inactive)
REMARK    1  A    between atoms: C_1  and  O_2
REMARK    2  A    between atoms: O_2  and  C_3
REMARK    3  A    between atoms: C_6  and  C_7
REMARK    4  A    between atoms: C_7  and  O_8
REMARK    5  A    between atoms: C_7  and  C_9
REMARK    6  A    between atoms: C_11  and  C_12
REMARK    7  A    between atoms: C_15  and  O_16
REMARK    8  A    between atoms: O_16  and  C_17
REMARK    9  A    between atoms: C_18  and  O_19
REMARK   10  A    between atoms: O_19  and  C_20
REMARK                            x       y       z     vdW  Elec       q    Type
REMARK                         _______ _______ _______ _____ _____    ______ ____
ROOT
ATOM      1  C   UNL     1       4.075   4.966  19.408  0.00  0.00    +0.000 A 
ATOM      2  N   UNL     1       3.771   6.249  19.310  0.00  0.00    +0.000 NA
ATOM      3  C   UNL     1       2.497   6.477  19.801  0.00  0.00    +0.000 A 
ATOM      4  C   UNL     1       1.836   5.353  20.260  0.00  0.00    +0.000 A 
ATOM      5  S   UNL     1       2.829   3.970  20.059  0.00  0.00    +0.000 S 
ENDROOT
BRANCH   3   6
ATOM      6  C   UNL     1       1.923   7.815  19.783  0.00  0.00    +0.000 A 
ATOM      7  C   UNL     1       1.771   8.540  18.604  0.00  0.00    +0.000 A 
ATOM      8  C   UNL     1       1.208   9.814  18.645  0.00  0.00    +0.000 A 
ATOM      9  C   UNL     1       0.798  10.396  19.856  0.00  0.00    +0.000 A 
ATOM     10  C   UNL     1       0.951   9.675  21.052  0.00  0.00    +0.000 A 
ATOM     11  C   UNL     1       1.501   8.386  20.996  0.00  0.00    +0.000 A 
BRANCH   9  12
ATOM     12  O   UNL     1       0.278  11.652  19.666  0.00  0.00    +0.000 OA
ATOM     13  C   UNL     1       1.139  12.773  19.787  0.00  0.00    +0.000 C 
ENDBRANCH   9  12
BRANCH  10  14
ATOM     14  O   UNL     1       0.564  10.262  22.227  0.00  0.00    +0.000 OA
ATOM     15  C   UNL     1      -0.463   9.639  22.987  0.00  0.00    +0.000 C 
ENDBRANCH  10  14
ENDBRANCH   3   6
BRANCH   1  16
ATOM     16  C   UNL     1       5.419   4.367  19.055  0.00  0.00    +0.000 C 
BRANCH  16  20
ATOM     17  C   UNL     1       6.389   4.461  14.823  0.00  0.00    +0.000 A 
ATOM     18  C   UNL     1       7.370   4.692  15.788  0.00  0.00    +0.000 A 
ATOM     19  C   UNL     1       7.056   4.642  17.148  0.00  0.00    +0.000 A 
ATOM     20  C   UNL     1       5.746   4.373  17.572  0.00  0.00    +0.000 A 
ATOM     21  C   UNL     1       4.763   4.161  16.590  0.00  0.00    +0.000 A 
ATOM     22  C   UNL     1       5.080   4.208  15.228  0.00  0.00    +0.000 A 
BRANCH  17  24
ATOM     23  C   UNL     1       6.281   3.565  12.642  0.00  0.00    +0.000 C 
ATOM     24  O   UNL     1       6.811   4.546  13.525  0.00  0.00    +0.000 OA
ENDBRANCH  17  24
ENDBRANCH  16  20
BRANCH  16  25
ATOM     25  O   UNL     1       6.420   5.119  19.752  0.00  0.00    +0.000 OA
ATOM     26  H   UNL     1       5.997   5.960  19.997  0.00  0.00    +0.000 HD
ENDBRANCH  16  25
ENDBRANCH   1  16
TORSDOF 7
ENDMDL
MODEL 4
REMARK VINA RESULT:      -7.5      0.690      1.185
REMARK  Name = 
REMARK  10 active torsions:
REMARK  status: ('A' for Active; 'I' for Inactive)
REMARK    1  A    between atoms: C_1  and  O_2
REMARK    2  A    between atoms: O_2  and  C_3
REMARK    3  A    between atoms: C_6  and  C_7
REMARK    4  A    between atoms: C_7  and  O_8
REMARK    5  A    between atoms: C_7  and  C_9
REMARK    6  A    between atoms: C_11  and  C_12
REMARK    7  A    between atoms: C_15  and  O_16
REMARK    8  A    between atoms: O_16  and  C_17
REMARK    9  A    between atoms: C_18  and  O_19
REMARK   10  A    between atoms: O_19  and  C_20
REMARK                            x       y       z     vdW  Elec       q    Type
REMARK                         _______ _______ _______ _____ _____    ______ ____
ROOT
ATOM      1  C   UNL     1       3.375   4.367  19.207  0.00  0.00    +0.000 A 
ATOM      2  N   UNL     1       3.230   5.614  18.792  0.00  0.00    +0.000 NA
ATOM      3  C   UNL     1       2.353   6.295  19.620  0.00  0.00    +0.000 A 
ATOM      4  C   UNL     1       1.828   5.548  20.657  0.00  0.00    +0.000 A 
ATOM      5  S   UNL     1       2.434   3.946  20.588  0.00  0.00    +0.000 S 
ENDROOT
BRANCH   3   6
ATOM      6  C   UNL     1       2.013   7.686  19.358  0.00  0.00    +0.000 A 
ATOM      7  C   UNL     1       2.161   8.259  18.097  0.00  0.00    +0.000 A 
ATOM      8  C   UNL     1       1.813   9.594  17.900  0.00  0.00    +0.000 A 
ATOM      9  C   UNL     1       1.323  10.386  18.952  0.00  0.00    +0.000 A 
ATOM     10  C   UNL     1       1.174   9.820  20.229  0.00  0.00    +0.000 A 
ATOM     11  C   UNL     1       1.510   8.469  20.409  0.00  0.00    +0.000 A 
BRANCH   9  12
ATOM     12  O   UNL     1       1.049  11.666  18.540  0.00  0.00    +0.000 OA
ATOM     13  C   UNL     1       2.117  12.594  18.433  0.00  0.00    +0.000 C 
ENDBRANCH   9  12
BRANCH  10  14
ATOM     14  O   UNL     1       0.713  10.608  21.249  0.00  0.00    +0.000 OA
ATOM     15  C   UNL     1      -0.687  10.654  21.488  0.00  0.00    +0.000 C 
ENDBRANCH  10  14
ENDBRANCH   3   6
BRANCH   1  16
ATOM     16  C   UNL     1       4.325   3.360  18.600  0.00  0.00    +0.000 C 
BRANCH  16  20
ATOM     17  C   UNL     1       6.851   5.001  15.472  0.00  0.00    +0.000 A 
ATOM     18  C   UNL     1       7.242   5.056  16.810  0.00  0.00    +0.000 A 
ATOM     19  C   UNL     1       6.435   4.508  17.810  0.00  0.00    +0.000 A 
ATOM     20  C   UNL     1       5.207   3.908  17.492  0.00  0.00    +0.000 A 
ATOM     21  C   UNL     1       4.815   3.878  16.142  0.00  0.00    +0.000 A 
ATOM     22  C   UNL     1       5.628   4.422  15.142  0.00  0.00    +0.000 A 
BRANCH  17  24
ATOM     23  C   UNL     1       7.596   5.138  13.236  0.00  0.00    +0.000 C 
ATOM     24  O   UNL     1       7.716   5.578  14.584  0.00  0.00    +0.000 OA
ENDBRANCH  17  24
ENDBRANCH  16  20
BRANCH  16  25
ATOM     25  O   UNL     1       5.161   2.868  19.656  0.00  0.00    +0.000 OA
ATOM     26  H   UNL     1       4.701   2.091  20.017  0.00  0.00    +0.000 HD
ENDBRANCH  16  25
ENDBRANCH   1  16
TORSDOF 7
ENDMDL
MODEL 5
REMARK VINA RESULT:      -7.2      1.001      1.045
REMARK  Name = 
REMARK  10 active torsions:
REMARK  status: ('A' for Active; 'I' for Inactive)
REMARK    1  A    between atoms: C_1  and  O_2
REMARK    2  A    between atoms: O_2  and  C_3
REMARK    3  A    between atoms: C_6  and  C_7
REMARK    4  A    between atoms: C_7  and  O_8
REMARK    5  A    between atoms: C_7  and  C_9
REMARK    6  A    between atoms: C_11  and  C_12
REMARK    7  A    between atoms: C_15  and  O_16
REMARK    8  A    between atoms: O_16  and  C_17
REMARK    9  A    between atoms: C_18  and  O_19
REMARK   10  A    between atoms: O_19  and  C_20
REMARK                            x       y       z     vdW  Elec       q    Type
REMARK                         _______ _______ _______ _____ _____    ______ ____
ROOT
ATOM      1  C   UNL     1       3.253   4.419  18.188  0.00  0.00    +0.000 A 
ATOM      2  N   UNL     1       2.876   5.670  17.990  0.00  0.00    +0.000 NA
ATOM      3  C   UNL     1       2.489   6.249  19.188  0.00  0.00    +0.000 A 
ATOM      4  C   UNL     1       2.565   5.419  20.290  0.00  0.00    +0.000 A 
ATOM      5  S   UNL     1       3.122   3.868  19.816  0.00  0.00    +0.000 S 
ENDROOT
BRANCH   3   6
ATOM      6  C   UNL     1       2.011   7.623  19.228  0.00  0.00    +0.000 A 
ATOM      7  C   UNL     1       1.988   8.432  18.095  0.00  0.00    +0.000 A 
ATOM      8  C   UNL     1       1.513   9.739  18.189  0.00  0.00    +0.000 A 
ATOM      9  C   UNL     1       1.062  10.269  19.410  0.00  0.00    +0.000 A 
ATOM     10  C   UNL     1       1.085   9.462  20.560  0.00  0.00    +0.000 A 
ATOM     11  C   UNL     1       1.547   8.143  20.448  0.00  0.00    +0.000 A 
BRANCH   9  12
ATOM     12  O   UNL     1       0.644  11.569  19.277  0.00  0.00    +0.000 OA
ATOM     13  C   UNL     1       1.618  12.599  19.233  0.00  0.00    +0.000 C 
ENDBRANCH   9  12
BRANCH  10  14
ATOM     14  O   UNL     1       0.660   9.997  21.747  0.00  0.00    +0.000 OA
ATOM     15  C   UNL     1      -0.339   9.303  22.482  0.00  0.00    +0.000 C 
ENDBRANCH  10  14
ENDBRANCH   3   6
BRANCH   1  16
ATOM     16  C   UNL     1       3.826   3.510  17.123  0.00  0.00    +0.000 C 
BRANCH  16  20
ATOM     17  C   UNL     1       7.145   5.133  14.843  0.00  0.00    +0.000 A 
ATOM     18  C   UNL     1       6.188   4.322  14.234  0.00  0.00    +0.000 A 
ATOM     19  C   UNL     1       5.111   3.819  14.968  0.00  0.00    +0.000 A 
ATOM     20  C   UNL     1       4.980   4.106  16.335  0.00  0.00    +0.000 A 
ATOM     21  C   UNL     1       5.962   4.908  16.941  0.00  0.00    +0.000 A 
ATOM     22  C   UNL     1       7.037   5.415  16.203  0.00  0.00    +0.000 A 
BRANCH  17  24
ATOM     23  C   UNL     1       7.952   5.354  12.634  0.00  0.00    +0.000 C 
ATOM     24  O   UNL     1       8.158   5.559  14.027  0.00  0.00    +0.000 OA
ENDBRANCH  17  24
ENDBRANCH  16  20
BRANCH  16  25
ATOM     25  O   UNL     1       4.277   2.317  17.775  0.00  0.00    +0.000 OA
ATOM     26  H   UNL     1       3.475   1.804  17.973  0.00  0.00    +0.000 HD
ENDBRANCH  16  25
ENDBRANCH   1  16
TORSDOF 7
ENDMDL
MODEL 6
REMARK VINA RESULT:      -7.2      5.109      7.058
REMARK  Name = 
REMARK  10 active torsions:
REMARK  status: ('A' for Active; 'I' for Inactive)
REMARK    1  A    between atoms: C_1  and  O_2
REMARK    2  A    between atoms: O_2  and  C_3
REMARK    3  A    between atoms: C_6  and  C_7
REMARK    4  A    between atoms: C_7  and  O_8
REMARK    5  A    between atoms: C_7  and  C_9
REMARK    6  A    between atoms: C_11  and  C_12
REMARK    7  A    between atoms: C_15  and  O_16
REMARK    8  A    between atoms: O_16  and  C_17
REMARK    9  A    between atoms: C_18  and  O_19
REMARK   10  A    between atoms: O_19  and  C_20
REMARK                            x       y       z     vdW  Elec       q    Type
REMARK                         _______ _______ _______ _____ _____    ______ ____
ROOT
ATOM      1  C   UNL     1       6.628   6.654  17.181  0.00  0.00    +0.000 A 
ATOM      2  N   UNL     1       6.959   7.934  17.163  0.00  0.00    +0.000 NA
ATOM      3  C   UNL     1       7.943   8.186  18.105  0.00  0.00    +0.000 A 
ATOM      4  C   UNL     1       8.342   7.088  18.843  0.00  0.00    +0.000 A 
ATOM      5  S   UNL     1       7.454   5.704  18.357  0.00  0.00    +0.000 S 
ENDROOT
BRANCH   3   6
ATOM      6  C   UNL     1       8.463   9.532  18.292  0.00  0.00    +0.000 A 
ATOM      7  C   UNL     1       9.479   9.814  19.202  0.00  0.00    +0.000 A 
ATOM      8  C   UNL     1       9.944  11.121  19.335  0.00  0.00    +0.000 A 
ATOM      9  C   UNL     1       9.402  12.173  18.577  0.00  0.00    +0.000 A 
ATOM     10  C   UNL     1       8.374  11.900  17.659  0.00  0.00    +0.000 A 
ATOM     11  C   UNL     1       7.928  10.577  17.520  0.00  0.00    +0.000 A 
BRANCH   9  12
ATOM     12  O   UNL     1      10.002  13.372  18.868  0.00  0.00    +0.000 OA
ATOM     13  C   UNL     1      11.109  13.791  18.086  0.00  0.00    +0.000 C 
ENDBRANCH   9  12
BRANCH  10  14
ATOM     14  O   UNL     1       7.842  12.937  16.940  0.00  0.00    +0.000 OA
ATOM     15  C   UNL     1       7.052  13.900  17.625  0.00  0.00    +0.000 C 
ENDBRANCH  10  14
ENDBRANCH   3   6
BRANCH   1  16
ATOM     16  C   UNL     1       5.654   6.000  16.225  0.00  0.00    +0.000 C 
BRANCH  16  20
ATOM     17  C   UNL     1       2.269   4.133  18.202  0.00  0.00    +0.000 A 
ATOM     18  C   UNL     1       2.553   5.485  18.395  0.00  0.00    +0.000 A 
ATOM     19  C   UNL     1       3.632   6.085  17.741  0.00  0.00    +0.000 A 
ATOM     20  C   UNL     1       4.460   5.337  16.890  0.00  0.00    +0.000 A 
ATOM     21  C   UNL     1       4.175   3.971  16.721  0.00  0.00    +0.000 A 
ATOM     22  C   UNL     1       3.091   3.374  17.373  0.00  0.00    +0.000 A 
BRANCH  17  24
ATOM     23  C   UNL     1       1.057   4.148  20.228  0.00  0.00    +0.000 C 
ATOM     24  O   UNL     1       1.196   3.654  18.901  0.00  0.00    +0.000 OA
ENDBRANCH  17  24
ENDBRANCH  16  20
BRANCH  16  25
ATOM     25  O   UNL     1       5.181   7.017  15.333  0.00  0.00    +0.000 OA
ATOM     26  H   UNL     1       4.210   6.978  15.378  0.00  0.00    +0.000 HD
ENDBRANCH  16  25
ENDBRANCH   1  16
TORSDOF 7
ENDMDL
MODEL 7
REMARK VINA RESULT:      -7.1      5.145      7.005
REMARK  Name = 
REMARK  10 active torsions:
REMARK  status: ('A' for Active; 'I' for Inactive)
REMARK    1  A    between atoms: C_1  and  O_2
REMARK    2  A    between atoms: O_2  and  C_3
REMARK    3  A    between atoms: C_6  and  C_7
REMARK    4  A    between atoms: C_7  and  O_8
REMARK    5  A    between atoms: C_7  and  C_9
REMARK    6  A    between atoms: C_11  and  C_12
REMARK    7  A    between atoms: C_15  and  O_16
REMARK    8  A    between atoms: O_16  and  C_17
REMARK    9  A    between atoms: C_18  and  O_19
REMARK   10  A    between atoms: O_19  and  C_20
REMARK                            x       y       z     vdW  Elec       q    Type
REMARK                         _______ _______ _______ _____ _____    ______ ____
ROOT
ATOM      1  C   UNL     1       6.680   6.630  17.188  0.00  0.00    +0.000 A 
ATOM      2  N   UNL     1       7.008   7.911  17.169  0.00  0.00    +0.000 NA
ATOM      3  C   UNL     1       7.970   8.172  18.131  0.00  0.00    +0.000 A 
ATOM      4  C   UNL     1       8.355   7.079  18.885  0.00  0.00    +0.000 A 
ATOM      5  S   UNL     1       7.482   5.690  18.388  0.00  0.00    +0.000 S 
ENDROOT
BRANCH   3   6
ATOM      6  C   UNL     1       8.482   9.521  18.321  0.00  0.00    +0.000 A 
ATOM      7  C   UNL     1       9.482   9.810  19.247  0.00  0.00    +0.000 A 
ATOM      8  C   UNL     1       9.940  11.119  19.382  0.00  0.00    +0.000 A 
ATOM      9  C   UNL     1       9.409  12.165  18.609  0.00  0.00    +0.000 A 
ATOM     10  C   UNL     1       8.397  11.885  17.675  0.00  0.00    +0.000 A 
ATOM     11  C   UNL     1       7.958  10.560  17.535  0.00  0.00    +0.000 A 
BRANCH   9  12
ATOM     12  O   UNL     1      10.000  13.368  18.906  0.00  0.00    +0.000 OA
ATOM     13  C   UNL     1      11.216  13.370  19.636  0.00  0.00    +0.000 C 
ENDBRANCH   9  12
BRANCH  10  14
ATOM     14  O   UNL     1       7.875  12.917  16.942  0.00  0.00    +0.000 OA
ATOM     15  C   UNL     1       7.077  13.885  17.611  0.00  0.00    +0.000 C 
ENDBRANCH  10  14
ENDBRANCH   3   6
BRANCH   1  16
ATOM     16  C   UNL     1       5.729   5.968  16.215  0.00  0.00    +0.000 C 
BRANCH  16  20
ATOM     17  C   UNL     1       2.185   4.167  17.962  0.00  0.00    +0.000 A 
ATOM     18  C   UNL     1       3.080   3.404  17.212  0.00  0.00    +0.000 A 
ATOM     19  C   UNL     1       4.229   3.985  16.669  0.00  0.00    +0.000 A 
ATOM     20  C   UNL     1       4.497   5.349  16.853  0.00  0.00    +0.000 A 
ATOM     21  C   UNL     1       3.577   6.111  17.593  0.00  0.00    +0.000 A 
ATOM     22  C   UNL     1       2.430   5.527  18.140  0.00  0.00    +0.000 A 
BRANCH  17  24
ATOM     23  C   UNL     1       1.370   2.282  19.127  0.00  0.00    +0.000 C 
ATOM     24  O   UNL     1       1.092   3.494  18.434  0.00  0.00    +0.000 OA
ENDBRANCH  17  24
ENDBRANCH  16  20
BRANCH  16  25
ATOM     25  O   UNL     1       5.312   6.967  15.276  0.00  0.00    +0.000 OA
ATOM     26  H   UNL     1       4.452   6.667  14.935  0.00  0.00    +0.000 HD
ENDBRANCH  16  25
ENDBRANCH   1  16
TORSDOF 7
ENDMDL
MODEL 8
REMARK VINA RESULT:      -6.9      2.786      8.729
REMARK  Name = 
REMARK  10 active torsions:
REMARK  status: ('A' for Active; 'I' for Inactive)
REMARK    1  A    between atoms: C_1  and  O_2
REMARK    2  A    between atoms: O_2  and  C_3
REMARK    3  A    between atoms: C_6  and  C_7
REMARK    4  A    between atoms: C_7  and  O_8
REMARK    5  A    between atoms: C_7  and  C_9
REMARK    6  A    between atoms: C_11  and  C_12
REMARK    7  A    between atoms: C_15  and  O_16
REMARK    8  A    between atoms: O_16  and  C_17
REMARK    9  A    between atoms: C_18  and  O_19
REMARK   10  A    between atoms: O_19  and  C_20
REMARK                            x       y       z     vdW  Elec       q    Type
REMARK                         _______ _______ _______ _____ _____    ______ ____
ROOT
ATOM      1  C   UNL     1       1.018   9.767  19.484  0.00  0.00    +0.000 A 
ATOM      2  N   UNL     1       1.742   9.029  18.659  0.00  0.00    +0.000 NA
ATOM      3  C   UNL     1       2.065   7.822  19.256  0.00  0.00    +0.000 A 
ATOM      4  C   UNL     1       1.590   7.660  20.544  0.00  0.00    +0.000 A 
ATOM      5  S   UNL     1       0.727   9.061  21.028  0.00  0.00    +0.000 S 
ENDROOT
BRANCH   3   6
ATOM      6  C   UNL     1       2.878   6.840  18.553  0.00  0.00    +0.000 A 
ATOM      7  C   UNL     1       3.778   7.203  17.554  0.00  0.00    +0.000 A 
ATOM      8  C   UNL     1       4.537   6.222  16.918  0.00  0.00    +0.000 A 
ATOM      9  C   UNL     1       4.407   4.864  17.254  0.00  0.00    +0.000 A 
ATOM     10  C   UNL     1       3.499   4.486  18.257  0.00  0.00    +0.000 A 
ATOM     11  C   UNL     1       2.756   5.485  18.903  0.00  0.00    +0.000 A 
BRANCH   9  12
ATOM     12  O   UNL     1       5.242   4.073  16.505  0.00  0.00    +0.000 OA
ATOM     13  C   UNL     1       6.620   4.403  16.440  0.00  0.00    +0.000 C 
ENDBRANCH   9  12
BRANCH  10  14
ATOM     14  O   UNL     1       3.370   3.157  18.562  0.00  0.00    +0.000 OA
ATOM     15  C   UNL     1       4.212   2.609  19.567  0.00  0.00    +0.000 C 
ENDBRANCH  10  14
ENDBRANCH   3   6
BRANCH   1  16
ATOM     16  C   UNL     1       0.409  11.107  19.135  0.00  0.00    +0.000 C 
BRANCH  16  20
ATOM     17  C   UNL     1      -3.753  10.957  17.906  0.00  0.00    +0.000 A 
ATOM     18  C   UNL     1      -2.823  10.051  17.396  0.00  0.00    +0.000 A 
ATOM     19  C   UNL     1      -1.490  10.091  17.809  0.00  0.00    +0.000 A 
ATOM     20  C   UNL     1      -1.055  11.053  18.734  0.00  0.00    +0.000 A 
ATOM     21  C   UNL     1      -1.998  11.973  19.225  0.00  0.00    +0.000 A 
ATOM     22  C   UNL     1      -3.334  11.927  18.813  0.00  0.00    +0.000 A 
BRANCH  17  24
ATOM     23  C   UNL     1      -6.068  11.090  18.353  0.00  0.00    +0.000 C 
ATOM     24  O   UNL     1      -5.025  10.827  17.421  0.00  0.00    +0.000 OA
ENDBRANCH  17  24
ENDBRANCH  16  20
BRANCH  16  25
ATOM     25  O   UNL     1       0.543  11.952  20.284  0.00  0.00    +0.000 OA
ATOM     26  H   UNL     1      -0.304  11.891  20.757  0.00  0.00    +0.000 HD
ENDBRANCH  16  25
ENDBRANCH   1  16
TORSDOF 7
ENDMDL
MODEL 9
REMARK VINA RESULT:      -6.9      2.584      8.226
REMARK  Name = 
REMARK  10 active torsions:
REMARK  status: ('A' for Active; 'I' for Inactive)
REMARK    1  A    between atoms: C_1  and  O_2
REMARK    2  A    between atoms: O_2  and  C_3
REMARK    3  A    between atoms: C_6  and  C_7
REMARK    4  A    between atoms: C_7  and  O_8
REMARK    5  A    between atoms: C_7  and  C_9
REMARK    6  A    between atoms: C_11  and  C_12
REMARK    7  A    between atoms: C_15  and  O_16
REMARK    8  A    between atoms: O_16  and  C_17
REMARK    9  A    between atoms: C_18  and  O_19
REMARK   10  A    between atoms: O_19  and  C_20
REMARK                            x       y       z     vdW  Elec       q    Type
REMARK                         _______ _______ _______ _____ _____    ______ ____
ROOT
ATOM      1  C   UNL     1       0.988   9.396  19.983  0.00  0.00    +0.000 A 
ATOM      2  N   UNL     1       1.843   8.786  19.180  0.00  0.00    +0.000 NA
ATOM      3  C   UNL     1       2.122   7.515  19.655  0.00  0.00    +0.000 A 
ATOM      4  C   UNL     1       1.479   7.176  20.831  0.00  0.00    +0.000 A 
ATOM      5  S   UNL     1       0.510   8.485  21.365  0.00  0.00    +0.000 S 
ENDROOT
BRANCH   3   6
ATOM      6  C   UNL     1       3.057   6.648  18.953  0.00  0.00    +0.000 A 
ATOM      7  C   UNL     1       3.611   6.998  17.724  0.00  0.00    +0.000 A 
ATOM      8  C   UNL     1       4.507   6.133  17.099  0.00  0.00    +0.000 A 
ATOM      9  C   UNL     1       4.861   4.902  17.676  0.00  0.00    +0.000 A 
ATOM     10  C   UNL     1       4.305   4.538  18.914  0.00  0.00    +0.000 A 
ATOM     11  C   UNL     1       3.420   5.426  19.542  0.00  0.00    +0.000 A 
BRANCH   9  12
ATOM     12  O   UNL     1       5.750   4.210  16.893  0.00  0.00    +0.000 OA
ATOM     13  C   UNL     1       7.118   4.586  16.916  0.00  0.00    +0.000 C 
ENDBRANCH   9  12
BRANCH  10  14
ATOM     14  O   UNL     1       4.645   3.327  19.456  0.00  0.00    +0.000 OA
ATOM     15  C   UNL     1       3.658   2.615  20.190  0.00  0.00    +0.000 C 
ENDBRANCH  10  14
ENDBRANCH   3   6
BRANCH   1  16
ATOM     16  C   UNL     1       0.388  10.760  19.727  0.00  0.00    +0.000 C 
BRANCH  16  20
ATOM     17  C   UNL     1      -3.074  10.763  17.105  0.00  0.00    +0.000 A 
ATOM     18  C   UNL     1      -1.982   9.934  16.848  0.00  0.00    +0.000 A 
ATOM     19  C   UNL     1      -0.879   9.923  17.706  0.00  0.00    +0.000 A 
ATOM     20  C   UNL     1      -0.841  10.756  18.834  0.00  0.00    +0.000 A 
ATOM     21  C   UNL     1      -1.939  11.602  19.070  0.00  0.00    +0.000 A 
ATOM     22  C   UNL     1      -3.044  11.608  18.212  0.00  0.00    +0.000 A 
BRANCH  17  24
ATOM     23  C   UNL     1      -3.711  10.288  14.882  0.00  0.00    +0.000 C 
ATOM     24  O   UNL     1      -4.089  10.696  16.191  0.00  0.00    +0.000 OA
ENDBRANCH  17  24
ENDBRANCH  16  20
BRANCH  16  25
ATOM     25  O   UNL     1       0.032  11.317  20.999  0.00  0.00    +0.000 OA
ATOM     26  H   UNL     1       0.864  11.386  21.499  0.00  0.00    +0.000 HD
ENDBRANCH  16  25
ENDBRANCH   1  16
TORSDOF 7
ENDMDL
