MODEL 1
REMARK VINA RESULT:      -7.4      0.000      0.000
REMARK  Name = 
REMARK  4 active torsions:
REMARK  status: ('A' for Active; 'I' for Inactive)
REMARK    1  A    between atoms: N_2  and  C_3
REMARK    2  A    between atoms: C_4  and  C_5
REMARK    3  A    between atoms: C_13  and  C_14
REMARK    4  A    between atoms: C_19  and  C_21
REMARK                            x       y       z     vdW  Elec       q    Type
REMARK                         _______ _______ _______ _____ _____    ______ ____
ROOT
ATOM      1  C   UNL     1      -1.263  11.955  20.597  0.00  0.00    +0.000 A 
ATOM      2  C   UNL     1      -0.657  10.735  20.388  0.00  0.00    +0.000 A 
ATOM      3  C   UNL     1       0.451  10.975  19.527  0.00  0.00    +0.000 A 
ATOM      4  C   UNL     1       1.438  10.197  18.904  0.00  0.00    +0.000 A 
ATOM      5  N   UNL     1       1.449   8.817  19.133  0.00  0.00    +0.000 N 
ATOM      6  C   UNL     1       2.336   7.920  18.580  0.00  0.00    +0.000 C 
ATOM      7  O   UNL     1       3.235   8.160  17.785  0.00  0.00    +0.000 OA
ATOM      8  N   UNL     1       2.335  10.805  18.094  0.00  0.00    +0.000 NA
ATOM      9  C   UNL     1       2.276  12.141  17.892  0.00  0.00    +0.000 A 
ATOM     10  C   UNL     1       1.360  12.994  18.476  0.00  0.00    +0.000 A 
ATOM     11  C   UNL     1       0.457  12.344  19.298  0.00  0.00    +0.000 A 
ATOM     12  O   UNL     1      -0.559  12.943  19.978  0.00  0.00    +0.000 OA
ATOM     13  H   UNL     1       0.706   8.465  19.712  0.00  0.00    +0.000 HD
ENDROOT
BRANCH   1  24
ATOM     14  C   UNL     1      -3.770  12.360  20.442  0.00  0.00    +0.000 C 
ATOM     15  C   UNL     1      -4.536  13.690  20.402  0.00  0.00    +0.000 C 
ATOM     16  C   UNL     1      -5.772  13.760  19.532  0.00  0.00    +0.000 C 
ATOM     17  N   UNL     1      -4.244  14.758  21.094  0.00  0.00    +0.000 NA
ATOM     18  C   UNL     1      -3.152  14.697  21.903  0.00  0.00    +0.000 C 
ATOM     19  C   UNL     1      -2.356  13.649  22.041  0.00  0.00    +0.000 C 
ATOM     20  C   UNL     1      -1.344  14.007  23.024  0.00  0.00    +0.000 C 
ATOM     21  O   UNL     1      -0.490  13.254  23.451  0.00  0.00    +0.000 OA
ATOM     22  O   UNL     1      -1.539  15.297  23.415  0.00  0.00    +0.000 OA
ATOM     23  C   UNL     1      -2.700  15.818  22.755  0.00  0.00    +0.000 C 
ATOM     24  C   UNL     1      -2.497  12.365  21.330  0.00  0.00    +0.000 C 
BRANCH  14  26
ATOM     25  C   UNL     1      -3.423  11.550  17.980  0.00  0.00    +0.000 C 
ATOM     26  N   UNL     1      -3.544  11.919  19.088  0.00  0.00    +0.000 NA
ENDBRANCH  14  26
ENDBRANCH   1  24
BRANCH   6  27
ATOM     27  C   UNL     1       2.118   6.497  18.984  0.00  0.00    +0.000 A 
ATOM     28  C   UNL     1       2.191   5.514  17.989  0.00  0.00    +0.000 A 
ATOM     29  C   UNL     1       1.977   4.171  18.309  0.00  0.00    +0.000 A 
ATOM     30  C   UNL     1       1.693   3.807  19.624  0.00  0.00    +0.000 A 
ATOM     31  C   UNL     1       1.638   4.778  20.624  0.00  0.00    +0.000 A 
ATOM     32  C   UNL     1       1.858   6.121  20.309  0.00  0.00    +0.000 A 
ENDBRANCH   6  27
TORSDOF 3
ENDMDL
MODEL 2
REMARK VINA RESULT:      -7.0      3.745      6.197
REMARK  Name = 
REMARK  4 active torsions:
REMARK  status: ('A' for Active; 'I' for Inactive)
REMARK    1  A    between atoms: N_2  and  C_3
REMARK    2  A    between atoms: C_4  and  C_5
REMARK    3  A    between atoms: C_13  and  C_14
REMARK    4  A    between atoms: C_19  and  C_21
REMARK                            x       y       z     vdW  Elec       q    Type
REMARK                         _______ _______ _______ _____ _____    ______ ____
ROOT
ATOM      1  C   UNL     1      -3.105  13.101  23.335  0.00  0.00    +0.000 A 
ATOM      2  C   UNL     1      -2.248  13.650  22.405  0.00  0.00    +0.000 A 
ATOM      3  C   UNL     1      -1.258  12.664  22.135  0.00  0.00    +0.000 A 
ATOM      4  C   UNL     1      -0.102  12.577  21.344  0.00  0.00    +0.000 A 
ATOM      5  N   UNL     1       0.256  13.676  20.556  0.00  0.00    +0.000 N 
ATOM      6  C   UNL     1       1.367  13.753  19.746  0.00  0.00    +0.000 C 
ATOM      7  O   UNL     1       2.236  12.905  19.596  0.00  0.00    +0.000 OA
ATOM      8  N   UNL     1       0.632  11.442  21.381  0.00  0.00    +0.000 NA
ATOM      9  C   UNL     1       0.254  10.410  22.171  0.00  0.00    +0.000 A 
ATOM     10  C   UNL     1      -0.876  10.389  22.965  0.00  0.00    +0.000 A 
ATOM     11  C   UNL     1      -1.605  11.563  22.906  0.00  0.00    +0.000 A 
ATOM     12  O   UNL     1      -2.747  11.814  23.604  0.00  0.00    +0.000 OA
ATOM     13  H   UNL     1      -0.333  14.486  20.643  0.00  0.00    +0.000 HD
ENDROOT
BRANCH   1  24
ATOM     14  C   UNL     1      -5.628  13.430  23.325  0.00  0.00    +0.000 C 
ATOM     15  C   UNL     1      -6.437  14.711  23.075  0.00  0.00    +0.000 C 
ATOM     16  C   UNL     1      -7.745  14.577  22.325  0.00  0.00    +0.000 C 
ATOM     17  N   UNL     1      -6.121  15.905  23.497  0.00  0.00    +0.000 NA
ATOM     18  C   UNL     1      -4.964  16.032  24.198  0.00  0.00    +0.000 C 
ATOM     19  C   UNL     1      -4.125  15.049  24.482  0.00  0.00    +0.000 C 
ATOM     20  C   UNL     1      -3.045  15.621  25.272  0.00  0.00    +0.000 C 
ATOM     21  O   UNL     1      -2.133  14.987  25.769  0.00  0.00    +0.000 OA
ATOM     22  O   UNL     1      -3.247  16.962  25.398  0.00  0.00    +0.000 OA
ATOM     23  C   UNL     1      -4.476  17.315  24.751  0.00  0.00    +0.000 C 
ATOM     24  C   UNL     1      -4.284  13.641  24.073  0.00  0.00    +0.000 C 
BRANCH  14  26
ATOM     25  C   UNL     1      -5.430  12.180  21.036  0.00  0.00    +0.000 C 
ATOM     26  N   UNL     1      -5.505  12.714  22.079  0.00  0.00    +0.000 NA
ENDBRANCH  14  26
ENDBRANCH   1  24
BRANCH   6  27
ATOM     27  C   UNL     1       1.520  15.050  19.018  0.00  0.00    +0.000 A 
ATOM     28  C   UNL     1       0.420  15.917  18.982  0.00  0.00    +0.000 A 
ATOM     29  C   UNL     1       0.504  17.132  18.300  0.00  0.00    +0.000 A 
ATOM     30  C   UNL     1       1.688  17.488  17.657  0.00  0.00    +0.000 A 
ATOM     31  C   UNL     1       2.794  16.640  17.704  0.00  0.00    +0.000 A 
ATOM     32  C   UNL     1       2.716  15.426  18.390  0.00  0.00    +0.000 A 
ENDBRANCH   6  27
TORSDOF 3
ENDMDL
MODEL 3
REMARK VINA RESULT:      -6.9      1.957      2.504
REMARK  Name = 
REMARK  4 active torsions:
REMARK  status: ('A' for Active; 'I' for Inactive)
REMARK    1  A    between atoms: N_2  and  C_3
REMARK    2  A    between atoms: C_4  and  C_5
REMARK    3  A    between atoms: C_13  and  C_14
REMARK    4  A    between atoms: C_19  and  C_21
REMARK                            x       y       z     vdW  Elec       q    Type
REMARK                         _______ _______ _______ _____ _____    ______ ____
ROOT
ATOM      1  C   UNL     1      -2.284  13.196  22.037  0.00  0.00    +0.000 A 
ATOM      2  C   UNL     1      -1.480  12.181  21.565  0.00  0.00    +0.000 A 
ATOM      3  C   UNL     1      -0.747  12.721  20.471  0.00  0.00    +0.000 A 
ATOM      4  C   UNL     1       0.189  12.242  19.542  0.00  0.00    +0.000 A 
ATOM      5  N   UNL     1       0.600  10.908  19.630  0.00  0.00    +0.000 N 
ATOM      6  C   UNL     1       1.491  10.286  18.784  0.00  0.00    +0.000 C 
ATOM      7  O   UNL     1       2.048  10.771  17.808  0.00  0.00    +0.000 OA
ATOM      8  N   UNL     1       0.650  13.081  18.586  0.00  0.00    +0.000 NA
ATOM      9  C   UNL     1       0.212  14.360  18.531  0.00  0.00    +0.000 A 
ATOM     10  C   UNL     1      -0.687  14.931  19.412  0.00  0.00    +0.000 A 
ATOM     11  C   UNL     1      -1.140  14.049  20.376  0.00  0.00    +0.000 A 
ATOM     12  O   UNL     1      -2.043  14.347  21.351  0.00  0.00    +0.000 OA
ATOM     13  H   UNL     1       0.156  10.361  20.347  0.00  0.00    +0.000 HD
ENDROOT
BRANCH   1  24
ATOM     14  C   UNL     1      -4.758  12.950  22.578  0.00  0.00    +0.000 C 
ATOM     15  C   UNL     1      -5.799  14.040  22.870  0.00  0.00    +0.000 C 
ATOM     16  C   UNL     1      -7.207  13.819  22.361  0.00  0.00    +0.000 C 
ATOM     17  N   UNL     1      -5.590  15.125  23.566  0.00  0.00    +0.000 NA
ATOM     18  C   UNL     1      -4.336  15.320  24.054  0.00  0.00    +0.000 C 
ATOM     19  C   UNL     1      -3.307  14.507  23.876  0.00  0.00    +0.000 C 
ATOM     20  C   UNL     1      -2.179  15.081  24.595  0.00  0.00    +0.000 C 
ATOM     21  O   UNL     1      -1.086  14.558  24.709  0.00  0.00    +0.000 OA
ATOM     22  O   UNL     1      -2.559  16.266  25.150  0.00  0.00    +0.000 OA
ATOM     23  C   UNL     1      -3.946  16.492  24.868  0.00  0.00    +0.000 C 
ATOM     24  C   UNL     1      -3.329  13.253  23.102  0.00  0.00    +0.000 C 
BRANCH  14  26
ATOM     25  C   UNL     1      -4.927  12.358  20.036  0.00  0.00    +0.000 C 
ATOM     26  N   UNL     1      -4.816  12.624  21.174  0.00  0.00    +0.000 NA
ENDBRANCH  14  26
ENDBRANCH   1  24
BRANCH   6  27
ATOM     27  C   UNL     1       1.748   8.847  19.096  0.00  0.00    +0.000 A 
ATOM     28  C   UNL     1       2.250   8.033  18.073  0.00  0.00    +0.000 A 
ATOM     29  C   UNL     1       2.490   6.677  18.307  0.00  0.00    +0.000 A 
ATOM     30  C   UNL     1       2.234   6.132  19.564  0.00  0.00    +0.000 A 
ATOM     31  C   UNL     1       1.753   6.941  20.593  0.00  0.00    +0.000 A 
ATOM     32  C   UNL     1       1.518   8.298  20.366  0.00  0.00    +0.000 A 
ENDBRANCH   6  27
TORSDOF 3
ENDMDL
MODEL 4
REMARK VINA RESULT:      -6.9      3.558      5.425
REMARK  Name = 
REMARK  4 active torsions:
REMARK  status: ('A' for Active; 'I' for Inactive)
REMARK    1  A    between atoms: N_2  and  C_3
REMARK    2  A    between atoms: C_4  and  C_5
REMARK    3  A    between atoms: C_13  and  C_14
REMARK    4  A    between atoms: C_19  and  C_21
REMARK                            x       y       z     vdW  Elec       q    Type
REMARK                         _______ _______ _______ _____ _____    ______ ____
ROOT
ATOM      1  C   UNL     1       1.395  14.539  21.198  0.00  0.00    +0.000 A 
ATOM      2  C   UNL     1       1.537  13.221  20.821  0.00  0.00    +0.000 A 
ATOM      3  C   UNL     1       0.512  12.495  21.490  0.00  0.00    +0.000 A 
ATOM      4  C   UNL     1       0.117  11.152  21.585  0.00  0.00    +0.000 A 
ATOM      5  N   UNL     1       0.827  10.190  20.859  0.00  0.00    +0.000 N 
ATOM      6  C   UNL     1       0.576   8.836  20.864  0.00  0.00    +0.000 C 
ATOM      7  O   UNL     1      -0.275   8.242  21.512  0.00  0.00    +0.000 OA
ATOM      8  N   UNL     1      -0.927  10.833  22.384  0.00  0.00    +0.000 NA
ATOM      9  C   UNL     1      -1.575  11.796  23.079  0.00  0.00    +0.000 A 
ATOM     10  C   UNL     1      -1.277  13.145  23.035  0.00  0.00    +0.000 A 
ATOM     11  C   UNL     1      -0.207  13.440  22.210  0.00  0.00    +0.000 A 
ATOM     12  O   UNL     1       0.304  14.684  22.002  0.00  0.00    +0.000 OA
ATOM     13  H   UNL     1       1.616  10.532  20.337  0.00  0.00    +0.000 HD
ENDROOT
BRANCH   1  24
ATOM     14  C   UNL     1       1.722  16.520  19.636  0.00  0.00    +0.000 C 
ATOM     15  C   UNL     1       2.817  16.756  18.585  0.00  0.00    +0.000 C 
ATOM     16  C   UNL     1       2.419  17.458  17.305  0.00  0.00    +0.000 C 
ATOM     17  N   UNL     1       4.077  16.447  18.719  0.00  0.00    +0.000 NA
ATOM     18  C   UNL     1       4.452  15.843  19.878  0.00  0.00    +0.000 C 
ATOM     19  C   UNL     1       3.644  15.533  20.878  0.00  0.00    +0.000 C 
ATOM     20  C   UNL     1       4.465  14.937  21.922  0.00  0.00    +0.000 C 
ATOM     21  O   UNL     1       4.061  14.600  23.019  0.00  0.00    +0.000 OA
ATOM     22  O   UNL     1       5.754  14.861  21.488  0.00  0.00    +0.000 OA
ATOM     23  C   UNL     1       5.844  15.443  20.181  0.00  0.00    +0.000 C 
ATOM     24  C   UNL     1       2.189  15.770  20.911  0.00  0.00    +0.000 C 
BRANCH  14  26
ATOM     25  C   UNL     1      -0.348  15.395  18.498  0.00  0.00    +0.000 C 
ATOM     26  N   UNL     1       0.581  15.925  18.984  0.00  0.00    +0.000 NA
ENDBRANCH  14  26
ENDBRANCH   1  24
BRANCH   6  27
ATOM     27  C   UNL     1       1.495   8.028  20.005  0.00  0.00    +0.000 A 
ATOM     28  C   UNL     1       1.910   8.581  18.787  0.00  0.00    +0.000 A 
ATOM     29  C   UNL     1       2.753   7.861  17.938  0.00  0.00    +0.000 A 
ATOM     30  C   UNL     1       3.188   6.589  18.305  0.00  0.00    +0.000 A 
ATOM     31  C   UNL     1       2.795   6.039  19.526  0.00  0.00    +0.000 A 
ATOM     32  C   UNL     1       1.957   6.759  20.380  0.00  0.00    +0.000 A 
ENDBRANCH   6  27
TORSDOF 3
ENDMDL
MODEL 5
REMARK VINA RESULT:      -6.8      1.913      2.571
REMARK  Name = 
REMARK  4 active torsions:
REMARK  status: ('A' for Active; 'I' for Inactive)
REMARK    1  A    between atoms: N_2  and  C_3
REMARK    2  A    between atoms: C_4  and  C_5
REMARK    3  A    between atoms: C_13  and  C_14
REMARK    4  A    between atoms: C_19  and  C_21
REMARK                            x       y       z     vdW  Elec       q    Type
REMARK                         _______ _______ _______ _____ _____    ______ ____
ROOT
ATOM      1  C   UNL     1      -2.739  12.984  21.547  0.00  0.00    +0.000 A 
ATOM      2  C   UNL     1      -1.848  12.014  21.141  0.00  0.00    +0.000 A 
ATOM      3  C   UNL     1      -0.952  12.642  20.231  0.00  0.00    +0.000 A 
ATOM      4  C   UNL     1       0.136  12.242  19.440  0.00  0.00    +0.000 A 
ATOM      5  N   UNL     1       0.551  10.908  19.495  0.00  0.00    +0.000 N 
ATOM      6  C   UNL     1       1.583  10.359  18.767  0.00  0.00    +0.000 C 
ATOM      7  O   UNL     1       2.287  10.921  17.938  0.00  0.00    +0.000 OA
ATOM      8  N   UNL     1       0.734  13.156  18.642  0.00  0.00    +0.000 NA
ATOM      9  C   UNL     1       0.288  14.433  18.611  0.00  0.00    +0.000 A 
ATOM     10  C   UNL     1      -0.756  14.928  19.368  0.00  0.00    +0.000 A 
ATOM     11  C   UNL     1      -1.348  13.971  20.172  0.00  0.00    +0.000 A 
ATOM     12  O   UNL     1      -2.408  14.187  21.000  0.00  0.00    +0.000 OA
ATOM     13  H   UNL     1       0.003  10.304  20.083  0.00  0.00    +0.000 HD
ENDROOT
BRANCH   1  24
ATOM     14  C   UNL     1      -5.258  12.640  21.648  0.00  0.00    +0.000 C 
ATOM     15  C   UNL     1      -6.373  13.682  21.815  0.00  0.00    +0.000 C 
ATOM     16  C   UNL     1      -7.666  13.450  21.065  0.00  0.00    +0.000 C 
ATOM     17  N   UNL     1      -6.323  14.731  22.590  0.00  0.00    +0.000 NA
ATOM     18  C   UNL     1      -5.177  14.933  23.293  0.00  0.00    +0.000 C 
ATOM     19  C   UNL     1      -4.103  14.161  23.251  0.00  0.00    +0.000 C 
ATOM     20  C   UNL     1      -3.133  14.725  24.177  0.00  0.00    +0.000 C 
ATOM     21  O   UNL     1      -2.056  14.228  24.448  0.00  0.00    +0.000 OA
ATOM     22  O   UNL     1      -3.645  15.866  24.719  0.00  0.00    +0.000 OA
ATOM     23  C   UNL     1      -4.972  16.069  24.219  0.00  0.00    +0.000 C 
ATOM     24  C   UNL     1      -3.948  12.952  22.421  0.00  0.00    +0.000 C 
BRANCH  14  26
ATOM     25  C   UNL     1      -4.964  12.226  19.082  0.00  0.00    +0.000 C 
ATOM     26  N   UNL     1      -5.068  12.391  20.240  0.00  0.00    +0.000 NA
ENDBRANCH  14  26
ENDBRANCH   1  24
BRANCH   6  27
ATOM     27  C   UNL     1       1.812   8.901  19.008  0.00  0.00    +0.000 A 
ATOM     28  C   UNL     1       1.484   8.385  20.268  0.00  0.00    +0.000 A 
ATOM     29  C   UNL     1       1.695   7.034  20.552  0.00  0.00    +0.000 A 
ATOM     30  C   UNL     1       2.229   6.194  19.577  0.00  0.00    +0.000 A 
ATOM     31  C   UNL     1       2.540   6.697  18.313  0.00  0.00    +0.000 A 
ATOM     32  C   UNL     1       2.325   8.045  18.023  0.00  0.00    +0.000 A 
ENDBRANCH   6  27
TORSDOF 3
ENDMDL
MODEL 6
REMARK VINA RESULT:      -6.7      4.398      7.026
REMARK  Name = 
REMARK  4 active torsions:
REMARK  status: ('A' for Active; 'I' for Inactive)
REMARK    1  A    between atoms: N_2  and  C_3
REMARK    2  A    between atoms: C_4  and  C_5
REMARK    3  A    between atoms: C_13  and  C_14
REMARK    4  A    between atoms: C_19  and  C_21
REMARK                            x       y       z     vdW  Elec       q    Type
REMARK                         _______ _______ _______ _____ _____    ______ ____
ROOT
ATOM      1  C   UNL     1      -4.053  13.166  21.179  0.00  0.00    +0.000 A 
ATOM      2  C   UNL     1      -2.959  13.748  20.577  0.00  0.00    +0.000 A 
ATOM      3  C   UNL     1      -1.810  13.091  21.101  0.00  0.00    +0.000 A 
ATOM      4  C   UNL     1      -0.420  13.209  20.956  0.00  0.00    +0.000 A 
ATOM      5  N   UNL     1       0.084  14.173  20.077  0.00  0.00    +0.000 N 
ATOM      6  C   UNL     1       1.417  14.425  19.841  0.00  0.00    +0.000 C 
ATOM      7  O   UNL     1       2.379  13.882  20.369  0.00  0.00    +0.000 OA
ATOM      8  N   UNL     1       0.384  12.398  21.680  0.00  0.00    +0.000 NA
ATOM      9  C   UNL     1      -0.149  11.489  22.529  0.00  0.00    +0.000 A 
ATOM     10  C   UNL     1      -1.500  11.281  22.724  0.00  0.00    +0.000 A 
ATOM     11  C   UNL     1      -2.296  12.125  21.972  0.00  0.00    +0.000 A 
ATOM     12  O   UNL     1      -3.657  12.144  21.989  0.00  0.00    +0.000 OA
ATOM     13  H   UNL     1      -0.602  14.756  19.628  0.00  0.00    +0.000 HD
ENDROOT
BRANCH   1  24
ATOM     14  C   UNL     1      -6.054  14.187  22.373  0.00  0.00    +0.000 C 
ATOM     15  C   UNL     1      -7.217  13.485  23.089  0.00  0.00    +0.000 C 
ATOM     16  C   UNL     1      -7.768  14.140  24.337  0.00  0.00    +0.000 C 
ATOM     17  N   UNL     1      -7.810  12.393  22.688  0.00  0.00    +0.000 NA
ATOM     18  C   UNL     1      -7.343  11.813  21.551  0.00  0.00    +0.000 C 
ATOM     19  C   UNL     1      -6.332  12.255  20.821  0.00  0.00    +0.000 C 
ATOM     20  C   UNL     1      -6.198  11.356  19.685  0.00  0.00    +0.000 C 
ATOM     21  O   UNL     1      -5.414  11.505  18.767  0.00  0.00    +0.000 OA
ATOM     22  O   UNL     1      -7.116  10.356  19.796  0.00  0.00    +0.000 OA
ATOM     23  C   UNL     1      -7.915  10.581  20.964  0.00  0.00    +0.000 C 
ATOM     24  C   UNL     1      -5.517  13.448  21.118  0.00  0.00    +0.000 C 
BRANCH  14  26
ATOM     25  C   UNL     1      -4.225  14.830  24.128  0.00  0.00    +0.000 C 
ATOM     26  N   UNL     1      -5.041  14.508  23.348  0.00  0.00    +0.000 NA
ENDBRANCH  14  26
ENDBRANCH   1  24
BRANCH   6  27
ATOM     27  C   UNL     1       1.682  15.520  18.859  0.00  0.00    +0.000 A 
ATOM     28  C   UNL     1       0.688  16.489  18.672  0.00  0.00    +0.000 A 
ATOM     29  C   UNL     1       0.876  17.523  17.753  0.00  0.00    +0.000 A 
ATOM     30  C   UNL     1       2.061  17.596  17.022  0.00  0.00    +0.000 A 
ATOM     31  C   UNL     1       3.064  16.646  17.216  0.00  0.00    +0.000 A 
ATOM     32  C   UNL     1       2.882  15.614  18.139  0.00  0.00    +0.000 A 
ENDBRANCH   6  27
TORSDOF 3
ENDMDL
MODEL 7
REMARK VINA RESULT:      -6.7      3.622      5.603
REMARK  Name = 
REMARK  4 active torsions:
REMARK  status: ('A' for Active; 'I' for Inactive)
REMARK    1  A    between atoms: N_2  and  C_3
REMARK    2  A    between atoms: C_4  and  C_5
REMARK    3  A    between atoms: C_13  and  C_14
REMARK    4  A    between atoms: C_19  and  C_21
REMARK                            x       y       z     vdW  Elec       q    Type
REMARK                         _______ _______ _______ _____ _____    ______ ____
ROOT
ATOM      1  C   UNL     1       1.534  14.959  20.667  0.00  0.00    +0.000 A 
ATOM      2  C   UNL     1       1.642  13.626  20.337  0.00  0.00    +0.000 A 
ATOM      3  C   UNL     1       0.699  12.930  21.144  0.00  0.00    +0.000 A 
ATOM      4  C   UNL     1       0.324  11.592  21.341  0.00  0.00    +0.000 A 
ATOM      5  N   UNL     1       0.957  10.599  20.587  0.00  0.00    +0.000 N 
ATOM      6  C   UNL     1       0.716   9.247  20.679  0.00  0.00    +0.000 C 
ATOM      7  O   UNL     1      -0.058   8.682  21.440  0.00  0.00    +0.000 OA
ATOM      8  N   UNL     1      -0.626  11.309  22.261  0.00  0.00    +0.000 NA
ATOM      9  C   UNL     1      -1.202  12.302  22.977  0.00  0.00    +0.000 A 
ATOM     10  C   UNL     1      -0.918  13.647  22.840  0.00  0.00    +0.000 A 
ATOM     11  C   UNL     1       0.056  13.906  21.893  0.00  0.00    +0.000 A 
ATOM     12  O   UNL     1       0.535  15.140  21.576  0.00  0.00    +0.000 OA
ATOM     13  H   UNL     1       1.683  10.918  19.968  0.00  0.00    +0.000 HD
ENDROOT
BRANCH   1  24
ATOM     14  C   UNL     1       1.507  17.059  19.231  0.00  0.00    +0.000 C 
ATOM     15  C   UNL     1       2.246  17.343  17.915  0.00  0.00    +0.000 C 
ATOM     16  C   UNL     1       1.528  18.175  16.875  0.00  0.00    +0.000 C 
ATOM     17  N   UNL     1       3.464  16.970  17.631  0.00  0.00    +0.000 NA
ATOM     18  C   UNL     1       4.130  16.248  18.571  0.00  0.00    +0.000 C 
ATOM     19  C   UNL     1       3.644  15.882  19.746  0.00  0.00    +0.000 C 
ATOM     20  C   UNL     1       4.699  15.159  20.440  0.00  0.00    +0.000 C 
ATOM     21  O   UNL     1       4.624  14.741  21.580  0.00  0.00    +0.000 OA
ATOM     22  O   UNL     1       5.788  15.069  19.626  0.00  0.00    +0.000 OA
ATOM     23  C   UNL     1       5.517  15.763  18.402  0.00  0.00    +0.000 C 
ATOM     24  C   UNL     1       2.286  16.176  20.242  0.00  0.00    +0.000 C 
BRANCH  14  26
ATOM     25  C   UNL     1      -0.876  16.124  18.691  0.00  0.00    +0.000 C 
ATOM     26  N   UNL     1       0.184  16.574  18.919  0.00  0.00    +0.000 NA
ENDBRANCH  14  26
ENDBRANCH   1  24
BRANCH   6  27
ATOM     27  C   UNL     1       1.542   8.401  19.763  0.00  0.00    +0.000 A 
ATOM     28  C   UNL     1       1.940   7.138  20.217  0.00  0.00    +0.000 A 
ATOM     29  C   UNL     1       2.729   6.316  19.409  0.00  0.00    +0.000 A 
ATOM     30  C   UNL     1       3.117   6.752  18.143  0.00  0.00    +0.000 A 
ATOM     31  C   UNL     1       2.707   8.001  17.676  0.00  0.00    +0.000 A 
ATOM     32  C   UNL     1       1.914   8.823  18.479  0.00  0.00    +0.000 A 
ENDBRANCH   6  27
TORSDOF 3
ENDMDL
MODEL 8
REMARK VINA RESULT:      -6.6      3.465      9.279
REMARK  Name = 
REMARK  4 active torsions:
REMARK  status: ('A' for Active; 'I' for Inactive)
REMARK    1  A    between atoms: N_2  and  C_3
REMARK    2  A    between atoms: C_4  and  C_5
REMARK    3  A    between atoms: C_13  and  C_14
REMARK    4  A    between atoms: C_19  and  C_21
REMARK                            x       y       z     vdW  Elec       q    Type
REMARK                         _______ _______ _______ _____ _____    ______ ____
ROOT
ATOM      1  C   UNL     1       2.539   6.644  18.660  0.00  0.00    +0.000 A 
ATOM      2  C   UNL     1       1.495   7.436  18.236  0.00  0.00    +0.000 A 
ATOM      3  C   UNL     1       1.159   8.284  19.330  0.00  0.00    +0.000 A 
ATOM      4  C   UNL     1       0.197   9.271  19.590  0.00  0.00    +0.000 A 
ATOM      5  N   UNL     1      -0.707   9.611  18.578  0.00  0.00    +0.000 N 
ATOM      6  C   UNL     1      -1.717  10.540  18.685  0.00  0.00    +0.000 C 
ATOM      7  O   UNL     1      -2.017  11.199  19.672  0.00  0.00    +0.000 OA
ATOM      8  N   UNL     1       0.168   9.849  20.812  0.00  0.00    +0.000 NA
ATOM      9  C   UNL     1       1.054   9.477  21.765  0.00  0.00    +0.000 A 
ATOM     10  C   UNL     1       2.050   8.535  21.599  0.00  0.00    +0.000 A 
ATOM     11  C   UNL     1       2.055   7.962  20.341  0.00  0.00    +0.000 A 
ATOM     12  O   UNL     1       2.917   6.995  19.921  0.00  0.00    +0.000 OA
ATOM     13  H   UNL     1      -0.627   9.083  17.726  0.00  0.00    +0.000 HD
ENDROOT
BRANCH   1  24
ATOM     14  C   UNL     1       2.889   4.125  18.584  0.00  0.00    +0.000 C 
ATOM     15  C   UNL     1       4.057   3.291  19.130  0.00  0.00    +0.000 C 
ATOM     16  C   UNL     1       3.735   1.934  19.717  0.00  0.00    +0.000 C 
ATOM     17  N   UNL     1       5.317   3.629  19.088  0.00  0.00    +0.000 NA
ATOM     18  C   UNL     1       5.621   4.834  18.535  0.00  0.00    +0.000 C 
ATOM     19  C   UNL     1       4.747   5.697  18.044  0.00  0.00    +0.000 C 
ATOM     20  C   UNL     1       5.504   6.827  17.528  0.00  0.00    +0.000 C 
ATOM     21  O   UNL     1       5.025   7.776  16.937  0.00  0.00    +0.000 OA
ATOM     22  O   UNL     1       6.829   6.626  17.774  0.00  0.00    +0.000 OA
ATOM     23  C   UNL     1       7.001   5.351  18.406  0.00  0.00    +0.000 C 
ATOM     24  C   UNL     1       3.283   5.517  18.024  0.00  0.00    +0.000 C 
BRANCH  14  26
ATOM     25  C   UNL     1       1.004   4.131  20.399  0.00  0.00    +0.000 C 
ATOM     26  N   UNL     1       1.846   4.163  19.581  0.00  0.00    +0.000 NA
ENDBRANCH  14  26
ENDBRANCH   1  24
BRANCH   6  27
ATOM     27  C   UNL     1      -2.549  10.703  17.453  0.00  0.00    +0.000 A 
ATOM     28  C   UNL     1      -2.124  10.059  16.284  0.00  0.00    +0.000 A 
ATOM     29  C   UNL     1      -2.853  10.194  15.101  0.00  0.00    +0.000 A 
ATOM     30  C   UNL     1      -4.012  10.967  15.084  0.00  0.00    +0.000 A 
ATOM     31  C   UNL     1      -4.453  11.595  16.248  0.00  0.00    +0.000 A 
ATOM     32  C   UNL     1      -3.730  11.458  17.435  0.00  0.00    +0.000 A 
ENDBRANCH   6  27
TORSDOF 3
ENDMDL
MODEL 9
REMARK VINA RESULT:      -6.4      7.412     11.751
REMARK  Name = 
REMARK  4 active torsions:
REMARK  status: ('A' for Active; 'I' for Inactive)
REMARK    1  A    between atoms: N_2  and  C_3
REMARK    2  A    between atoms: C_4  and  C_5
REMARK    3  A    between atoms: C_13  and  C_14
REMARK    4  A    between atoms: C_19  and  C_21
REMARK                            x       y       z     vdW  Elec       q    Type
REMARK                         _______ _______ _______ _____ _____    ______ ____
ROOT
ATOM      1  C   UNL     1       9.040  13.700  21.656  0.00  0.00    +0.000 A 
ATOM      2  C   UNL     1       7.825  14.186  21.226  0.00  0.00    +0.000 A 
ATOM      3  C   UNL     1       6.909  13.994  22.299  0.00  0.00    +0.000 A 
ATOM      4  C   UNL     1       5.541  14.218  22.518  0.00  0.00    +0.000 A 
ATOM      5  N   UNL     1       4.784  14.796  21.494  0.00  0.00    +0.000 N 
ATOM      6  C   UNL     1       3.433  15.059  21.547  0.00  0.00    +0.000 C 
ATOM      7  O   UNL     1       2.665  14.812  22.468  0.00  0.00    +0.000 OA
ATOM      8  N   UNL     1       5.001  13.855  23.703  0.00  0.00    +0.000 NA
ATOM      9  C   UNL     1       5.771  13.285  24.659  0.00  0.00    +0.000 A 
ATOM     10  C   UNL     1       7.127  13.045  24.549  0.00  0.00    +0.000 A 
ATOM     11  C   UNL     1       7.650  13.427  23.326  0.00  0.00    +0.000 A 
ATOM     12  O   UNL     1       8.951  13.285  22.950  0.00  0.00    +0.000 OA
ATOM     13  H   UNL     1       5.277  14.980  20.637  0.00  0.00    +0.000 HD
ENDROOT
BRANCH   1  24
ATOM     14  C   UNL     1      11.104  14.887  20.757  0.00  0.00    +0.000 C 
ATOM     15  C   UNL     1      11.505  15.164  19.301  0.00  0.00    +0.000 C 
ATOM     16  C   UNL     1      12.204  16.474  19.005  0.00  0.00    +0.000 C 
ATOM     17  N   UNL     1      11.341  14.347  18.298  0.00  0.00    +0.000 NA
ATOM     18  C   UNL     1      10.741  13.154  18.557  0.00  0.00    +0.000 C 
ATOM     19  C   UNL     1      10.301  12.757  19.740  0.00  0.00    +0.000 C 
ATOM     20  C   UNL     1       9.766  11.414  19.569  0.00  0.00    +0.000 C 
ATOM     21  O   UNL     1       9.343  10.713  20.468  0.00  0.00    +0.000 OA
ATOM     22  O   UNL     1       9.857  11.061  18.256  0.00  0.00    +0.000 OA
ATOM     23  C   UNL     1      10.494  12.119  17.529  0.00  0.00    +0.000 C 
ATOM     24  C   UNL     1      10.365  13.541  20.987  0.00  0.00    +0.000 C 
BRANCH  14  26
ATOM     25  C   UNL     1       9.890  17.000  21.707  0.00  0.00    +0.000 C 
ATOM     26  N   UNL     1      10.404  16.040  21.269  0.00  0.00    +0.000 NA
ENDBRANCH  14  26
ENDBRANCH   1  24
BRANCH   6  27
ATOM     27  C   UNL     1       2.867  15.673  20.307  0.00  0.00    +0.000 A 
ATOM     28  C   UNL     1       3.725  15.860  19.217  0.00  0.00    +0.000 A 
ATOM     29  C   UNL     1       3.252  16.447  18.041  0.00  0.00    +0.000 A 
ATOM     30  C   UNL     1       1.920  16.843  17.949  0.00  0.00    +0.000 A 
ATOM     31  C   UNL     1       1.053  16.642  19.024  0.00  0.00    +0.000 A 
ATOM     32  C   UNL     1       1.521  16.051  20.199  0.00  0.00    +0.000 A 
ENDBRANCH   6  27
TORSDOF 3
ENDMDL
