MODEL 1
REMARK VINA RESULT:      -6.7      0.000      0.000
REMARK  Name = 
REMARK  3 active torsions:
REMARK  status: ('A' for Active; 'I' for Inactive)
REMARK    1  A    between atoms: C_1  and  C_2
REMARK    2  A    between atoms: N_4  and  C_5
REMARK    3  A    between atoms: C_14  and  C_16
REMARK                            x       y       z     vdW  Elec       q    Type
REMARK                         _______ _______ _______ _____ _____    ______ ____
ROOT
ATOM      1  C   UNL     1       5.541   5.574  16.292  0.00  0.00    +0.000 C 
ATOM      2  C   UNL     1       4.357   4.868  16.970  0.00  0.00    +0.000 C 
ATOM      3  C   UNL     1       4.939   3.818  17.947  0.00  0.00    +0.000 C 
ATOM      4  N   UNL     1       3.993   2.784  18.370  0.00  0.00    +0.000 N 
ATOM      5  C   UNL     1       3.635   1.679  17.499  0.00  0.00    +0.000 C 
ATOM      6  C   UNL     1       3.095   3.133  19.367  0.00  0.00    +0.000 A 
ATOM      7  C   UNL     1       3.135   2.409  20.571  0.00  0.00    +0.000 A 
ATOM      8  C   UNL     1       2.345   2.769  21.659  0.00  0.00    +0.000 A 
ATOM      9  C   UNL     1       1.454   3.826  21.541  0.00  0.00    +0.000 A 
ATOM     10  C   UNL     1       1.352   4.505  20.331  0.00  0.00    +0.000 A 
ATOM     11  C   UNL     1       2.189   4.201  19.241  0.00  0.00    +0.000 A 
ATOM     12  C   UNL     1       2.079   4.988  17.956  0.00  0.00    +0.000 C 
ATOM     13  N   UNL     1       3.304   5.722  17.602  0.00  0.00    +0.000 N 
ATOM     14  C   UNL     1       3.478   7.101  17.859  0.00  0.00    +0.000 C 
ATOM     15  O   UNL     1       4.468   7.715  17.460  0.00  0.00    +0.000 OA
ENDROOT
BRANCH  14  16
ATOM     16  C   UNL     1       2.434   7.890  18.563  0.00  0.00    +0.000 A 
ATOM     17  C   UNL     1       1.647   8.916  17.935  0.00  0.00    +0.000 A 
ATOM     18  N   UNL     1       0.743   9.530  18.699  0.00  0.00    +0.000 NA
ATOM     19  S   UNL     1       0.950   8.854  20.210  0.00  0.00    +0.000 S 
ATOM     20  N   UNL     1       2.176   7.778  19.871  0.00  0.00    +0.000 NA
ENDBRANCH  14  16
TORSDOF 1
ENDMDL
MODEL 2
REMARK VINA RESULT:      -6.4      0.841      1.012
REMARK  Name = 
REMARK  3 active torsions:
REMARK  status: ('A' for Active; 'I' for Inactive)
REMARK    1  A    between atoms: C_1  and  C_2
REMARK    2  A    between atoms: N_4  and  C_5
REMARK    3  A    between atoms: C_14  and  C_16
REMARK                            x       y       z     vdW  Elec       q    Type
REMARK                         _______ _______ _______ _____ _____    ______ ____
ROOT
ATOM      1  C   UNL     1       6.057   5.144  16.575  0.00  0.00    +0.000 C 
ATOM      2  C   UNL     1       4.754   4.561  17.140  0.00  0.00    +0.000 C 
ATOM      3  C   UNL     1       5.136   3.593  18.286  0.00  0.00    +0.000 C 
ATOM      4  N   UNL     1       4.083   2.648  18.666  0.00  0.00    +0.000 N 
ATOM      5  C   UNL     1       3.788   1.476  17.861  0.00  0.00    +0.000 C 
ATOM      6  C   UNL     1       3.077   3.134  19.486  0.00  0.00    +0.000 A 
ATOM      7  C   UNL     1       2.910   2.536  20.747  0.00  0.00    +0.000 A 
ATOM      8  C   UNL     1       1.999   3.038  21.671  0.00  0.00    +0.000 A 
ATOM      9  C   UNL     1       1.193   4.113  21.328  0.00  0.00    +0.000 A 
ATOM     10  C   UNL     1       1.297   4.669  20.056  0.00  0.00    +0.000 A 
ATOM     11  C   UNL     1       2.259   4.221  19.131  0.00  0.00    +0.000 A 
ATOM     12  C   UNL     1       2.372   4.877  17.774  0.00  0.00    +0.000 C 
ATOM     13  N   UNL     1       3.673   5.519  17.531  0.00  0.00    +0.000 N 
ATOM     14  C   UNL     1       3.887   6.908  17.679  0.00  0.00    +0.000 C 
ATOM     15  O   UNL     1       4.955   7.436  17.369  0.00  0.00    +0.000 OA
ENDROOT
BRANCH  14  16
ATOM     16  C   UNL     1       2.801   7.808  18.148  0.00  0.00    +0.000 A 
ATOM     17  C   UNL     1       2.288   7.810  19.491  0.00  0.00    +0.000 A 
ATOM     18  N   UNL     1       1.317   8.684  19.759  0.00  0.00    +0.000 NA
ATOM     19  S   UNL     1       1.020   9.434  18.299  0.00  0.00    +0.000 S 
ATOM     20  N   UNL     1       2.140   8.651  17.347  0.00  0.00    +0.000 NA
ENDBRANCH  14  16
TORSDOF 1
ENDMDL
MODEL 3
REMARK VINA RESULT:      -6.3      2.799      4.828
REMARK  Name = 
REMARK  3 active torsions:
REMARK  status: ('A' for Active; 'I' for Inactive)
REMARK    1  A    between atoms: C_1  and  C_2
REMARK    2  A    between atoms: N_4  and  C_5
REMARK    3  A    between atoms: C_14  and  C_16
REMARK                            x       y       z     vdW  Elec       q    Type
REMARK                         _______ _______ _______ _____ _____    ______ ____
ROOT
ATOM      1  C   UNL     1       5.691   3.234  16.147  0.00  0.00    +0.000 C 
ATOM      2  C   UNL     1       5.406   4.417  17.085  0.00  0.00    +0.000 C 
ATOM      3  C   UNL     1       4.949   5.607  16.206  0.00  0.00    +0.000 C 
ATOM      4  N   UNL     1       5.027   6.915  16.859  0.00  0.00    +0.000 N 
ATOM      5  C   UNL     1       6.292   7.607  17.025  0.00  0.00    +0.000 C 
ATOM      6  C   UNL     1       3.999   7.237  17.733  0.00  0.00    +0.000 A 
ATOM      7  C   UNL     1       3.213   8.363  17.437  0.00  0.00    +0.000 A 
ATOM      8  C   UNL     1       2.096   8.688  18.201  0.00  0.00    +0.000 A 
ATOM      9  C   UNL     1       1.779   7.923  19.314  0.00  0.00    +0.000 A 
ATOM     10  C   UNL     1       2.591   6.847  19.660  0.00  0.00    +0.000 A 
ATOM     11  C   UNL     1       3.685   6.462  18.863  0.00  0.00    +0.000 A 
ATOM     12  C   UNL     1       4.521   5.262  19.248  0.00  0.00    +0.000 C 
ATOM     13  N   UNL     1       4.500   4.180  18.251  0.00  0.00    +0.000 N 
ATOM     14  C   UNL     1       3.679   3.036  18.373  0.00  0.00    +0.000 C 
ATOM     15  O   UNL     1       3.756   2.095  17.581  0.00  0.00    +0.000 OA
ENDROOT
BRANCH  14  16
ATOM     16  C   UNL     1       2.735   2.883  19.510  0.00  0.00    +0.000 A 
ATOM     17  C   UNL     1       1.330   3.178  19.429  0.00  0.00    +0.000 A 
ATOM     18  N   UNL     1       0.612   2.983  20.536  0.00  0.00    +0.000 NA
ATOM     19  S   UNL     1       1.731   2.502  21.676  0.00  0.00    +0.000 S 
ATOM     20  N   UNL     1       3.112   2.532  20.745  0.00  0.00    +0.000 NA
ENDBRANCH  14  16
TORSDOF 1
ENDMDL
MODEL 4
REMARK VINA RESULT:      -6.2      2.830      4.656
REMARK  Name = 
REMARK  3 active torsions:
REMARK  status: ('A' for Active; 'I' for Inactive)
REMARK    1  A    between atoms: C_1  and  C_2
REMARK    2  A    between atoms: N_4  and  C_5
REMARK    3  A    between atoms: C_14  and  C_16
REMARK                            x       y       z     vdW  Elec       q    Type
REMARK                         _______ _______ _______ _____ _____    ______ ____
ROOT
ATOM      1  C   UNL     1       2.656   8.477  17.881  0.00  0.00    +0.000 C 
ATOM      2  C   UNL     1       3.019   7.127  18.518  0.00  0.00    +0.000 C 
ATOM      3  C   UNL     1       1.703   6.336  18.713  0.00  0.00    +0.000 C 
ATOM      4  N   UNL     1       1.792   5.224  19.661  0.00  0.00    +0.000 N 
ATOM      5  C   UNL     1       1.794   5.448  21.096  0.00  0.00    +0.000 C 
ATOM      6  C   UNL     1       2.363   4.051  19.193  0.00  0.00    +0.000 A 
ATOM      7  C   UNL     1       1.572   2.890  19.191  0.00  0.00    +0.000 A 
ATOM      8  C   UNL     1       2.033   1.701  18.634  0.00  0.00    +0.000 A 
ATOM      9  C   UNL     1       3.321   1.635  18.122  0.00  0.00    +0.000 A 
ATOM     10  C   UNL     1       4.141   2.758  18.184  0.00  0.00    +0.000 A 
ATOM     11  C   UNL     1       3.671   3.988  18.680  0.00  0.00    +0.000 A 
ATOM     12  C   UNL     1       4.577   5.199  18.692  0.00  0.00    +0.000 C 
ATOM     13  N   UNL     1       4.090   6.313  17.864  0.00  0.00    +0.000 N 
ATOM     14  C   UNL     1       4.572   6.572  16.561  0.00  0.00    +0.000 C 
ATOM     15  O   UNL     1       4.227   7.571  15.928  0.00  0.00    +0.000 OA
ENDROOT
BRANCH  14  16
ATOM     16  C   UNL     1       5.580   5.686  15.923  0.00  0.00    +0.000 A 
ATOM     17  C   UNL     1       6.918   5.509  16.417  0.00  0.00    +0.000 A 
ATOM     18  N   UNL     1       7.703   4.672  15.737  0.00  0.00    +0.000 NA
ATOM     19  S   UNL     1       6.764   4.179  14.449  0.00  0.00    +0.000 S 
ATOM     20  N   UNL     1       5.366   5.023  14.780  0.00  0.00    +0.000 NA
ENDBRANCH  14  16
TORSDOF 1
ENDMDL
MODEL 5
REMARK VINA RESULT:      -6.1      5.733      8.117
REMARK  Name = 
REMARK  3 active torsions:
REMARK  status: ('A' for Active; 'I' for Inactive)
REMARK    1  A    between atoms: C_1  and  C_2
REMARK    2  A    between atoms: N_4  and  C_5
REMARK    3  A    between atoms: C_14  and  C_16
REMARK                            x       y       z     vdW  Elec       q    Type
REMARK                         _______ _______ _______ _____ _____    ______ ____
ROOT
ATOM      1  C   UNL     1       1.534   9.235  22.434  0.00  0.00    +0.000 C 
ATOM      2  C   UNL     1       1.043  10.060  21.235  0.00  0.00    +0.000 C 
ATOM      3  C   UNL     1       0.616   9.063  20.129  0.00  0.00    +0.000 C 
ATOM      4  N   UNL     1       0.512   9.643  18.789  0.00  0.00    +0.000 N 
ATOM      5  C   UNL     1       1.690   9.926  17.990  0.00  0.00    +0.000 C 
ATOM      6  C   UNL     1      -0.641  10.361  18.510  0.00  0.00    +0.000 A 
ATOM      7  C   UNL     1      -1.464   9.903  17.466  0.00  0.00    +0.000 A 
ATOM      8  C   UNL     1      -2.691  10.501  17.197  0.00  0.00    +0.000 A 
ATOM      9  C   UNL     1      -3.092  11.608  17.930  0.00  0.00    +0.000 A 
ATOM     10  C   UNL     1      -2.254  12.115  18.919  0.00  0.00    +0.000 A 
ATOM     11  C   UNL     1      -1.041  11.486  19.252  0.00  0.00    +0.000 A 
ATOM     12  C   UNL     1      -0.176  12.041  20.361  0.00  0.00    +0.000 C 
ATOM     13  N   UNL     1       0.013  11.115  21.488  0.00  0.00    +0.000 N 
ATOM     14  C   UNL     1      -0.729  11.199  22.687  0.00  0.00    +0.000 C 
ATOM     15  O   UNL     1      -0.481  10.479  23.656  0.00  0.00    +0.000 OA
ENDROOT
BRANCH  14  16
ATOM     16  C   UNL     1      -1.799  12.216  22.860  0.00  0.00    +0.000 A 
ATOM     17  C   UNL     1      -1.573  13.533  23.392  0.00  0.00    +0.000 A 
ATOM     18  N   UNL     1      -2.635  14.335  23.478  0.00  0.00    +0.000 NA
ATOM     19  S   UNL     1      -3.908  13.392  22.956  0.00  0.00    +0.000 S 
ATOM     20  N   UNL     1      -3.092  11.981  22.612  0.00  0.00    +0.000 NA
ENDBRANCH  14  16
TORSDOF 1
ENDMDL
MODEL 6
REMARK VINA RESULT:      -5.9      8.091     10.735
REMARK  Name = 
REMARK  3 active torsions:
REMARK  status: ('A' for Active; 'I' for Inactive)
REMARK    1  A    between atoms: C_1  and  C_2
REMARK    2  A    between atoms: N_4  and  C_5
REMARK    3  A    between atoms: C_14  and  C_16
REMARK                            x       y       z     vdW  Elec       q    Type
REMARK                         _______ _______ _______ _____ _____    ______ ____
ROOT
ATOM      1  C   UNL     1      -4.642  12.785  24.262  0.00  0.00    +0.000 C 
ATOM      2  C   UNL     1      -3.761  12.955  23.016  0.00  0.00    +0.000 C 
ATOM      3  C   UNL     1      -2.590  11.950  23.134  0.00  0.00    +0.000 C 
ATOM      4  N   UNL     1      -1.445  12.239  22.269  0.00  0.00    +0.000 N 
ATOM      5  C   UNL     1      -0.493  13.287  22.593  0.00  0.00    +0.000 C 
ATOM      6  C   UNL     1      -1.559  11.864  20.939  0.00  0.00    +0.000 A 
ATOM      7  C   UNL     1      -0.637  10.930  20.438  0.00  0.00    +0.000 A 
ATOM      8  C   UNL     1      -0.752  10.419  19.149  0.00  0.00    +0.000 A 
ATOM      9  C   UNL     1      -1.760  10.880  18.314  0.00  0.00    +0.000 A 
ATOM     10  C   UNL     1      -2.636  11.858  18.774  0.00  0.00    +0.000 A 
ATOM     11  C   UNL     1      -2.579  12.338  20.096  0.00  0.00    +0.000 A 
ATOM     12  C   UNL     1      -3.574  13.371  20.573  0.00  0.00    +0.000 C 
ATOM     13  N   UNL     1      -4.428  12.908  21.678  0.00  0.00    +0.000 N 
ATOM     14  C   UNL     1      -5.747  12.436  21.487  0.00  0.00    +0.000 C 
ATOM     15  O   UNL     1      -6.478  12.153  22.437  0.00  0.00    +0.000 OA
ENDROOT
BRANCH  14  16
ATOM     16  C   UNL     1      -6.337  12.332  20.127  0.00  0.00    +0.000 A 
ATOM     17  C   UNL     1      -6.285  11.143  19.321  0.00  0.00    +0.000 A 
ATOM     18  N   UNL     1      -6.870  11.205  18.124  0.00  0.00    +0.000 NA
ATOM     19  S   UNL     1      -7.410  12.779  18.008  0.00  0.00    +0.000 S 
ATOM     20  N   UNL     1      -6.908  13.359  19.487  0.00  0.00    +0.000 NA
ENDBRANCH  14  16
TORSDOF 1
ENDMDL
MODEL 7
REMARK VINA RESULT:      -5.8      7.576      9.769
REMARK  Name = 
REMARK  3 active torsions:
REMARK  status: ('A' for Active; 'I' for Inactive)
REMARK    1  A    between atoms: C_1  and  C_2
REMARK    2  A    between atoms: N_4  and  C_5
REMARK    3  A    between atoms: C_14  and  C_16
REMARK                            x       y       z     vdW  Elec       q    Type
REMARK                         _______ _______ _______ _____ _____    ______ ____
ROOT
ATOM      1  C   UNL     1      -1.012  11.741  23.088  0.00  0.00    +0.000 C 
ATOM      2  C   UNL     1      -1.278  11.989  21.596  0.00  0.00    +0.000 C 
ATOM      3  C   UNL     1      -0.835  10.720  20.828  0.00  0.00    +0.000 C 
ATOM      4  N   UNL     1      -0.629  10.915  19.391  0.00  0.00    +0.000 N 
ATOM      5  C   UNL     1       0.564  11.564  18.876  0.00  0.00    +0.000 C 
ATOM      6  C   UNL     1      -1.764  10.933  18.596  0.00  0.00    +0.000 A 
ATOM      7  C   UNL     1      -1.883   9.952  17.597  0.00  0.00    +0.000 A 
ATOM      8  C   UNL     1      -3.039   9.833  16.833  0.00  0.00    +0.000 A 
ATOM      9  C   UNL     1      -4.078  10.735  17.013  0.00  0.00    +0.000 A 
ATOM     10  C   UNL     1      -3.944  11.756  17.949  0.00  0.00    +0.000 A 
ATOM     11  C   UNL     1      -2.812  11.852  18.779  0.00  0.00    +0.000 A 
ATOM     12  C   UNL     1      -2.719  12.950  19.814  0.00  0.00    +0.000 C 
ATOM     13  N   UNL     1      -2.642  12.457  21.198  0.00  0.00    +0.000 N 
ATOM     14  C   UNL     1      -3.759  12.406  22.062  0.00  0.00    +0.000 C 
ATOM     15  O   UNL     1      -3.650  12.088  23.247  0.00  0.00    +0.000 OA
ENDROOT
BRANCH  14  16
ATOM     16  C   UNL     1      -5.112  12.807  21.594  0.00  0.00    +0.000 A 
ATOM     17  C   UNL     1      -5.630  14.144  21.697  0.00  0.00    +0.000 A 
ATOM     18  N   UNL     1      -6.860  14.348  21.224  0.00  0.00    +0.000 NA
ATOM     19  S   UNL     1      -7.368  12.838  20.727  0.00  0.00    +0.000 S 
ATOM     20  N   UNL     1      -6.012  11.947  21.104  0.00  0.00    +0.000 NA
ENDBRANCH  14  16
TORSDOF 1
ENDMDL
MODEL 8
REMARK VINA RESULT:      -5.7      2.606      4.380
REMARK  Name = 
REMARK  3 active torsions:
REMARK  status: ('A' for Active; 'I' for Inactive)
REMARK    1  A    between atoms: C_1  and  C_2
REMARK    2  A    between atoms: N_4  and  C_5
REMARK    3  A    between atoms: C_14  and  C_16
REMARK                            x       y       z     vdW  Elec       q    Type
REMARK                         _______ _______ _______ _____ _____    ______ ____
ROOT
ATOM      1  C   UNL     1       2.132   7.972  19.371  0.00  0.00    +0.000 C 
ATOM      2  C   UNL     1       2.732   6.587  19.657  0.00  0.00    +0.000 C 
ATOM      3  C   UNL     1       1.561   5.576  19.710  0.00  0.00    +0.000 C 
ATOM      4  N   UNL     1       1.878   4.305  20.365  0.00  0.00    +0.000 N 
ATOM      5  C   UNL     1       1.954   4.194  21.811  0.00  0.00    +0.000 C 
ATOM      6  C   UNL     1       2.576   3.373  19.612  0.00  0.00    +0.000 A 
ATOM      7  C   UNL     1       1.962   2.134  19.366  0.00  0.00    +0.000 A 
ATOM      8  C   UNL     1       2.546   1.190  18.528  0.00  0.00    +0.000 A 
ATOM      9  C   UNL     1       3.789   1.445  17.965  0.00  0.00    +0.000 A 
ATOM     10  C   UNL     1       4.441   2.639  18.258  0.00  0.00    +0.000 A 
ATOM     11  C   UNL     1       3.837   3.635  19.049  0.00  0.00    +0.000 A 
ATOM     12  C   UNL     1       4.558   4.938  19.311  0.00  0.00    +0.000 C 
ATOM     13  N   UNL     1       3.857   6.120  18.788  0.00  0.00    +0.000 N 
ATOM     14  C   UNL     1       4.199   6.742  17.566  0.00  0.00    +0.000 C 
ATOM     15  O   UNL     1       3.668   7.791  17.200  0.00  0.00    +0.000 OA
ENDROOT
BRANCH  14  16
ATOM     16  C   UNL     1       5.273   6.193  16.698  0.00  0.00    +0.000 A 
ATOM     17  C   UNL     1       6.656   6.575  16.798  0.00  0.00    +0.000 A 
ATOM     18  N   UNL     1       7.502   5.986  15.952  0.00  0.00    +0.000 NA
ATOM     19  S   UNL     1       6.531   5.018  15.001  0.00  0.00    +0.000 S 
ATOM     20  N   UNL     1       5.049   5.347  15.686  0.00  0.00    +0.000 NA
ENDBRANCH  14  16
TORSDOF 1
ENDMDL
MODEL 9
REMARK VINA RESULT:      -5.5      7.727     10.019
REMARK  Name = 
REMARK  3 active torsions:
REMARK  status: ('A' for Active; 'I' for Inactive)
REMARK    1  A    between atoms: C_1  and  C_2
REMARK    2  A    between atoms: N_4  and  C_5
REMARK    3  A    between atoms: C_14  and  C_16
REMARK                            x       y       z     vdW  Elec       q    Type
REMARK                         _______ _______ _______ _____ _____    ______ ____
ROOT
ATOM      1  C   UNL     1      -1.955  12.429  23.442  0.00  0.00    +0.000 C 
ATOM      2  C   UNL     1      -1.883  12.530  21.912  0.00  0.00    +0.000 C 
ATOM      3  C   UNL     1      -1.090  11.303  21.401  0.00  0.00    +0.000 C 
ATOM      4  N   UNL     1      -0.571  11.432  20.039  0.00  0.00    +0.000 N 
ATOM      5  C   UNL     1       0.605  12.232  19.746  0.00  0.00    +0.000 C 
ATOM      6  C   UNL     1      -1.470  11.211  19.006  0.00  0.00    +0.000 A 
ATOM      7  C   UNL     1      -1.201  10.159  18.114  0.00  0.00    +0.000 A 
ATOM      8  C   UNL     1      -2.108   9.802  17.122  0.00  0.00    +0.000 A 
ATOM      9  C   UNL     1      -3.278  10.531  16.965  0.00  0.00    +0.000 A 
ATOM     10  C   UNL     1      -3.523  11.620  17.795  0.00  0.00    +0.000 A 
ATOM     11  C   UNL     1      -2.651  11.956  18.848  0.00  0.00    +0.000 A 
ATOM     12  C   UNL     1      -2.971  13.121  19.757  0.00  0.00    +0.000 C 
ATOM     13  N   UNL     1      -3.162  12.741  21.165  0.00  0.00    +0.000 N 
ATOM     14  C   UNL     1      -4.436  12.565  21.750  0.00  0.00    +0.000 C 
ATOM     15  O   UNL     1      -4.573  12.350  22.955  0.00  0.00    +0.000 OA
ENDROOT
BRANCH  14  16
ATOM     16  C   UNL     1      -5.678  12.707  20.946  0.00  0.00    +0.000 A 
ATOM     17  C   UNL     1      -6.347  11.607  20.306  0.00  0.00    +0.000 A 
ATOM     18  N   UNL     1      -7.457  11.895  19.625  0.00  0.00    +0.000 NA
ATOM     19  S   UNL     1      -7.597  13.553  19.744  0.00  0.00    +0.000 S 
ATOM     20  N   UNL     1      -6.254  13.884  20.673  0.00  0.00    +0.000 NA
ENDBRANCH  14  16
TORSDOF 1
ENDMDL
