MODEL 1
REMARK VINA RESULT:      -6.9      0.000      0.000
REMARK  Name = 
REMARK  7 active torsions:
REMARK  status: ('A' for Active; 'I' for Inactive)
REMARK    1  A    between atoms: C_2  and  C_3
REMARK    2  A    between atoms: C_3  and  C_4
REMARK    3  A    between atoms: C_5  and  O_6
REMARK    4  A    between atoms: N_7  and  C_8
REMARK    5  A    between atoms: C_8  and  C_9
REMARK    6  A    between atoms: N_22  and  C_23
REMARK    7  A    between atoms: N_26  and  C_27
REMARK                            x       y       z     vdW  Elec       q    Type
REMARK                         _______ _______ _______ _____ _____    ______ ____
ROOT
ATOM      1  C   UNL     1       2.747  13.850  19.241  0.00  0.00    +0.000 A 
ATOM      2  C   UNL     1       2.167  12.772  18.664  0.00  0.00    +0.000 A 
ATOM      3  N   UNL     1       1.080  12.095  19.224  0.00  0.00    +0.000 N 
ATOM      4  C   UNL     1       0.436  12.626  20.322  0.00  0.00    +0.000 A 
ATOM      5  N   UNL     1      -0.658  12.261  20.982  0.00  0.00    +0.000 NA
ATOM      6  C   UNL     1      -0.810  13.202  21.974  0.00  0.00    +0.000 A 
ATOM      7  C   UNL     1       0.163  14.152  21.910  0.00  0.00    +0.000 A 
ATOM      8  C   UNL     1       0.178  15.319  22.717  0.00  0.00    +0.000 A 
ATOM      9  O   UNL     1       0.845  16.318  22.472  0.00  0.00    +0.000 OA
ATOM     10  N   UNL     1      -0.724  15.257  23.774  0.00  0.00    +0.000 N 
ATOM     11  C   UNL     1      -0.714  16.354  24.725  0.00  0.00    +0.000 C 
ATOM     12  C   UNL     1      -1.770  14.328  23.878  0.00  0.00    +0.000 A 
ATOM     13  O   UNL     1      -2.626  14.443  24.759  0.00  0.00    +0.000 OA
ATOM     14  N   UNL     1      -1.808  13.292  22.929  0.00  0.00    +0.000 N 
ATOM     15  C   UNL     1      -2.897  12.337  22.982  0.00  0.00    +0.000 C 
ATOM     16  N   UNL     1       1.008  13.747  20.917  0.00  0.00    +0.000 N 
ATOM     17  C   UNL     1       2.228  14.291  20.550  0.00  0.00    +0.000 A 
ATOM     18  O   UNL     1       2.812  15.073  21.283  0.00  0.00    +0.000 OA
ENDROOT
BRANCH   2  19
ATOM     19  O   UNL     1       2.635  12.275  17.461  0.00  0.00    +0.000 OA
ATOM     20  H   UNL     1       3.147  12.964  17.003  0.00  0.00    +0.000 HD
ENDBRANCH   2  19
BRANCH   1  21
ATOM     21  C   UNL     1       3.873  14.693  18.750  0.00  0.00    +0.000 C 
BRANCH  21  23
ATOM     22  C   UNL     1       2.716  16.821  17.299  0.00  0.00    +0.000 C 
ATOM     23  C   UNL     1       3.250  15.838  17.969  0.00  0.00    +0.000 C 
ENDBRANCH  21  23
ENDBRANCH   1  21
BRANCH   3  24
ATOM     24  C   UNL     1       0.519  10.885  18.584  0.00  0.00    +0.000 C 
BRANCH  24  25
ATOM     25  C   UNL     1       1.248   9.590  18.933  0.00  0.00    +0.000 A 
ATOM     26  C   UNL     1       1.141   9.036  20.219  0.00  0.00    +0.000 A 
ATOM     27  C   UNL     1       1.672   7.774  20.504  0.00  0.00    +0.000 A 
ATOM     28  C   UNL     1       2.313   7.052  19.506  0.00  0.00    +0.000 A 
ATOM     29  F   UNL     1       2.778   5.823  19.772  0.00  0.00    +0.000 F 
ATOM     30  C   UNL     1       2.463   7.584  18.230  0.00  0.00    +0.000 A 
ATOM     31  C   UNL     1       1.934   8.851  17.946  0.00  0.00    +0.000 A 
ENDBRANCH  24  25
ENDBRANCH   3  24
TORSDOF 5
ENDMDL
MODEL 2
REMARK VINA RESULT:      -6.8      2.999      4.683
REMARK  Name = 
REMARK  7 active torsions:
REMARK  status: ('A' for Active; 'I' for Inactive)
REMARK    1  A    between atoms: C_2  and  C_3
REMARK    2  A    between atoms: C_3  and  C_4
REMARK    3  A    between atoms: C_5  and  O_6
REMARK    4  A    between atoms: N_7  and  C_8
REMARK    5  A    between atoms: C_8  and  C_9
REMARK    6  A    between atoms: N_22  and  C_23
REMARK    7  A    between atoms: N_26  and  C_27
REMARK                            x       y       z     vdW  Elec       q    Type
REMARK                         _______ _______ _______ _____ _____    ______ ____
ROOT
ATOM      1  C   UNL     1      -2.948  10.635  17.801  0.00  0.00    +0.000 A 
ATOM      2  C   UNL     1      -1.598  10.547  17.853  0.00  0.00    +0.000 A 
ATOM      3  N   UNL     1      -0.814  11.303  18.728  0.00  0.00    +0.000 N 
ATOM      4  C   UNL     1      -1.420  12.053  19.715  0.00  0.00    +0.000 A 
ATOM      5  N   UNL     1      -0.932  12.768  20.724  0.00  0.00    +0.000 NA
ATOM      6  C   UNL     1      -2.036  13.265  21.378  0.00  0.00    +0.000 A 
ATOM      7  C   UNL     1      -3.190  12.840  20.797  0.00  0.00    +0.000 A 
ATOM      8  C   UNL     1      -4.480  13.079  21.339  0.00  0.00    +0.000 A 
ATOM      9  O   UNL     1      -5.488  12.459  21.021  0.00  0.00    +0.000 OA
ATOM     10  N   UNL     1      -4.471  14.033  22.352  0.00  0.00    +0.000 N 
ATOM     11  C   UNL     1      -5.754  14.433  22.903  0.00  0.00    +0.000 C 
ATOM     12  C   UNL     1      -3.320  14.483  23.014  0.00  0.00    +0.000 A 
ATOM     13  O   UNL     1      -3.412  15.205  24.012  0.00  0.00    +0.000 OA
ATOM     14  N   UNL     1      -2.079  14.059  22.511  0.00  0.00    +0.000 N 
ATOM     15  C   UNL     1      -0.869  14.473  23.195  0.00  0.00    +0.000 C 
ATOM     16  N   UNL     1      -2.808  12.139  19.689  0.00  0.00    +0.000 N 
ATOM     17  C   UNL     1      -3.606  11.618  18.683  0.00  0.00    +0.000 A 
ATOM     18  O   UNL     1      -4.768  11.973  18.556  0.00  0.00    +0.000 OA
ENDROOT
BRANCH   2  19
ATOM     19  O   UNL     1      -0.912   9.682  17.019  0.00  0.00    +0.000 OA
ATOM     20  H   UNL     1      -0.959  10.009  16.104  0.00  0.00    +0.000 HD
ENDBRANCH   2  19
BRANCH   1  21
ATOM     21  C   UNL     1      -3.913   9.873  16.960  0.00  0.00    +0.000 C 
BRANCH  21  23
ATOM     22  C   UNL     1      -3.103  10.229  14.279  0.00  0.00    +0.000 C 
ATOM     23  C   UNL     1      -3.477  10.065  15.517  0.00  0.00    +0.000 C 
ENDBRANCH  21  23
ENDBRANCH   1  21
BRANCH   3  24
ATOM     24  C   UNL     1       0.663  11.214  18.706  0.00  0.00    +0.000 C 
BRANCH  24  25
ATOM     25  C   UNL     1       1.223   9.881  19.197  0.00  0.00    +0.000 A 
ATOM     26  C   UNL     1       0.904   9.403  20.479  0.00  0.00    +0.000 A 
ATOM     27  C   UNL     1       1.279   8.117  20.880  0.00  0.00    +0.000 A 
ATOM     28  C   UNL     1       1.973   7.294  20.003  0.00  0.00    +0.000 A 
ATOM     29  F   UNL     1       2.288   6.045  20.374  0.00  0.00    +0.000 F 
ATOM     30  C   UNL     1       2.330   7.747  18.737  0.00  0.00    +0.000 A 
ATOM     31  C   UNL     1       1.959   9.039  18.338  0.00  0.00    +0.000 A 
ENDBRANCH  24  25
ENDBRANCH   3  24
TORSDOF 5
ENDMDL
MODEL 3
REMARK VINA RESULT:      -6.2      3.300      5.112
REMARK  Name = 
REMARK  7 active torsions:
REMARK  status: ('A' for Active; 'I' for Inactive)
REMARK    1  A    between atoms: C_2  and  C_3
REMARK    2  A    between atoms: C_3  and  C_4
REMARK    3  A    between atoms: C_5  and  O_6
REMARK    4  A    between atoms: N_7  and  C_8
REMARK    5  A    between atoms: C_8  and  C_9
REMARK    6  A    between atoms: N_22  and  C_23
REMARK    7  A    between atoms: N_26  and  C_27
REMARK                            x       y       z     vdW  Elec       q    Type
REMARK                         _______ _______ _______ _____ _____    ______ ____
ROOT
ATOM      1  C   UNL     1      -1.084  13.540  22.290  0.00  0.00    +0.000 A 
ATOM      2  C   UNL     1      -0.154  13.211  21.363  0.00  0.00    +0.000 A 
ATOM      3  N   UNL     1      -0.464  12.568  20.162  0.00  0.00    +0.000 N 
ATOM      4  C   UNL     1      -1.784  12.403  19.795  0.00  0.00    +0.000 A 
ATOM      5  N   UNL     1      -2.355  11.933  18.691  0.00  0.00    +0.000 NA
ATOM      6  C   UNL     1      -3.709  12.045  18.912  0.00  0.00    +0.000 A 
ATOM      7  C   UNL     1      -3.969  12.602  20.125  0.00  0.00    +0.000 A 
ATOM      8  C   UNL     1      -5.270  12.967  20.562  0.00  0.00    +0.000 A 
ATOM      9  O   UNL     1      -5.496  13.737  21.488  0.00  0.00    +0.000 OA
ATOM     10  N   UNL     1      -6.277  12.436  19.762  0.00  0.00    +0.000 N 
ATOM     11  C   UNL     1      -7.649  12.658  20.182  0.00  0.00    +0.000 C 
ATOM     12  C   UNL     1      -6.077  11.882  18.489  0.00  0.00    +0.000 A 
ATOM     13  O   UNL     1      -7.039  11.585  17.776  0.00  0.00    +0.000 OA
ATOM     14  N   UNL     1      -4.749  11.711  18.062  0.00  0.00    +0.000 N 
ATOM     15  C   UNL     1      -4.505  11.179  16.735  0.00  0.00    +0.000 C 
ATOM     16  N   UNL     1      -2.754  12.755  20.728  0.00  0.00    +0.000 N 
ATOM     17  C   UNL     1      -2.483  13.150  22.028  0.00  0.00    +0.000 A 
ATOM     18  O   UNL     1      -3.359  13.158  22.878  0.00  0.00    +0.000 OA
ENDROOT
BRANCH   2  19
ATOM     19  O   UNL     1       1.183  13.502  21.566  0.00  0.00    +0.000 OA
ATOM     20  H   UNL     1       1.282  14.449  21.765  0.00  0.00    +0.000 HD
ENDBRANCH   2  19
BRANCH   1  21
ATOM     21  C   UNL     1      -0.914  14.256  23.585  0.00  0.00    +0.000 C 
BRANCH  21  23
ATOM     22  C   UNL     1      -0.959  17.017  22.994  0.00  0.00    +0.000 C 
ATOM     23  C   UNL     1      -0.938  15.742  23.267  0.00  0.00    +0.000 C 
ENDBRANCH  21  23
ENDBRANCH   1  21
BRANCH   3  24
ATOM     24  C   UNL     1       0.595  12.176  19.206  0.00  0.00    +0.000 C 
BRANCH  24  25
ATOM     25  C   UNL     1       1.094  10.742  19.371  0.00  0.00    +0.000 A 
ATOM     26  C   UNL     1       0.879  10.046  20.572  0.00  0.00    +0.000 A 
ATOM     27  C   UNL     1       1.188   8.686  20.679  0.00  0.00    +0.000 A 
ATOM     28  C   UNL     1       1.712   8.008  19.587  0.00  0.00    +0.000 A 
ATOM     29  F   UNL     1       1.961   6.694  19.681  0.00  0.00    +0.000 F 
ATOM     30  C   UNL     1       1.964   8.673  18.392  0.00  0.00    +0.000 A 
ATOM     31  C   UNL     1       1.659  10.038  18.287  0.00  0.00    +0.000 A 
ENDBRANCH  24  25
ENDBRANCH   3  24
TORSDOF 5
ENDMDL
MODEL 4
REMARK VINA RESULT:      -6.2      3.411      5.449
REMARK  Name = 
REMARK  7 active torsions:
REMARK  status: ('A' for Active; 'I' for Inactive)
REMARK    1  A    between atoms: C_2  and  C_3
REMARK    2  A    between atoms: C_3  and  C_4
REMARK    3  A    between atoms: C_5  and  O_6
REMARK    4  A    between atoms: N_7  and  C_8
REMARK    5  A    between atoms: C_8  and  C_9
REMARK    6  A    between atoms: N_22  and  C_23
REMARK    7  A    between atoms: N_26  and  C_27
REMARK                            x       y       z     vdW  Elec       q    Type
REMARK                         _______ _______ _______ _____ _____    ______ ____
ROOT
ATOM      1  C   UNL     1      -4.220  11.724  18.445  0.00  0.00    +0.000 A 
ATOM      2  C   UNL     1      -2.886  11.501  18.387  0.00  0.00    +0.000 A 
ATOM      3  N   UNL     1      -1.971  12.100  19.257  0.00  0.00    +0.000 N 
ATOM      4  C   UNL     1      -2.428  12.820  20.342  0.00  0.00    +0.000 A 
ATOM      5  N   UNL     1      -1.803  13.396  21.363  0.00  0.00    +0.000 NA
ATOM      6  C   UNL     1      -2.803  13.940  22.136  0.00  0.00    +0.000 A 
ATOM      7  C   UNL     1      -4.032  13.679  21.613  0.00  0.00    +0.000 A 
ATOM      8  C   UNL     1      -5.251  13.995  22.268  0.00  0.00    +0.000 A 
ATOM      9  O   UNL     1      -6.336  13.505  21.980  0.00  0.00    +0.000 OA
ATOM     10  N   UNL     1      -5.075  14.854  23.349  0.00  0.00    +0.000 N 
ATOM     11  C   UNL     1      -6.270  15.328  24.024  0.00  0.00    +0.000 C 
ATOM     12  C   UNL     1      -3.842  15.133  23.955  0.00  0.00    +0.000 A 
ATOM     13  O   UNL     1      -3.792  15.773  25.009  0.00  0.00    +0.000 OA
ATOM     14  N   UNL     1      -2.688  14.635  23.327  0.00  0.00    +0.000 N 
ATOM     15  C   UNL     1      -1.398  14.871  23.947  0.00  0.00    +0.000 C 
ATOM     16  N   UNL     1      -3.800  13.041  20.428  0.00  0.00    +0.000 N 
ATOM     17  C   UNL     1      -4.713  12.687  19.448  0.00  0.00    +0.000 A 
ATOM     18  O   UNL     1      -5.838  13.162  19.437  0.00  0.00    +0.000 OA
ENDROOT
BRANCH   2  19
ATOM     19  O   UNL     1      -2.351  10.648  17.439  0.00  0.00    +0.000 OA
ATOM     20  H   UNL     1      -3.065  10.134  17.026  0.00  0.00    +0.000 HD
ENDBRANCH   2  19
BRANCH   1  21
ATOM     21  C   UNL     1      -5.313  11.132  17.623  0.00  0.00    +0.000 C 
BRANCH  21  23
ATOM     22  C   UNL     1      -6.945   9.656  19.392  0.00  0.00    +0.000 C 
ATOM     23  C   UNL     1      -6.191  10.338  18.575  0.00  0.00    +0.000 C 
ENDBRANCH  21  23
ENDBRANCH   1  21
BRANCH   3  24
ATOM     24  C   UNL     1      -0.516  11.872  19.116  0.00  0.00    +0.000 C 
BRANCH  24  25
ATOM     25  C   UNL     1      -0.039  10.512  19.622  0.00  0.00    +0.000 A 
ATOM     26  C   UNL     1       0.896   9.766  18.885  0.00  0.00    +0.000 A 
ATOM     27  C   UNL     1       1.458   8.599  19.412  0.00  0.00    +0.000 A 
ATOM     28  C   UNL     1       1.096   8.168  20.680  0.00  0.00    +0.000 A 
ATOM     29  F   UNL     1       1.673   7.075  21.200  0.00  0.00    +0.000 F 
ATOM     30  C   UNL     1       0.151   8.867  21.424  0.00  0.00    +0.000 A 
ATOM     31  C   UNL     1      -0.417  10.035  20.894  0.00  0.00    +0.000 A 
ENDBRANCH  24  25
ENDBRANCH   3  24
TORSDOF 5
ENDMDL
MODEL 5
REMARK VINA RESULT:      -6.2      3.263      6.606
REMARK  Name = 
REMARK  7 active torsions:
REMARK  status: ('A' for Active; 'I' for Inactive)
REMARK    1  A    between atoms: C_2  and  C_3
REMARK    2  A    between atoms: C_3  and  C_4
REMARK    3  A    between atoms: C_5  and  O_6
REMARK    4  A    between atoms: N_7  and  C_8
REMARK    5  A    between atoms: C_8  and  C_9
REMARK    6  A    between atoms: N_22  and  C_23
REMARK    7  A    between atoms: N_26  and  C_27
REMARK                            x       y       z     vdW  Elec       q    Type
REMARK                         _______ _______ _______ _____ _____    ______ ____
ROOT
ATOM      1  C   UNL     1      -0.673  15.219  19.722  0.00  0.00    +0.000 A 
ATOM      2  C   UNL     1      -1.130  15.446  20.976  0.00  0.00    +0.000 A 
ATOM      3  N   UNL     1      -1.288  14.435  21.928  0.00  0.00    +0.000 N 
ATOM      4  C   UNL     1      -0.803  13.169  21.670  0.00  0.00    +0.000 A 
ATOM      5  N   UNL     1      -0.723  12.071  22.413  0.00  0.00    +0.000 NA
ATOM      6  C   UNL     1      -0.118  11.135  21.606  0.00  0.00    +0.000 A 
ATOM      7  C   UNL     1       0.198  11.657  20.390  0.00  0.00    +0.000 A 
ATOM      8  C   UNL     1       0.954  10.966  19.408  0.00  0.00    +0.000 A 
ATOM      9  O   UNL     1       1.509  11.506  18.458  0.00  0.00    +0.000 OA
ATOM     10  N   UNL     1       1.088   9.609  19.686  0.00  0.00    +0.000 N 
ATOM     11  C   UNL     1       1.752   8.787  18.690  0.00  0.00    +0.000 C 
ATOM     12  C   UNL     1       0.816   9.018  20.928  0.00  0.00    +0.000 A 
ATOM     13  O   UNL     1       1.118   7.841  21.142  0.00  0.00    +0.000 OA
ATOM     14  N   UNL     1       0.216   9.826  21.909  0.00  0.00    +0.000 N 
ATOM     15  C   UNL     1      -0.043   9.259  23.218  0.00  0.00    +0.000 C 
ATOM     16  N   UNL     1      -0.310  12.925  20.391  0.00  0.00    +0.000 N 
ATOM     17  C   UNL     1      -0.378  13.825  19.340  0.00  0.00    +0.000 A 
ATOM     18  O   UNL     1      -0.207  13.459  18.188  0.00  0.00    +0.000 OA
ENDROOT
BRANCH   2  19
ATOM     19  O   UNL     1      -1.474  16.722  21.385  0.00  0.00    +0.000 OA
ATOM     20  H   UNL     1      -1.943  16.674  22.236  0.00  0.00    +0.000 HD
ENDBRANCH   2  19
BRANCH   1  21
ATOM     21  C   UNL     1      -0.415  16.190  18.621  0.00  0.00    +0.000 C 
BRANCH  21  23
ATOM     22  C   UNL     1       2.270  17.021  18.892  0.00  0.00    +0.000 C 
ATOM     23  C   UNL     1       1.030  16.637  18.767  0.00  0.00    +0.000 C 
ENDBRANCH  21  23
ENDBRANCH   1  21
BRANCH   3  24
ATOM     24  C   UNL     1      -1.848  14.724  23.267  0.00  0.00    +0.000 C 
BRANCH  24  25
ATOM     25  C   UNL     1      -3.265  14.198  23.485  0.00  0.00    +0.000 A 
ATOM     26  C   UNL     1      -4.303  14.565  22.614  0.00  0.00    +0.000 A 
ATOM     27  C   UNL     1      -5.564  13.968  22.708  0.00  0.00    +0.000 A 
ATOM     28  C   UNL     1      -5.800  12.997  23.671  0.00  0.00    +0.000 A 
ATOM     29  F   UNL     1      -6.996  12.394  23.726  0.00  0.00    +0.000 F 
ATOM     30  C   UNL     1      -4.803  12.632  24.569  0.00  0.00    +0.000 A 
ATOM     31  C   UNL     1      -3.539  13.234  24.478  0.00  0.00    +0.000 A 
ENDBRANCH  24  25
ENDBRANCH   3  24
TORSDOF 5
ENDMDL
MODEL 6
REMARK VINA RESULT:      -6.1      3.303      6.158
REMARK  Name = 
REMARK  7 active torsions:
REMARK  status: ('A' for Active; 'I' for Inactive)
REMARK    1  A    between atoms: C_2  and  C_3
REMARK    2  A    between atoms: C_3  and  C_4
REMARK    3  A    between atoms: C_5  and  O_6
REMARK    4  A    between atoms: N_7  and  C_8
REMARK    5  A    between atoms: C_8  and  C_9
REMARK    6  A    between atoms: N_22  and  C_23
REMARK    7  A    between atoms: N_26  and  C_27
REMARK                            x       y       z     vdW  Elec       q    Type
REMARK                         _______ _______ _______ _____ _____    ______ ____
ROOT
ATOM      1  C   UNL     1       0.337  10.962  18.625  0.00  0.00    +0.000 A 
ATOM      2  C   UNL     1      -0.974  11.151  18.905  0.00  0.00    +0.000 A 
ATOM      3  N   UNL     1      -1.497  12.375  19.332  0.00  0.00    +0.000 N 
ATOM      4  C   UNL     1      -0.703  13.503  19.312  0.00  0.00    +0.000 A 
ATOM      5  N   UNL     1      -0.958  14.783  19.558  0.00  0.00    +0.000 NA
ATOM      6  C   UNL     1       0.235  15.435  19.347  0.00  0.00    +0.000 A 
ATOM      7  C   UNL     1       1.208  14.572  18.949  0.00  0.00    +0.000 A 
ATOM      8  C   UNL     1       2.500  14.981  18.526  0.00  0.00    +0.000 A 
ATOM      9  O   UNL     1       3.269  14.278  17.881  0.00  0.00    +0.000 OA
ATOM     10  N   UNL     1       2.773  16.310  18.834  0.00  0.00    +0.000 N 
ATOM     11  C   UNL     1       4.108  16.801  18.542  0.00  0.00    +0.000 C 
ATOM     12  C   UNL     1       1.810  17.255  19.213  0.00  0.00    +0.000 A 
ATOM     13  O   UNL     1       2.107  18.450  19.308  0.00  0.00    +0.000 OA
ATOM     14  N   UNL     1       0.506  16.788  19.450  0.00  0.00    +0.000 N 
ATOM     15  C   UNL     1      -0.525  17.744  19.805  0.00  0.00    +0.000 C 
ATOM     16  N   UNL     1       0.644  13.329  19.006  0.00  0.00    +0.000 N 
ATOM     17  C   UNL     1       1.255  12.098  18.833  0.00  0.00    +0.000 A 
ATOM     18  O   UNL     1       2.471  11.991  18.863  0.00  0.00    +0.000 OA
ENDROOT
BRANCH   2  19
ATOM     19  O   UNL     1      -1.882  10.116  18.779  0.00  0.00    +0.000 OA
ATOM     20  H   UNL     1      -2.025   9.922  17.837  0.00  0.00    +0.000 HD
ENDBRANCH   2  19
BRANCH   1  21
ATOM     21  C   UNL     1       1.029   9.741  18.125  0.00  0.00    +0.000 C 
BRANCH  21  23
ATOM     22  C   UNL     1       1.608   8.157  20.389  0.00  0.00    +0.000 C 
ATOM     23  C   UNL     1       1.340   8.889  19.343  0.00  0.00    +0.000 C 
ENDBRANCH  21  23
ENDBRANCH   1  21
BRANCH   3  24
ATOM     24  C   UNL     1      -2.927  12.517  19.683  0.00  0.00    +0.000 C 
BRANCH  24  25
ATOM     25  C   UNL     1      -3.202  12.616  21.182  0.00  0.00    +0.000 A 
ATOM     26  C   UNL     1      -4.450  13.060  21.650  0.00  0.00    +0.000 A 
ATOM     27  C   UNL     1      -4.768  13.005  23.010  0.00  0.00    +0.000 A 
ATOM     28  C   UNL     1      -3.844  12.504  23.917  0.00  0.00    +0.000 A 
ATOM     29  F   UNL     1      -4.172  12.408  25.214  0.00  0.00    +0.000 F 
ATOM     30  C   UNL     1      -2.588  12.084  23.492  0.00  0.00    +0.000 A 
ATOM     31  C   UNL     1      -2.268  12.144  22.127  0.00  0.00    +0.000 A 
ENDBRANCH  24  25
ENDBRANCH   3  24
TORSDOF 5
ENDMDL
MODEL 7
REMARK VINA RESULT:      -6.1      4.158      6.232
REMARK  Name = 
REMARK  7 active torsions:
REMARK  status: ('A' for Active; 'I' for Inactive)
REMARK    1  A    between atoms: C_2  and  C_3
REMARK    2  A    between atoms: C_3  and  C_4
REMARK    3  A    between atoms: C_5  and  O_6
REMARK    4  A    between atoms: N_7  and  C_8
REMARK    5  A    between atoms: C_8  and  C_9
REMARK    6  A    between atoms: N_22  and  C_23
REMARK    7  A    between atoms: N_26  and  C_27
REMARK                            x       y       z     vdW  Elec       q    Type
REMARK                         _______ _______ _______ _____ _____    ______ ____
ROOT
ATOM      1  C   UNL     1      -2.658  10.400  18.010  0.00  0.00    +0.000 A 
ATOM      2  C   UNL     1      -1.465  10.640  18.603  0.00  0.00    +0.000 A 
ATOM      3  N   UNL     1      -1.256  11.686  19.506  0.00  0.00    +0.000 N 
ATOM      4  C   UNL     1      -2.331  12.417  19.968  0.00  0.00    +0.000 A 
ATOM      5  N   UNL     1      -2.437  13.374  20.883  0.00  0.00    +0.000 NA
ATOM      6  C   UNL     1      -3.774  13.694  20.916  0.00  0.00    +0.000 A 
ATOM      7  C   UNL     1      -4.490  12.924  20.051  0.00  0.00    +0.000 A 
ATOM      8  C   UNL     1      -5.907  12.936  19.973  0.00  0.00    +0.000 A 
ATOM      9  O   UNL     1      -6.576  12.054  19.446  0.00  0.00    +0.000 OA
ATOM     10  N   UNL     1      -6.476  14.010  20.649  0.00  0.00    +0.000 N 
ATOM     11  C   UNL     1      -7.915  14.178  20.543  0.00  0.00    +0.000 C 
ATOM     12  C   UNL     1      -5.802  14.816  21.579  0.00  0.00    +0.000 A 
ATOM     13  O   UNL     1      -6.421  15.642  22.257  0.00  0.00    +0.000 OA
ATOM     14  N   UNL     1      -4.418  14.621  21.717  0.00  0.00    +0.000 N 
ATOM     15  C   UNL     1      -3.696  15.409  22.697  0.00  0.00    +0.000 C 
ATOM     16  N   UNL     1      -3.569  12.169  19.383  0.00  0.00    +0.000 N 
ATOM     17  C   UNL     1      -3.769  11.326  18.302  0.00  0.00    +0.000 A 
ATOM     18  O   UNL     1      -4.802  11.373  17.652  0.00  0.00    +0.000 OA
ENDROOT
BRANCH   2  19
ATOM     19  O   UNL     1      -0.368   9.842  18.336  0.00  0.00    +0.000 OA
ATOM     20  H   UNL     1      -0.334   9.113  18.979  0.00  0.00    +0.000 HD
ENDBRANCH   2  19
BRANCH   1  21
ATOM     21  C   UNL     1      -3.043   9.311  17.068  0.00  0.00    +0.000 C 
BRANCH  21  23
ATOM     22  C   UNL     1      -2.950  10.418  14.473  0.00  0.00    +0.000 C 
ATOM     23  C   UNL     1      -2.992   9.907  15.671  0.00  0.00    +0.000 C 
ENDBRANCH  21  23
ENDBRANCH   1  21
BRANCH   3  24
ATOM     24  C   UNL     1       0.082  11.944  20.083  0.00  0.00    +0.000 C 
BRANCH  24  25
ATOM     25  C   UNL     1       0.928  12.941  19.294  0.00  0.00    +0.000 A 
ATOM     26  C   UNL     1       0.601  14.307  19.289  0.00  0.00    +0.000 A 
ATOM     27  C   UNL     1       1.454  15.248  18.704  0.00  0.00    +0.000 A 
ATOM     28  C   UNL     1       2.644  14.834  18.120  0.00  0.00    +0.000 A 
ATOM     29  F   UNL     1       3.481  15.745  17.603  0.00  0.00    +0.000 F 
ATOM     30  C   UNL     1       2.984  13.486  18.081  0.00  0.00    +0.000 A 
ATOM     31  C   UNL     1       2.125  12.542  18.663  0.00  0.00    +0.000 A 
ENDBRANCH  24  25
ENDBRANCH   3  24
TORSDOF 5
ENDMDL
MODEL 8
REMARK VINA RESULT:      -6.1      3.497      5.748
REMARK  Name = 
REMARK  7 active torsions:
REMARK  status: ('A' for Active; 'I' for Inactive)
REMARK    1  A    between atoms: C_2  and  C_3
REMARK    2  A    between atoms: C_3  and  C_4
REMARK    3  A    between atoms: C_5  and  O_6
REMARK    4  A    between atoms: N_7  and  C_8
REMARK    5  A    between atoms: C_8  and  C_9
REMARK    6  A    between atoms: N_22  and  C_23
REMARK    7  A    between atoms: N_26  and  C_27
REMARK                            x       y       z     vdW  Elec       q    Type
REMARK                         _______ _______ _______ _____ _____    ______ ____
ROOT
ATOM      1  C   UNL     1      -1.651  11.251  18.930  0.00  0.00    +0.000 A 
ATOM      2  C   UNL     1      -0.370  11.656  19.095  0.00  0.00    +0.000 A 
ATOM      3  N   UNL     1      -0.002  12.708  19.938  0.00  0.00    +0.000 N 
ATOM      4  C   UNL     1      -0.937  13.266  20.785  0.00  0.00    +0.000 A 
ATOM      5  N   UNL     1      -0.846  14.183  21.742  0.00  0.00    +0.000 NA
ATOM      6  C   UNL     1      -2.120  14.301  22.249  0.00  0.00    +0.000 A 
ATOM      7  C   UNL     1      -2.980  13.447  21.632  0.00  0.00    +0.000 A 
ATOM      8  C   UNL     1      -4.325  13.250  22.043  0.00  0.00    +0.000 A 
ATOM      9  O   UNL     1      -5.011  12.287  21.720  0.00  0.00    +0.000 OA
ATOM     10  N   UNL     1      -4.763  14.219  22.941  0.00  0.00    +0.000 N 
ATOM     11  C   UNL     1      -6.157  14.174  23.342  0.00  0.00    +0.000 C 
ATOM     12  C   UNL     1      -3.922  15.101  23.635  0.00  0.00    +0.000 A 
ATOM     13  O   UNL     1      -4.372  15.817  24.535  0.00  0.00    +0.000 OA
ATOM     14  N   UNL     1      -2.563  15.112  23.279  0.00  0.00    +0.000 N 
ATOM     15  C   UNL     1      -1.658  15.983  24.004  0.00  0.00    +0.000 C 
ATOM     16  N   UNL     1      -2.257  12.846  20.643  0.00  0.00    +0.000 N 
ATOM     17  C   UNL     1      -2.705  11.998  19.643  0.00  0.00    +0.000 A 
ATOM     18  O   UNL     1      -3.895  11.902  19.388  0.00  0.00    +0.000 OA
ENDROOT
BRANCH   2  19
ATOM     19  O   UNL     1       0.663  11.032  18.419  0.00  0.00    +0.000 OA
ATOM     20  H   UNL     1       0.401  10.124  18.193  0.00  0.00    +0.000 HD
ENDBRANCH   2  19
BRANCH   1  21
ATOM     21  C   UNL     1      -2.189  10.131  18.108  0.00  0.00    +0.000 C 
BRANCH  21  23
ATOM     22  C   UNL     1      -2.829  11.218  15.582  0.00  0.00    +0.000 C 
ATOM     23  C   UNL     1      -2.533  10.716  16.748  0.00  0.00    +0.000 C 
ENDBRANCH  21  23
ENDBRANCH   1  21
BRANCH   3  24
ATOM     24  C   UNL     1       1.406  13.152  20.040  0.00  0.00    +0.000 C 
BRANCH  24  25
ATOM     25  C   UNL     1       1.785  14.273  19.074  0.00  0.00    +0.000 A 
ATOM     26  C   UNL     1       1.087  15.491  19.086  0.00  0.00    +0.000 A 
ATOM     27  C   UNL     1       1.523  16.577  18.321  0.00  0.00    +0.000 A 
ATOM     28  C   UNL     1       2.664  16.458  17.538  0.00  0.00    +0.000 A 
ATOM     29  F   UNL     1       3.105  17.516  16.844  0.00  0.00    +0.000 F 
ATOM     30  C   UNL     1       3.362  15.256  17.481  0.00  0.00    +0.000 A 
ATOM     31  C   UNL     1       2.921  14.166  18.244  0.00  0.00    +0.000 A 
ENDBRANCH  24  25
ENDBRANCH   3  24
TORSDOF 5
ENDMDL
MODEL 9
REMARK VINA RESULT:      -6.0      3.179      4.688
REMARK  Name = 
REMARK  7 active torsions:
REMARK  status: ('A' for Active; 'I' for Inactive)
REMARK    1  A    between atoms: C_2  and  C_3
REMARK    2  A    between atoms: C_3  and  C_4
REMARK    3  A    between atoms: C_5  and  O_6
REMARK    4  A    between atoms: N_7  and  C_8
REMARK    5  A    between atoms: C_8  and  C_9
REMARK    6  A    between atoms: N_22  and  C_23
REMARK    7  A    between atoms: N_26  and  C_27
REMARK                            x       y       z     vdW  Elec       q    Type
REMARK                         _______ _______ _______ _____ _____    ______ ____
ROOT
ATOM      1  C   UNL     1      -0.314  13.586  21.516  0.00  0.00    +0.000 A 
ATOM      2  C   UNL     1       0.503  13.024  20.593  0.00  0.00    +0.000 A 
ATOM      3  N   UNL     1       0.040  12.213  19.554  0.00  0.00    +0.000 N 
ATOM      4  C   UNL     1      -1.316  12.099  19.326  0.00  0.00    +0.000 A 
ATOM      5  N   UNL     1      -2.017  11.496  18.372  0.00  0.00    +0.000 NA
ATOM      6  C   UNL     1      -3.333  11.758  18.673  0.00  0.00    +0.000 A 
ATOM      7  C   UNL     1      -3.443  12.537  19.783  0.00  0.00    +0.000 A 
ATOM      8  C   UNL     1      -4.669  13.080  20.247  0.00  0.00    +0.000 A 
ATOM      9  O   UNL     1      -4.756  14.014  21.035  0.00  0.00    +0.000 OA
ATOM     10  N   UNL     1      -5.780  12.506  19.635  0.00  0.00    +0.000 N 
ATOM     11  C   UNL     1      -7.089  12.912  20.114  0.00  0.00    +0.000 C 
ATOM     12  C   UNL     1      -5.735  11.726  18.470  0.00  0.00    +0.000 A 
ATOM     13  O   UNL     1      -6.777  11.393  17.899  0.00  0.00    +0.000 OA
ATOM     14  N   UNL     1      -4.467  11.372  17.979  0.00  0.00    +0.000 N 
ATOM     15  C   UNL     1      -4.383  10.601  16.755  0.00  0.00    +0.000 C 
ATOM     16  N   UNL     1      -2.170  12.688  20.254  0.00  0.00    +0.000 N 
ATOM     17  C   UNL     1      -1.754  13.276  21.437  0.00  0.00    +0.000 A 
ATOM     18  O   UNL     1      -2.547  13.505  22.337  0.00  0.00    +0.000 OA
ENDROOT
BRANCH   2  19
ATOM     19  O   UNL     1       1.870  13.232  20.637  0.00  0.00    +0.000 OA
ATOM     20  H   UNL     1       2.078  14.099  20.249  0.00  0.00    +0.000 HD
ENDBRANCH   2  19
BRANCH   1  21
ATOM     21  C   UNL     1       0.023  14.497  22.645  0.00  0.00    +0.000 C 
BRANCH  21  23
ATOM     22  C   UNL     1       0.044  17.116  21.590  0.00  0.00    +0.000 C 
ATOM     23  C   UNL     1       0.034  15.907  22.077  0.00  0.00    +0.000 C 
ENDBRANCH  21  23
ENDBRANCH   1  21
BRANCH   3  24
ATOM     24  C   UNL     1       0.978  11.573  18.605  0.00  0.00    +0.000 C 
BRANCH  24  25
ATOM     25  C   UNL     1       1.265  10.102  18.896  0.00  0.00    +0.000 A 
ATOM     26  C   UNL     1       1.932   9.305  17.950  0.00  0.00    +0.000 A 
ATOM     27  C   UNL     1       2.341   8.006  18.266  0.00  0.00    +0.000 A 
ATOM     28  C   UNL     1       2.089   7.490  19.530  0.00  0.00    +0.000 A 
ATOM     29  F   UNL     1       2.525   6.261  19.843  0.00  0.00    +0.000 F 
ATOM     30  C   UNL     1       1.405   8.241  20.480  0.00  0.00    +0.000 A 
ATOM     31  C   UNL     1       0.991   9.542  20.161  0.00  0.00    +0.000 A 
ENDBRANCH  24  25
ENDBRANCH   3  24
TORSDOF 5
ENDMDL
