MODEL 1
REMARK VINA RESULT:      -6.4      0.000      0.000
REMARK  Name = 
REMARK  9 active torsions:
REMARK  status: ('A' for Active; 'I' for Inactive)
REMARK    1  A    between atoms: P_2  and  O_3
REMARK    2  A    between atoms: P_2  and  O_4
REMARK    3  A    between atoms: P_2  and  C_5
REMARK    4  A    between atoms: C_5  and  O_6
REMARK    5  A    between atoms: C_5  and  C_7
REMARK    6  A    between atoms: C_5  and  P_13
REMARK    7  A    between atoms: C_7  and  N_8
REMARK    8  A    between atoms: P_13  and  O_15
REMARK    9  A    between atoms: P_13  and  O_16
REMARK                            x       y       z     vdW  Elec       q    Type
REMARK                         _______ _______ _______ _____ _____    ______ ____
ROOT
ATOM      1  C   UNL     1       5.593   4.806  17.079  0.00  0.00    +0.000 C 
ENDROOT
BRANCH   1   3
ATOM      2  O   UNL     1       7.206   5.300  20.006  0.00  0.00    +0.000 OA
ATOM      3  P   UNL     1       6.467   5.074  18.665  0.00  0.00    +0.000 P 
BRANCH   3   4
ATOM      4  O   UNL     1       7.773   4.243  18.101  0.00  0.00    +0.000 OA
ATOM      5  H   UNL     1       8.532   4.472  18.677  0.00  0.00    +0.000 HD
ENDBRANCH   3   4
BRANCH   3   6
ATOM      6  O   UNL     1       5.770   3.689  19.253  0.00  0.00    +0.000 OA
ATOM      7  H   UNL     1       4.909   3.969  19.636  0.00  0.00    +0.000 HD
ENDBRANCH   3   6
ENDBRANCH   1   3
BRANCH   1   8
ATOM      8  O   UNL     1       5.151   3.403  17.001  0.00  0.00    +0.000 OA
ATOM      9  H   UNL     1       5.994   2.908  16.898  0.00  0.00    +0.000 HD
ENDBRANCH   1   8
BRANCH   1  10
ATOM     10  P   UNL     1       6.732   5.153  15.689  0.00  0.00    +0.000 P 
ATOM     11  O   UNL     1       5.597   5.752  14.853  0.00  0.00    +0.000 OA
BRANCH  10  12
ATOM     12  O   UNL     1       7.504   6.373  16.454  0.00  0.00    +0.000 OA
ATOM     13  H   UNL     1       7.135   6.537  17.344  0.00  0.00    +0.000 HD
ENDBRANCH  10  12
BRANCH  10  14
ATOM     14  O   UNL     1       7.809   5.480  14.376  0.00  0.00    +0.000 OA
ATOM     15  H   UNL     1       8.700   5.363  14.766  0.00  0.00    +0.000 HD
ENDBRANCH  10  14
ENDBRANCH   1  10
BRANCH   1  16
ATOM     16  C   UNL     1       4.344   5.677  16.995  0.00  0.00    +0.000 C 
BRANCH  16  17
ATOM     17  N   UNL     1       3.419   5.402  18.083  0.00  0.00    +0.000 N 
ATOM     18  C   UNL     1       3.137   6.207  19.154  0.00  0.00    +0.000 A 
ATOM     19  C   UNL     1       2.238   5.501  19.926  0.00  0.00    +0.000 A 
ATOM     20  C   UNL     1       2.045   4.295  19.234  0.00  0.00    +0.000 A 
ATOM     21  N   UNL     1       2.769   4.230  18.106  0.00  0.00    +0.000 NA
ENDBRANCH  16  17
ENDBRANCH   1  16
TORSDOF 9
ENDMDL
MODEL 2
REMARK VINA RESULT:      -6.3      1.129      1.621
REMARK  Name = 
REMARK  9 active torsions:
REMARK  status: ('A' for Active; 'I' for Inactive)
REMARK    1  A    between atoms: P_2  and  O_3
REMARK    2  A    between atoms: P_2  and  O_4
REMARK    3  A    between atoms: P_2  and  C_5
REMARK    4  A    between atoms: C_5  and  O_6
REMARK    5  A    between atoms: C_5  and  C_7
REMARK    6  A    between atoms: C_5  and  P_13
REMARK    7  A    between atoms: C_7  and  N_8
REMARK    8  A    between atoms: P_13  and  O_15
REMARK    9  A    between atoms: P_13  and  O_16
REMARK                            x       y       z     vdW  Elec       q    Type
REMARK                         _______ _______ _______ _____ _____    ______ ____
ROOT
ATOM      1  C   UNL     1       5.562   4.918  17.377  0.00  0.00    +0.000 C 
ENDROOT
BRANCH   1   3
ATOM      2  O   UNL     1       8.204   6.294  18.970  0.00  0.00    +0.000 OA
ATOM      3  P   UNL     1       6.993   5.664  18.240  0.00  0.00    +0.000 P 
BRANCH   3   4
ATOM      4  O   UNL     1       7.844   4.263  18.068  0.00  0.00    +0.000 OA
ATOM      5  H   UNL     1       8.737   4.420  18.441  0.00  0.00    +0.000 HD
ENDBRANCH   3   4
BRANCH   3   6
ATOM      6  O   UNL     1       6.351   5.162  19.684  0.00  0.00    +0.000 OA
ATOM      7  H   UNL     1       5.534   5.693  19.809  0.00  0.00    +0.000 HD
ENDBRANCH   3   6
ENDBRANCH   1   3
BRANCH   1   8
ATOM      8  O   UNL     1       5.295   3.585  17.946  0.00  0.00    +0.000 OA
ATOM      9  H   UNL     1       5.650   3.657  18.860  0.00  0.00    +0.000 HD
ENDBRANCH   1   8
BRANCH   1  10
ATOM     10  P   UNL     1       5.948   4.742  15.597  0.00  0.00    +0.000 P 
ATOM     11  O   UNL     1       7.246   5.541  15.756  0.00  0.00    +0.000 OA
BRANCH  10  12
ATOM     12  O   UNL     1       6.309   3.152  15.698  0.00  0.00    +0.000 OA
ATOM     13  H   UNL     1       6.500   2.765  14.822  0.00  0.00    +0.000 HD
ENDBRANCH  10  12
BRANCH  10  14
ATOM     14  O   UNL     1       6.312   4.576  13.914  0.00  0.00    +0.000 OA
ATOM     15  H   UNL     1       5.534   4.967  13.465  0.00  0.00    +0.000 HD
ENDBRANCH  10  14
ENDBRANCH   1  10
BRANCH   1  16
ATOM     16  C   UNL     1       4.305   5.758  17.587  0.00  0.00    +0.000 C 
BRANCH  16  17
ATOM     17  N   UNL     1       3.271   5.015  18.288  0.00  0.00    +0.000 N 
ATOM     18  C   UNL     1       2.125   4.488  17.756  0.00  0.00    +0.000 A 
ATOM     19  C   UNL     1       1.450   3.916  18.814  0.00  0.00    +0.000 A 
ATOM     20  C   UNL     1       2.271   4.151  19.929  0.00  0.00    +0.000 A 
ATOM     21  N   UNL     1       3.386   4.826  19.610  0.00  0.00    +0.000 NA
ENDBRANCH  16  17
ENDBRANCH   1  16
TORSDOF 9
ENDMDL
MODEL 3
REMARK VINA RESULT:      -6.2      0.814      1.091
REMARK  Name = 
REMARK  9 active torsions:
REMARK  status: ('A' for Active; 'I' for Inactive)
REMARK    1  A    between atoms: P_2  and  O_3
REMARK    2  A    between atoms: P_2  and  O_4
REMARK    3  A    between atoms: P_2  and  C_5
REMARK    4  A    between atoms: C_5  and  O_6
REMARK    5  A    between atoms: C_5  and  C_7
REMARK    6  A    between atoms: C_5  and  P_13
REMARK    7  A    between atoms: C_7  and  N_8
REMARK    8  A    between atoms: P_13  and  O_15
REMARK    9  A    between atoms: P_13  and  O_16
REMARK                            x       y       z     vdW  Elec       q    Type
REMARK                         _______ _______ _______ _____ _____    ______ ____
ROOT
ATOM      1  C   UNL     1       5.380   4.618  17.126  0.00  0.00    +0.000 C 
ENDROOT
BRANCH   1   3
ATOM      2  O   UNL     1       6.979   5.307  20.021  0.00  0.00    +0.000 OA
ATOM      3  P   UNL     1       6.246   4.991  18.694  0.00  0.00    +0.000 P 
BRANCH   3   4
ATOM      4  O   UNL     1       7.615   4.274  18.124  0.00  0.00    +0.000 OA
ATOM      5  H   UNL     1       7.372   3.364  17.850  0.00  0.00    +0.000 HD
ENDBRANCH   3   4
BRANCH   3   6
ATOM      6  O   UNL     1       5.686   3.559  19.314  0.00  0.00    +0.000 OA
ATOM      7  H   UNL     1       4.997   3.806  19.970  0.00  0.00    +0.000 HD
ENDBRANCH   3   6
ENDBRANCH   1   3
BRANCH   1   8
ATOM      8  O   UNL     1       5.022   3.188  17.099  0.00  0.00    +0.000 OA
ATOM      9  H   UNL     1       4.471   3.080  17.907  0.00  0.00    +0.000 HD
ENDBRANCH   1   8
BRANCH   1  10
ATOM     10  P   UNL     1       6.487   4.984  15.715  0.00  0.00    +0.000 P 
ATOM     11  O   UNL     1       6.097   3.677  15.016  0.00  0.00    +0.000 OA
BRANCH  10  12
ATOM     12  O   UNL     1       5.548   6.182  15.121  0.00  0.00    +0.000 OA
ATOM     13  H   UNL     1       5.551   6.970  15.700  0.00  0.00    +0.000 HD
ENDBRANCH  10  12
BRANCH  10  14
ATOM     14  O   UNL     1       7.533   5.331  14.382  0.00  0.00    +0.000 OA
ATOM     15  H   UNL     1       7.549   4.495  13.871  0.00  0.00    +0.000 HD
ENDBRANCH  10  14
ENDBRANCH   1  10
BRANCH   1  16
ATOM     16  C   UNL     1       4.079   5.409  17.023  0.00  0.00    +0.000 C 
BRANCH  16  17
ATOM     17  N   UNL     1       3.005   4.784  17.777  0.00  0.00    +0.000 N 
ATOM     18  C   UNL     1       2.626   5.059  19.063  0.00  0.00    +0.000 A 
ATOM     19  C   UNL     1       1.596   4.186  19.346  0.00  0.00    +0.000 A 
ATOM     20  C   UNL     1       1.434   3.437  18.170  0.00  0.00    +0.000 A 
ATOM     21  N   UNL     1       2.296   3.798  17.208  0.00  0.00    +0.000 NA
ENDBRANCH  16  17
ENDBRANCH   1  16
TORSDOF 9
ENDMDL
MODEL 4
REMARK VINA RESULT:      -6.0      1.326      3.325
REMARK  Name = 
REMARK  9 active torsions:
REMARK  status: ('A' for Active; 'I' for Inactive)
REMARK    1  A    between atoms: P_2  and  O_3
REMARK    2  A    between atoms: P_2  and  O_4
REMARK    3  A    between atoms: P_2  and  C_5
REMARK    4  A    between atoms: C_5  and  O_6
REMARK    5  A    between atoms: C_5  and  C_7
REMARK    6  A    between atoms: C_5  and  P_13
REMARK    7  A    between atoms: C_7  and  N_8
REMARK    8  A    between atoms: P_13  and  O_15
REMARK    9  A    between atoms: P_13  and  O_16
REMARK                            x       y       z     vdW  Elec       q    Type
REMARK                         _______ _______ _______ _____ _____    ______ ____
ROOT
ATOM      1  C   UNL     1       5.715   5.233  17.516  0.00  0.00    +0.000 C 
ENDROOT
BRANCH   1   3
ATOM      2  O   UNL     1       6.739   5.269  14.297  0.00  0.00    +0.000 OA
ATOM      3  P   UNL     1       6.270   5.253  15.772  0.00  0.00    +0.000 P 
BRANCH   3   4
ATOM      4  O   UNL     1       7.527   6.240  16.169  0.00  0.00    +0.000 OA
ATOM      5  H   UNL     1       8.129   6.266  15.396  0.00  0.00    +0.000 HD
ENDBRANCH   3   4
BRANCH   3   6
ATOM      6  O   UNL     1       5.269   6.545  15.495  0.00  0.00    +0.000 OA
ATOM      7  H   UNL     1       5.213   7.024  16.351  0.00  0.00    +0.000 HD
ENDBRANCH   3   6
ENDBRANCH   1   3
BRANCH   1   8
ATOM      8  O   UNL     1       4.688   6.272  17.709  0.00  0.00    +0.000 OA
ATOM      9  H   UNL     1       4.343   6.417  16.800  0.00  0.00    +0.000 HD
ENDBRANCH   1   8
BRANCH   1  10
ATOM     10  P   UNL     1       7.138   5.587  18.612  0.00  0.00    +0.000 P 
ATOM     11  O   UNL     1       6.327   5.206  19.855  0.00  0.00    +0.000 OA
BRANCH  10  12
ATOM     12  O   UNL     1       7.995   4.279  18.139  0.00  0.00    +0.000 OA
ATOM     13  H   UNL     1       8.743   4.096  18.741  0.00  0.00    +0.000 HD
ENDBRANCH  10  12
BRANCH  10  14
ATOM     14  O   UNL     1       8.482   5.921  19.648  0.00  0.00    +0.000 OA
ATOM     15  H   UNL     1       9.239   5.497  19.196  0.00  0.00    +0.000 HD
ENDBRANCH  10  14
ENDBRANCH   1  10
BRANCH   1  16
ATOM     16  C   UNL     1       5.072   3.894  17.865  0.00  0.00    +0.000 C 
BRANCH  16  17
ATOM     17  N   UNL     1       3.640   4.022  18.079  0.00  0.00    +0.000 N 
ATOM     18  C   UNL     1       2.641   3.757  17.181  0.00  0.00    +0.000 A 
ATOM     19  C   UNL     1       1.464   4.065  17.829  0.00  0.00    +0.000 A 
ATOM     20  C   UNL     1       1.862   4.501  19.103  0.00  0.00    +0.000 A 
ATOM     21  N   UNL     1       3.194   4.478  19.258  0.00  0.00    +0.000 NA
ENDBRANCH  16  17
ENDBRANCH   1  16
TORSDOF 9
ENDMDL
MODEL 5
REMARK VINA RESULT:      -6.0      2.825      4.368
REMARK  Name = 
REMARK  9 active torsions:
REMARK  status: ('A' for Active; 'I' for Inactive)
REMARK    1  A    between atoms: P_2  and  O_3
REMARK    2  A    between atoms: P_2  and  O_4
REMARK    3  A    between atoms: P_2  and  C_5
REMARK    4  A    between atoms: C_5  and  O_6
REMARK    5  A    between atoms: C_5  and  C_7
REMARK    6  A    between atoms: C_5  and  P_13
REMARK    7  A    between atoms: C_7  and  N_8
REMARK    8  A    between atoms: P_13  and  O_15
REMARK    9  A    between atoms: P_13  and  O_16
REMARK                            x       y       z     vdW  Elec       q    Type
REMARK                         _______ _______ _______ _____ _____    ______ ____
ROOT
ATOM      1  C   UNL     1       5.954   4.951  17.211  0.00  0.00    +0.000 C 
ENDROOT
BRANCH   1   3
ATOM      2  O   UNL     1       3.386   4.158  19.257  0.00  0.00    +0.000 OA
ATOM      3  P   UNL     1       4.563   4.521  18.319  0.00  0.00    +0.000 P 
BRANCH   3   4
ATOM      4  O   UNL     1       5.161   5.525  19.480  0.00  0.00    +0.000 OA
ATOM      5  H   UNL     1       4.619   6.342  19.463  0.00  0.00    +0.000 HD
ENDBRANCH   3   4
BRANCH   3   6
ATOM      6  O   UNL     1       5.448   3.241  18.891  0.00  0.00    +0.000 OA
ATOM      7  H   UNL     1       5.037   2.440  18.498  0.00  0.00    +0.000 HD
ENDBRANCH   3   6
ENDBRANCH   1   3
BRANCH   1   8
ATOM      8  O   UNL     1       6.621   3.713  16.769  0.00  0.00    +0.000 OA
ATOM      9  H   UNL     1       7.439   4.043  16.335  0.00  0.00    +0.000 HD
ENDBRANCH   1   8
BRANCH   1  10
ATOM     10  P   UNL     1       7.158   5.989  18.117  0.00  0.00    +0.000 P 
ATOM     11  O   UNL     1       8.014   4.766  18.464  0.00  0.00    +0.000 OA
BRANCH  10  12
ATOM     12  O   UNL     1       7.774   6.679  16.771  0.00  0.00    +0.000 OA
ATOM     13  H   UNL     1       8.361   6.069  16.283  0.00  0.00    +0.000 HD
ENDBRANCH  10  12
BRANCH  10  14
ATOM     14  O   UNL     1       8.296   6.970  18.974  0.00  0.00    +0.000 OA
ATOM     15  H   UNL     1       8.779   7.444  18.266  0.00  0.00    +0.000 HD
ENDBRANCH  10  14
ENDBRANCH   1  10
BRANCH   1  16
ATOM     16  C   UNL     1       5.449   5.662  15.958  0.00  0.00    +0.000 C 
BRANCH  16  17
ATOM     17  N   UNL     1       5.923   5.018  14.744  0.00  0.00    +0.000 N 
ATOM     18  C   UNL     1       5.267   4.081  13.993  0.00  0.00    +0.000 A 
ATOM     19  C   UNL     1       6.131   3.748  12.971  0.00  0.00    +0.000 A 
ATOM     20  C   UNL     1       7.269   4.539  13.196  0.00  0.00    +0.000 A 
ATOM     21  N   UNL     1       7.146   5.316  14.282  0.00  0.00    +0.000 NA
ENDBRANCH  16  17
ENDBRANCH   1  16
TORSDOF 9
ENDMDL
MODEL 6
REMARK VINA RESULT:      -5.9      3.068      4.915
REMARK  Name = 
REMARK  9 active torsions:
REMARK  status: ('A' for Active; 'I' for Inactive)
REMARK    1  A    between atoms: P_2  and  O_3
REMARK    2  A    between atoms: P_2  and  O_4
REMARK    3  A    between atoms: P_2  and  C_5
REMARK    4  A    between atoms: C_5  and  O_6
REMARK    5  A    between atoms: C_5  and  C_7
REMARK    6  A    between atoms: C_5  and  P_13
REMARK    7  A    between atoms: C_7  and  N_8
REMARK    8  A    between atoms: P_13  and  O_15
REMARK    9  A    between atoms: P_13  and  O_16
REMARK                            x       y       z     vdW  Elec       q    Type
REMARK                         _______ _______ _______ _____ _____    ______ ____
ROOT
ATOM      1  C   UNL     1       5.738   5.440  16.542  0.00  0.00    +0.000 C 
ENDROOT
BRANCH   1   3
ATOM      2  O   UNL     1       8.008   6.754  18.671  0.00  0.00    +0.000 OA
ATOM      3  P   UNL     1       6.968   6.152  17.695  0.00  0.00    +0.000 P 
BRANCH   3   4
ATOM      4  O   UNL     1       7.735   6.894  16.440  0.00  0.00    +0.000 OA
ATOM      5  H   UNL     1       8.247   6.205  15.966  0.00  0.00    +0.000 HD
ENDBRANCH   3   4
BRANCH   3   6
ATOM      6  O   UNL     1       7.886   4.782  17.520  0.00  0.00    +0.000 OA
ATOM      7  H   UNL     1       7.378   4.066  17.960  0.00  0.00    +0.000 HD
ENDBRANCH   3   6
ENDBRANCH   1   3
BRANCH   1   8
ATOM      8  O   UNL     1       5.492   6.396  15.447  0.00  0.00    +0.000 OA
ATOM      9  H   UNL     1       4.551   6.649  15.578  0.00  0.00    +0.000 HD
ENDBRANCH   1   8
BRANCH   1  10
ATOM     10  P   UNL     1       4.170   5.135  17.434  0.00  0.00    +0.000 P 
ATOM     11  O   UNL     1       3.987   3.783  16.736  0.00  0.00    +0.000 OA
BRANCH  10  12
ATOM     12  O   UNL     1       4.889   4.874  18.877  0.00  0.00    +0.000 OA
ATOM     13  H   UNL     1       5.835   5.119  18.863  0.00  0.00    +0.000 HD
ENDBRANCH  10  12
BRANCH  10  14
ATOM     14  O   UNL     1       2.687   4.848  18.277  0.00  0.00    +0.000 OA
ATOM     15  H   UNL     1       2.631   3.872  18.329  0.00  0.00    +0.000 HD
ENDBRANCH  10  14
ENDBRANCH   1  10
BRANCH   1  16
ATOM     16  C   UNL     1       6.268   4.157  15.908  0.00  0.00    +0.000 C 
BRANCH  16  17
ATOM     17  N   UNL     1       6.647   4.356  14.519  0.00  0.00    +0.000 N 
ATOM     18  C   UNL     1       6.082   3.778  13.415  0.00  0.00    +0.000 A 
ATOM     19  C   UNL     1       6.805   4.243  12.337  0.00  0.00    +0.000 A 
ATOM     20  C   UNL     1       7.773   5.092  12.897  0.00  0.00    +0.000 A 
ATOM     21  N   UNL     1       7.680   5.162  14.234  0.00  0.00    +0.000 NA
ENDBRANCH  16  17
ENDBRANCH   1  16
TORSDOF 9
ENDMDL
MODEL 7
REMARK VINA RESULT:      -5.9      3.329      4.711
REMARK  Name = 
REMARK  9 active torsions:
REMARK  status: ('A' for Active; 'I' for Inactive)
REMARK    1  A    between atoms: P_2  and  O_3
REMARK    2  A    between atoms: P_2  and  O_4
REMARK    3  A    between atoms: P_2  and  C_5
REMARK    4  A    between atoms: C_5  and  O_6
REMARK    5  A    between atoms: C_5  and  C_7
REMARK    6  A    between atoms: C_5  and  P_13
REMARK    7  A    between atoms: C_7  and  N_8
REMARK    8  A    between atoms: P_13  and  O_15
REMARK    9  A    between atoms: P_13  and  O_16
REMARK                            x       y       z     vdW  Elec       q    Type
REMARK                         _______ _______ _______ _____ _____    ______ ____
ROOT
ATOM      1  C   UNL     1       2.789   3.562  19.471  0.00  0.00    +0.000 C 
ENDROOT
BRANCH   1   3
ATOM      2  O   UNL     1       1.364   2.696  22.409  0.00  0.00    +0.000 OA
ATOM      3  P   UNL     1       2.017   3.093  21.062  0.00  0.00    +0.000 P 
BRANCH   3   4
ATOM      4  O   UNL     1       0.545   3.582  20.508  0.00  0.00    +0.000 OA
ATOM      5  H   UNL     1       0.707   4.269  19.827  0.00  0.00    +0.000 HD
ENDBRANCH   3   4
BRANCH   3   6
ATOM      6  O   UNL     1       2.363   4.606  21.646  0.00  0.00    +0.000 OA
ATOM      7  H   UNL     1       2.766   4.462  22.530  0.00  0.00    +0.000 HD
ENDBRANCH   3   6
ENDBRANCH   1   3
BRANCH   1   8
ATOM      8  O   UNL     1       1.751   4.085  18.565  0.00  0.00    +0.000 OA
ATOM      9  H   UNL     1       0.929   4.009  19.099  0.00  0.00    +0.000 HD
ENDBRANCH   1   8
BRANCH   1  10
ATOM     10  P   UNL     1       3.561   2.088  18.709  0.00  0.00    +0.000 P 
ATOM     11  O   UNL     1       3.857   2.859  17.418  0.00  0.00    +0.000 OA
BRANCH  10  12
ATOM     12  O   UNL     1       4.894   2.137  19.652  0.00  0.00    +0.000 OA
ATOM     13  H   UNL     1       5.657   2.531  19.186  0.00  0.00    +0.000 HD
ENDBRANCH  10  12
BRANCH  10  14
ATOM     14  O   UNL     1       4.290   0.694  17.989  0.00  0.00    +0.000 OA
ATOM     15  H   UNL     1       4.896   0.361  18.683  0.00  0.00    +0.000 HD
ENDBRANCH  10  14
ENDBRANCH   1  10
BRANCH   1  16
ATOM     16  C   UNL     1       3.812   4.676  19.673  0.00  0.00    +0.000 C 
BRANCH  16  17
ATOM     17  N   UNL     1       3.429   5.894  18.979  0.00  0.00    +0.000 N 
ATOM     18  C   UNL     1       3.988   6.411  17.841  0.00  0.00    +0.000 A 
ATOM     19  C   UNL     1       3.315   7.590  17.596  0.00  0.00    +0.000 A 
ATOM     20  C   UNL     1       2.377   7.687  18.635  0.00  0.00    +0.000 A 
ATOM     21  N   UNL     1       2.444   6.651  19.485  0.00  0.00    +0.000 NA
ENDBRANCH  16  17
ENDBRANCH   1  16
TORSDOF 9
ENDMDL
MODEL 8
REMARK VINA RESULT:      -5.8      1.997      2.687
REMARK  Name = 
REMARK  9 active torsions:
REMARK  status: ('A' for Active; 'I' for Inactive)
REMARK    1  A    between atoms: P_2  and  O_3
REMARK    2  A    between atoms: P_2  and  O_4
REMARK    3  A    between atoms: P_2  and  C_5
REMARK    4  A    between atoms: C_5  and  O_6
REMARK    5  A    between atoms: C_5  and  C_7
REMARK    6  A    between atoms: C_5  and  P_13
REMARK    7  A    between atoms: C_7  and  N_8
REMARK    8  A    between atoms: P_13  and  O_15
REMARK    9  A    between atoms: P_13  and  O_16
REMARK                            x       y       z     vdW  Elec       q    Type
REMARK                         _______ _______ _______ _____ _____    ______ ____
ROOT
ATOM      1  C   UNL     1       6.344   4.859  17.191  0.00  0.00    +0.000 C 
ENDROOT
BRANCH   1   3
ATOM      2  O   UNL     1       7.780   7.916  17.125  0.00  0.00    +0.000 OA
ATOM      3  P   UNL     1       7.122   6.515  17.156  0.00  0.00    +0.000 P 
BRANCH   3   4
ATOM      4  O   UNL     1       7.399   6.435  18.777  0.00  0.00    +0.000 OA
ATOM      5  H   UNL     1       6.524   6.400  19.218  0.00  0.00    +0.000 HD
ENDBRANCH   3   4
BRANCH   3   6
ATOM      6  O   UNL     1       5.627   7.194  17.387  0.00  0.00    +0.000 OA
ATOM      7  H   UNL     1       5.192   7.182  16.507  0.00  0.00    +0.000 HD
ENDBRANCH   3   6
ENDBRANCH   1   3
BRANCH   1   8
ATOM      8  O   UNL     1       7.128   3.975  18.071  0.00  0.00    +0.000 OA
ATOM      9  H   UNL     1       8.055   4.255  17.901  0.00  0.00    +0.000 HD
ENDBRANCH   1   8
BRANCH   1  10
ATOM     10  P   UNL     1       6.325   4.158  15.501  0.00  0.00    +0.000 P 
ATOM     11  O   UNL     1       5.141   5.044  15.102  0.00  0.00    +0.000 OA
BRANCH  10  12
ATOM     12  O   UNL     1       7.702   4.903  15.035  0.00  0.00    +0.000 OA
ATOM     13  H   UNL     1       7.565   5.857  14.875  0.00  0.00    +0.000 HD
ENDBRANCH  10  12
BRANCH  10  14
ATOM     14  O   UNL     1       6.308   3.494  13.904  0.00  0.00    +0.000 OA
ATOM     15  H   UNL     1       6.122   2.543  14.045  0.00  0.00    +0.000 HD
ENDBRANCH  10  14
ENDBRANCH   1  10
BRANCH   1  16
ATOM     16  C   UNL     1       4.934   4.935  17.770  0.00  0.00    +0.000 C 
BRANCH  16  17
ATOM     17  N   UNL     1       4.506   3.659  18.320  0.00  0.00    +0.000 N 
ATOM     18  C   UNL     1       3.729   2.713  17.709  0.00  0.00    +0.000 A 
ATOM     19  C   UNL     1       3.565   1.706  18.638  0.00  0.00    +0.000 A 
ATOM     20  C   UNL     1       4.282   2.142  19.764  0.00  0.00    +0.000 A 
ATOM     21  N   UNL     1       4.858   3.338  19.574  0.00  0.00    +0.000 NA
ENDBRANCH  16  17
ENDBRANCH   1  16
TORSDOF 9
ENDMDL
MODEL 9
REMARK VINA RESULT:      -5.8      1.469      3.166
REMARK  Name = 
REMARK  9 active torsions:
REMARK  status: ('A' for Active; 'I' for Inactive)
REMARK    1  A    between atoms: P_2  and  O_3
REMARK    2  A    between atoms: P_2  and  O_4
REMARK    3  A    between atoms: P_2  and  C_5
REMARK    4  A    between atoms: C_5  and  O_6
REMARK    5  A    between atoms: C_5  and  C_7
REMARK    6  A    between atoms: C_5  and  P_13
REMARK    7  A    between atoms: C_7  and  N_8
REMARK    8  A    between atoms: P_13  and  O_15
REMARK    9  A    between atoms: P_13  and  O_16
REMARK                            x       y       z     vdW  Elec       q    Type
REMARK                         _______ _______ _______ _____ _____    ______ ____
ROOT
ATOM      1  C   UNL     1       5.551   4.875  17.277  0.00  0.00    +0.000 C 
ENDROOT
BRANCH   1   3
ATOM      2  O   UNL     1       6.634   4.006  14.197  0.00  0.00    +0.000 OA
ATOM      3  P   UNL     1       6.138   4.404  15.609  0.00  0.00    +0.000 P 
BRANCH   3   4
ATOM      4  O   UNL     1       7.687   4.763  16.038  0.00  0.00    +0.000 OA
ATOM      5  H   UNL     1       7.848   5.697  15.787  0.00  0.00    +0.000 HD
ENDBRANCH   3   4
BRANCH   3   6
ATOM      6  O   UNL     1       5.859   5.957  15.101  0.00  0.00    +0.000 OA
ATOM      7  H   UNL     1       4.942   5.960  14.749  0.00  0.00    +0.000 HD
ENDBRANCH   3   6
ENDBRANCH   1   3
BRANCH   1   8
ATOM      8  O   UNL     1       4.481   5.880  17.148  0.00  0.00    +0.000 OA
ATOM      9  H   UNL     1       4.952   6.662  16.782  0.00  0.00    +0.000 HD
ENDBRANCH   1   8
BRANCH   1  10
ATOM     10  P   UNL     1       6.937   5.596  18.230  0.00  0.00    +0.000 P 
ATOM     11  O   UNL     1       6.673   6.986  17.642  0.00  0.00    +0.000 OA
BRANCH  10  12
ATOM     12  O   UNL     1       6.172   5.494  19.670  0.00  0.00    +0.000 OA
ATOM     13  H   UNL     1       5.202   5.442  19.565  0.00  0.00    +0.000 HD
ENDBRANCH  10  12
BRANCH  10  14
ATOM     14  O   UNL     1       8.248   6.277  19.131  0.00  0.00    +0.000 OA
ATOM     15  H   UNL     1       8.988   6.299  18.490  0.00  0.00    +0.000 HD
ENDBRANCH  10  14
ENDBRANCH   1  10
BRANCH   1  16
ATOM     16  C   UNL     1       4.954   3.671  18.001  0.00  0.00    +0.000 C 
BRANCH  16  17
ATOM     17  N   UNL     1       3.537   3.851  18.270  0.00  0.00    +0.000 N 
ATOM     18  C   UNL     1       2.487   3.330  17.564  0.00  0.00    +0.000 A 
ATOM     19  C   UNL     1       1.348   3.811  18.175  0.00  0.00    +0.000 A 
ATOM     20  C   UNL     1       1.821   4.604  19.234  0.00  0.00    +0.000 A 
ATOM     21  N   UNL     1       3.161   4.632  19.293  0.00  0.00    +0.000 NA
ENDBRANCH  16  17
ENDBRANCH   1  16
TORSDOF 9
ENDMDL
