MODEL 1
REMARK VINA RESULT:      -7.5      0.000      0.000
REMARK  Name = 
REMARK  3 active torsions:
REMARK  status: ('A' for Active; 'I' for Inactive)
REMARK    1  A    between atoms: N_6  and  C_7
REMARK    2  A    between atoms: N_13  and  C_14
REMARK    3  A    between atoms: C_14  and  C_15
REMARK                            x       y       z     vdW  Elec       q    Type
REMARK                         _______ _______ _______ _____ _____    ______ ____
ROOT
ATOM      1  O   UNL     1       1.022   4.270  20.660  0.00  0.00    +0.000 OA
ATOM      2  C   UNL     1       1.647   3.902  19.668  0.00  0.00    +0.000 C 
ATOM      3  C   UNL     1       1.264   2.657  18.930  0.00  0.00    +0.000 C 
ATOM      4  S   UNL     1       2.483   2.450  17.642  0.00  0.00    +0.000 S 
ATOM      5  C   UNL     1       3.435   3.841  18.161  0.00  0.00    +0.000 C 
ATOM      6  N   UNL     1       4.548   3.973  17.516  0.00  0.00    +0.000 NA
ATOM      7  N   UNL     1       2.765   4.536  19.143  0.00  0.00    +0.000 N 
ENDROOT
BRANCH   6   8
ATOM      8  C   UNL     1       5.522   4.957  17.660  0.00  0.00    +0.000 A 
ATOM      9  C   UNL     1       5.523   6.140  16.927  0.00  0.00    +0.000 A 
ATOM     10  C   UNL     1       6.566   7.058  17.052  0.00  0.00    +0.000 A 
ATOM     11  C   UNL     1       7.549   6.870  18.017  0.00  0.00    +0.000 A 
ATOM     12  C   UNL     1       7.480   5.768  18.862  0.00  0.00    +0.000 A 
ATOM     13  C   UNL     1       6.474   4.812  18.677  0.00  0.00    +0.000 A 
ENDBRANCH   6   8
BRANCH   7  14
ATOM     14  C   UNL     1       3.173   5.762  19.826  0.00  0.00    +0.000 C 
BRANCH  14  15
ATOM     15  C   UNL     1       2.503   7.049  19.415  0.00  0.00    +0.000 A 
ATOM     16  C   UNL     1       2.559   7.566  18.118  0.00  0.00    +0.000 A 
ATOM     17  C   UNL     1       1.939   8.781  17.863  0.00  0.00    +0.000 A 
ATOM     18  N   UNL     1       1.245   9.487  18.778  0.00  0.00    +0.000 NA
ATOM     19  C   UNL     1       1.174   8.958  20.018  0.00  0.00    +0.000 A 
ATOM     20  C   UNL     1       1.773   7.761  20.374  0.00  0.00    +0.000 A 
ENDBRANCH  14  15
ENDBRANCH   7  14
TORSDOF 3
ENDMDL
MODEL 2
REMARK VINA RESULT:      -7.5      0.078      1.075
REMARK  Name = 
REMARK  3 active torsions:
REMARK  status: ('A' for Active; 'I' for Inactive)
REMARK    1  A    between atoms: N_6  and  C_7
REMARK    2  A    between atoms: N_13  and  C_14
REMARK    3  A    between atoms: C_14  and  C_15
REMARK                            x       y       z     vdW  Elec       q    Type
REMARK                         _______ _______ _______ _____ _____    ______ ____
ROOT
ATOM      1  O   UNL     1       0.985   4.289  20.612  0.00  0.00    +0.000 OA
ATOM      2  C   UNL     1       1.630   3.907  19.638  0.00  0.00    +0.000 C 
ATOM      3  C   UNL     1       1.254   2.659  18.902  0.00  0.00    +0.000 C 
ATOM      4  S   UNL     1       2.501   2.430  17.646  0.00  0.00    +0.000 S 
ATOM      5  C   UNL     1       3.452   3.817  18.174  0.00  0.00    +0.000 C 
ATOM      6  N   UNL     1       4.580   3.934  17.554  0.00  0.00    +0.000 NA
ATOM      7  N   UNL     1       2.766   4.527  19.134  0.00  0.00    +0.000 N 
ENDROOT
BRANCH   6   8
ATOM      8  C   UNL     1       5.560   4.911  17.712  0.00  0.00    +0.000 A 
ATOM      9  C   UNL     1       6.619   4.789  18.606  0.00  0.00    +0.000 A 
ATOM     10  C   UNL     1       7.529   5.831  18.783  0.00  0.00    +0.000 A 
ATOM     11  C   UNL     1       7.473   6.954  17.964  0.00  0.00    +0.000 A 
ATOM     12  C   UNL     1       6.513   7.025  16.961  0.00  0.00    +0.000 A 
ATOM     13  C   UNL     1       5.555   6.009  16.843  0.00  0.00    +0.000 A 
ENDBRANCH   6   8
BRANCH   7  14
ATOM     14  C   UNL     1       3.168   5.756  19.815  0.00  0.00    +0.000 C 
BRANCH  14  15
ATOM     15  C   UNL     1       2.503   7.041  19.391  0.00  0.00    +0.000 A 
ATOM     16  C   UNL     1       2.558   7.543  18.088  0.00  0.00    +0.000 A 
ATOM     17  C   UNL     1       1.944   8.758  17.820  0.00  0.00    +0.000 A 
ATOM     18  N   UNL     1       1.258   9.479  18.729  0.00  0.00    +0.000 NA
ATOM     19  C   UNL     1       1.187   8.965  19.976  0.00  0.00    +0.000 A 
ATOM     20  C   UNL     1       1.781   7.769  20.344  0.00  0.00    +0.000 A 
ENDBRANCH  14  15
ENDBRANCH   7  14
TORSDOF 3
ENDMDL
MODEL 3
REMARK VINA RESULT:      -7.4      0.089      1.052
REMARK  Name = 
REMARK  3 active torsions:
REMARK  status: ('A' for Active; 'I' for Inactive)
REMARK    1  A    between atoms: N_6  and  C_7
REMARK    2  A    between atoms: N_13  and  C_14
REMARK    3  A    between atoms: C_14  and  C_15
REMARK                            x       y       z     vdW  Elec       q    Type
REMARK                         _______ _______ _______ _____ _____    ______ ____
ROOT
ATOM      1  O   UNL     1       1.010   4.263  20.597  0.00  0.00    +0.000 OA
ATOM      2  C   UNL     1       1.650   3.919  19.606  0.00  0.00    +0.000 C 
ATOM      3  C   UNL     1       1.273   2.696  18.829  0.00  0.00    +0.000 C 
ATOM      4  S   UNL     1       2.511   2.518  17.556  0.00  0.00    +0.000 S 
ATOM      5  C   UNL     1       3.460   3.890  18.125  0.00  0.00    +0.000 C 
ATOM      6  N   UNL     1       4.583   4.034  17.502  0.00  0.00    +0.000 NA
ATOM      7  N   UNL     1       2.778   4.562  19.115  0.00  0.00    +0.000 N 
ENDROOT
BRANCH   6   8
ATOM      8  C   UNL     1       5.559   5.010  17.687  0.00  0.00    +0.000 A 
ATOM      9  C   UNL     1       5.585   6.205  16.974  0.00  0.00    +0.000 A 
ATOM     10  C   UNL     1       6.629   7.115  17.141  0.00  0.00    +0.000 A 
ATOM     11  C   UNL     1       7.587   6.904  18.127  0.00  0.00    +0.000 A 
ATOM     12  C   UNL     1       7.491   5.789  18.951  0.00  0.00    +0.000 A 
ATOM     13  C   UNL     1       6.484   4.842  18.724  0.00  0.00    +0.000 A 
ENDBRANCH   6   8
BRANCH   7  14
ATOM     14  C   UNL     1       3.180   5.768  19.837  0.00  0.00    +0.000 C 
BRANCH  14  15
ATOM     15  C   UNL     1       2.500   7.063  19.470  0.00  0.00    +0.000 A 
ATOM     16  C   UNL     1       1.749   7.821  20.371  0.00  0.00    +0.000 A 
ATOM     17  C   UNL     1       1.132   8.976  19.912  0.00  0.00    +0.000 A 
ATOM     18  N   UNL     1       1.238   9.444  18.653  0.00  0.00    +0.000 NA
ATOM     19  C   UNL     1       1.992   8.716  17.801  0.00  0.00    +0.000 A 
ATOM     20  C   UNL     1       2.634   7.542  18.161  0.00  0.00    +0.000 A 
ENDBRANCH  14  15
ENDBRANCH   7  14
TORSDOF 3
ENDMDL
MODEL 4
REMARK VINA RESULT:      -7.4      0.106      1.503
REMARK  Name = 
REMARK  3 active torsions:
REMARK  status: ('A' for Active; 'I' for Inactive)
REMARK    1  A    between atoms: N_6  and  C_7
REMARK    2  A    between atoms: N_13  and  C_14
REMARK    3  A    between atoms: C_14  and  C_15
REMARK                            x       y       z     vdW  Elec       q    Type
REMARK                         _______ _______ _______ _____ _____    ______ ____
ROOT
ATOM      1  O   UNL     1       1.037   4.254  20.679  0.00  0.00    +0.000 OA
ATOM      2  C   UNL     1       1.658   3.884  19.685  0.00  0.00    +0.000 C 
ATOM      3  C   UNL     1       1.257   2.649  18.939  0.00  0.00    +0.000 C 
ATOM      4  S   UNL     1       2.473   2.433  17.650  0.00  0.00    +0.000 S 
ATOM      5  C   UNL     1       3.444   3.807  18.177  0.00  0.00    +0.000 C 
ATOM      6  N   UNL     1       4.559   3.927  17.534  0.00  0.00    +0.000 NA
ATOM      7  N   UNL     1       2.785   4.505  19.164  0.00  0.00    +0.000 N 
ENDROOT
BRANCH   6   8
ATOM      8  C   UNL     1       5.547   4.896  17.684  0.00  0.00    +0.000 A 
ATOM      9  C   UNL     1       6.602   4.774  18.584  0.00  0.00    +0.000 A 
ATOM     10  C   UNL     1       7.521   5.809  18.752  0.00  0.00    +0.000 A 
ATOM     11  C   UNL     1       7.479   6.923  17.919  0.00  0.00    +0.000 A 
ATOM     12  C   UNL     1       6.524   6.992  16.912  0.00  0.00    +0.000 A 
ATOM     13  C   UNL     1       5.556   5.984  16.803  0.00  0.00    +0.000 A 
ENDBRANCH   6   8
BRANCH   7  14
ATOM     14  C   UNL     1       3.210   5.721  19.855  0.00  0.00    +0.000 C 
BRANCH  14  15
ATOM     15  C   UNL     1       2.522   7.012  19.486  0.00  0.00    +0.000 A 
ATOM     16  C   UNL     1       1.752   7.757  20.382  0.00  0.00    +0.000 A 
ATOM     17  C   UNL     1       1.130   8.909  19.922  0.00  0.00    +0.000 A 
ATOM     18  N   UNL     1       1.249   9.387  18.667  0.00  0.00    +0.000 NA
ATOM     19  C   UNL     1       2.022   8.672  17.822  0.00  0.00    +0.000 A 
ATOM     20  C   UNL     1       2.669   7.501  18.183  0.00  0.00    +0.000 A 
ENDBRANCH  14  15
ENDBRANCH   7  14
TORSDOF 3
ENDMDL
MODEL 5
REMARK VINA RESULT:      -7.4      2.381      4.476
REMARK  Name = 
REMARK  3 active torsions:
REMARK  status: ('A' for Active; 'I' for Inactive)
REMARK    1  A    between atoms: N_6  and  C_7
REMARK    2  A    between atoms: N_13  and  C_14
REMARK    3  A    between atoms: C_14  and  C_15
REMARK                            x       y       z     vdW  Elec       q    Type
REMARK                         _______ _______ _______ _____ _____    ______ ____
ROOT
ATOM      1  O   UNL     1       6.141   7.670  16.680  0.00  0.00    +0.000 OA
ATOM      2  C   UNL     1       6.315   6.805  17.535  0.00  0.00    +0.000 C 
ATOM      3  C   UNL     1       7.664   6.580  18.144  0.00  0.00    +0.000 C 
ATOM      4  S   UNL     1       7.486   5.183  19.240  0.00  0.00    +0.000 S 
ATOM      5  C   UNL     1       5.801   4.906  18.800  0.00  0.00    +0.000 C 
ATOM      6  N   UNL     1       5.302   3.833  19.321  0.00  0.00    +0.000 NA
ATOM      7  N   UNL     1       5.343   5.931  18.003  0.00  0.00    +0.000 N 
ENDROOT
BRANCH   6   8
ATOM      8  C   UNL     1       4.012   3.326  19.194  0.00  0.00    +0.000 A 
ATOM      9  C   UNL     1       3.556   2.687  18.044  0.00  0.00    +0.000 A 
ATOM     10  C   UNL     1       2.230   2.268  17.938  0.00  0.00    +0.000 A 
ATOM     11  C   UNL     1       1.380   2.354  19.036  0.00  0.00    +0.000 A 
ATOM     12  C   UNL     1       1.863   2.851  20.241  0.00  0.00    +0.000 A 
ATOM     13  C   UNL     1       3.173   3.342  20.314  0.00  0.00    +0.000 A 
ENDBRANCH   6   8
BRANCH   7  14
ATOM     14  C   UNL     1       4.006   6.117  17.443  0.00  0.00    +0.000 C 
BRANCH  14  15
ATOM     15  C   UNL     1       3.079   7.074  18.149  0.00  0.00    +0.000 A 
ATOM     16  C   UNL     1       2.592   8.247  17.566  0.00  0.00    +0.000 A 
ATOM     17  C   UNL     1       1.778   9.076  18.325  0.00  0.00    +0.000 A 
ATOM     18  N   UNL     1       1.386   8.807  19.586  0.00  0.00    +0.000 NA
ATOM     19  C   UNL     1       1.840   7.655  20.125  0.00  0.00    +0.000 A 
ATOM     20  C   UNL     1       2.670   6.772  19.453  0.00  0.00    +0.000 A 
ENDBRANCH  14  15
ENDBRANCH   7  14
TORSDOF 3
ENDMDL
MODEL 6
REMARK VINA RESULT:      -7.3      2.351      4.516
REMARK  Name = 
REMARK  3 active torsions:
REMARK  status: ('A' for Active; 'I' for Inactive)
REMARK    1  A    between atoms: N_6  and  C_7
REMARK    2  A    between atoms: N_13  and  C_14
REMARK    3  A    between atoms: C_14  and  C_15
REMARK                            x       y       z     vdW  Elec       q    Type
REMARK                         _______ _______ _______ _____ _____    ______ ____
ROOT
ATOM      1  O   UNL     1       5.945   7.582  16.556  0.00  0.00    +0.000 OA
ATOM      2  C   UNL     1       6.165   6.745  17.429  0.00  0.00    +0.000 C 
ATOM      3  C   UNL     1       7.545   6.540  17.973  0.00  0.00    +0.000 C 
ATOM      4  S   UNL     1       7.426   5.180  19.122  0.00  0.00    +0.000 S 
ATOM      5  C   UNL     1       5.721   4.889  18.781  0.00  0.00    +0.000 C 
ATOM      6  N   UNL     1       5.252   3.834  19.362  0.00  0.00    +0.000 NA
ATOM      7  N   UNL     1       5.220   5.887  17.976  0.00  0.00    +0.000 N 
ENDROOT
BRANCH   6   8
ATOM      8  C   UNL     1       3.958   3.323  19.319  0.00  0.00    +0.000 A 
ATOM      9  C   UNL     1       3.034   3.505  20.344  0.00  0.00    +0.000 A 
ATOM     10  C   UNL     1       1.775   2.906  20.287  0.00  0.00    +0.000 A 
ATOM     11  C   UNL     1       1.374   2.232  19.138  0.00  0.00    +0.000 A 
ATOM     12  C   UNL     1       2.230   2.171  18.044  0.00  0.00    +0.000 A 
ATOM     13  C   UNL     1       3.520   2.708  18.140  0.00  0.00    +0.000 A 
ENDBRANCH   6   8
BRANCH   7  14
ATOM     14  C   UNL     1       3.855   6.056  17.481  0.00  0.00    +0.000 C 
BRANCH  14  15
ATOM     15  C   UNL     1       2.978   7.066  18.177  0.00  0.00    +0.000 A 
ATOM     16  C   UNL     1       2.534   8.245  17.575  0.00  0.00    +0.000 A 
ATOM     17  C   UNL     1       1.765   9.123  18.326  0.00  0.00    +0.000 A 
ATOM     18  N   UNL     1       1.379   8.898  19.597  0.00  0.00    +0.000 NA
ATOM     19  C   UNL     1       1.790   7.739  20.155  0.00  0.00    +0.000 A 
ATOM     20  C   UNL     1       2.574   6.808  19.492  0.00  0.00    +0.000 A 
ENDBRANCH  14  15
ENDBRANCH   7  14
TORSDOF 3
ENDMDL
MODEL 7
REMARK VINA RESULT:      -7.3      2.311      4.541
REMARK  Name = 
REMARK  3 active torsions:
REMARK  status: ('A' for Active; 'I' for Inactive)
REMARK    1  A    between atoms: N_6  and  C_7
REMARK    2  A    between atoms: N_13  and  C_14
REMARK    3  A    between atoms: C_14  and  C_15
REMARK                            x       y       z     vdW  Elec       q    Type
REMARK                         _______ _______ _______ _____ _____    ______ ____
ROOT
ATOM      1  O   UNL     1       5.518   7.102  16.059  0.00  0.00    +0.000 OA
ATOM      2  C   UNL     1       5.817   6.350  16.985  0.00  0.00    +0.000 C 
ATOM      3  C   UNL     1       7.249   6.082  17.330  0.00  0.00    +0.000 C 
ATOM      4  S   UNL     1       7.223   4.875  18.645  0.00  0.00    +0.000 S 
ATOM      5  C   UNL     1       5.468   4.705  18.609  0.00  0.00    +0.000 C 
ATOM      6  N   UNL     1       5.026   3.769  19.383  0.00  0.00    +0.000 NA
ATOM      7  N   UNL     1       4.916   5.649  17.773  0.00  0.00    +0.000 N 
ENDROOT
BRANCH   6   8
ATOM      8  C   UNL     1       3.708   3.377  19.605  0.00  0.00    +0.000 A 
ATOM      9  C   UNL     1       2.991   2.582  18.716  0.00  0.00    +0.000 A 
ATOM     10  C   UNL     1       1.649   2.283  18.947  0.00  0.00    +0.000 A 
ATOM     11  C   UNL     1       1.045   2.658  20.143  0.00  0.00    +0.000 A 
ATOM     12  C   UNL     1       1.792   3.323  21.109  0.00  0.00    +0.000 A 
ATOM     13  C   UNL     1       3.116   3.687  20.835  0.00  0.00    +0.000 A 
ENDBRANCH   6   8
BRANCH   7  14
ATOM     14  C   UNL     1       3.503   5.885  17.478  0.00  0.00    +0.000 C 
BRANCH  14  15
ATOM     15  C   UNL     1       2.791   6.950  18.274  0.00  0.00    +0.000 A 
ATOM     16  C   UNL     1       2.447   6.804  19.620  0.00  0.00    +0.000 A 
ATOM     17  C   UNL     1       1.755   7.834  20.242  0.00  0.00    +0.000 A 
ATOM     18  N   UNL     1       1.420   8.994  19.643  0.00  0.00    +0.000 NA
ATOM     19  C   UNL     1       1.787   9.132  18.351  0.00  0.00    +0.000 A 
ATOM     20  C   UNL     1       2.465   8.155  17.640  0.00  0.00    +0.000 A 
ENDBRANCH  14  15
ENDBRANCH   7  14
TORSDOF 3
ENDMDL
MODEL 8
REMARK VINA RESULT:      -7.3      2.309      4.602
REMARK  Name = 
REMARK  3 active torsions:
REMARK  status: ('A' for Active; 'I' for Inactive)
REMARK    1  A    between atoms: N_6  and  C_7
REMARK    2  A    between atoms: N_13  and  C_14
REMARK    3  A    between atoms: C_14  and  C_15
REMARK                            x       y       z     vdW  Elec       q    Type
REMARK                         _______ _______ _______ _____ _____    ______ ____
ROOT
ATOM      1  O   UNL     1       5.856   7.415  16.387  0.00  0.00    +0.000 OA
ATOM      2  C   UNL     1       6.069   6.606  17.288  0.00  0.00    +0.000 C 
ATOM      3  C   UNL     1       7.459   6.346  17.779  0.00  0.00    +0.000 C 
ATOM      4  S   UNL     1       7.319   5.048  18.997  0.00  0.00    +0.000 S 
ATOM      5  C   UNL     1       5.586   4.843  18.745  0.00  0.00    +0.000 C 
ATOM      6  N   UNL     1       5.086   3.844  19.396  0.00  0.00    +0.000 NA
ATOM      7  N   UNL     1       5.105   5.831  17.916  0.00  0.00    +0.000 N 
ENDROOT
BRANCH   6   8
ATOM      8  C   UNL     1       3.764   3.408  19.436  0.00  0.00    +0.000 A 
ATOM      9  C   UNL     1       2.897   3.702  20.483  0.00  0.00    +0.000 A 
ATOM     10  C   UNL     1       1.606   3.175  20.513  0.00  0.00    +0.000 A 
ATOM     11  C   UNL     1       1.118   2.462  19.422  0.00  0.00    +0.000 A 
ATOM     12  C   UNL     1       1.921   2.288  18.301  0.00  0.00    +0.000 A 
ATOM     13  C   UNL     1       3.242   2.753  18.313  0.00  0.00    +0.000 A 
ENDBRANCH   6   8
BRANCH   7  14
ATOM     14  C   UNL     1       3.729   6.056  17.475  0.00  0.00    +0.000 C 
BRANCH  14  15
ATOM     15  C   UNL     1       2.913   7.080  18.224  0.00  0.00    +0.000 A 
ATOM     16  C   UNL     1       2.494   6.913  19.546  0.00  0.00    +0.000 A 
ATOM     17  C   UNL     1       1.710   7.903  20.123  0.00  0.00    +0.000 A 
ATOM     18  N   UNL     1       1.353   9.045  19.503  0.00  0.00    +0.000 NA
ATOM     19  C   UNL     1       1.792   9.205  18.236  0.00  0.00    +0.000 A 
ATOM     20  C   UNL     1       2.564   8.267  17.570  0.00  0.00    +0.000 A 
ENDBRANCH  14  15
ENDBRANCH   7  14
TORSDOF 3
ENDMDL
MODEL 9
REMARK VINA RESULT:      -6.8      2.471      4.576
REMARK  Name = 
REMARK  3 active torsions:
REMARK  status: ('A' for Active; 'I' for Inactive)
REMARK    1  A    between atoms: N_6  and  C_7
REMARK    2  A    between atoms: N_13  and  C_14
REMARK    3  A    between atoms: C_14  and  C_15
REMARK                            x       y       z     vdW  Elec       q    Type
REMARK                         _______ _______ _______ _____ _____    ______ ____
ROOT
ATOM      1  O   UNL     1       7.233   6.784  16.827  0.00  0.00    +0.000 OA
ATOM      2  C   UNL     1       6.714   5.745  16.426  0.00  0.00    +0.000 C 
ATOM      3  C   UNL     1       7.054   5.179  15.082  0.00  0.00    +0.000 C 
ATOM      4  S   UNL     1       6.010   3.747  14.869  0.00  0.00    +0.000 S 
ATOM      5  C   UNL     1       5.157   4.000  16.392  0.00  0.00    +0.000 C 
ATOM      6  N   UNL     1       4.166   3.189  16.568  0.00  0.00    +0.000 NA
ATOM      7  N   UNL     1       5.757   5.009  17.111  0.00  0.00    +0.000 N 
ENDROOT
BRANCH   6   8
ATOM      8  C   UNL     1       3.297   3.103  17.652  0.00  0.00    +0.000 A 
ATOM      9  C   UNL     1       3.672   2.586  18.889  0.00  0.00    +0.000 A 
ATOM     10  C   UNL     1       2.742   2.450  19.919  0.00  0.00    +0.000 A 
ATOM     11  C   UNL     1       1.456   2.961  19.771  0.00  0.00    +0.000 A 
ATOM     12  C   UNL     1       1.109   3.617  18.596  0.00  0.00    +0.000 A 
ATOM     13  C   UNL     1       2.026   3.679  17.538  0.00  0.00    +0.000 A 
ENDBRANCH   6   8
BRANCH   7  14
ATOM     14  C   UNL     1       5.398   5.518  18.434  0.00  0.00    +0.000 C 
BRANCH  14  15
ATOM     15  C   UNL     1       4.170   6.387  18.539  0.00  0.00    +0.000 A 
ATOM     16  C   UNL     1       3.794   7.311  17.561  0.00  0.00    +0.000 A 
ATOM     17  C   UNL     1       2.666   8.088  17.783  0.00  0.00    +0.000 A 
ATOM     18  N   UNL     1       1.875   7.986  18.870  0.00  0.00    +0.000 NA
ATOM     19  C   UNL     1       2.235   7.067  19.792  0.00  0.00    +0.000 A 
ATOM     20  C   UNL     1       3.352   6.257  19.668  0.00  0.00    +0.000 A 
ENDBRANCH  14  15
ENDBRANCH   7  14
TORSDOF 3
ENDMDL
