MODEL 1
REMARK VINA RESULT:      -8.1      0.000      0.000
REMARK  Name = 
REMARK  2 active torsions:
REMARK  status: ('A' for Active; 'I' for Inactive)
REMARK    1  A    between atoms: C_6  and  N_7
REMARK    2  A    between atoms: N_7  and  C_8
REMARK                            x       y       z     vdW  Elec       q    Type
REMARK                         _______ _______ _______ _____ _____    ______ ____
ROOT
ATOM      1  C   UNL     1       2.052   7.885  19.509  0.00  0.00    +0.000 A 
ATOM      2  C   UNL     1       2.216   8.302  18.185  0.00  0.00    +0.000 A 
ATOM      3  C   UNL     1       1.609   9.471  17.780  0.00  0.00    +0.000 A 
ATOM      4  N   UNL     1       0.862  10.246  18.588  0.00  0.00    +0.000 NA
ATOM      5  C   UNL     1       0.712   9.868  19.866  0.00  0.00    +0.000 A 
ATOM      6  C   UNL     1      -0.082  10.655  20.685  0.00  0.00    +0.000 A 
ATOM      7  C   UNL     1      -0.287  10.329  22.023  0.00  0.00    +0.000 A 
ATOM      8 CL   UNL     1      -1.303  11.318  22.998  0.00  0.00    +0.000 Cl
ATOM      9  C   UNL     1       0.316   9.206  22.573  0.00  0.00    +0.000 A 
ATOM     10  C   UNL     1       1.109   8.392  21.764  0.00  0.00    +0.000 A 
ATOM     11  C   UNL     1       1.312   8.702  20.399  0.00  0.00    +0.000 A 
ENDROOT
BRANCH   1  12
ATOM     12  N   UNL     1       2.624   6.665  19.948  0.00  0.00    +0.000 N 
ATOM     13  H   UNL     1       3.634   6.715  20.032  0.00  0.00    +0.000 HD
BRANCH  12  19
ATOM     14  F   UNL     1       0.935   2.560  21.803  0.00  0.00    +0.000 F 
ATOM     15  C   UNL     1       1.256   3.291  20.729  0.00  0.00    +0.000 A 
ATOM     16  C   UNL     1       1.095   2.753  19.460  0.00  0.00    +0.000 A 
ATOM     17  C   UNL     1       1.440   3.516  18.348  0.00  0.00    +0.000 A 
ATOM     18  C   UNL     1       1.945   4.812  18.516  0.00  0.00    +0.000 A 
ATOM     19  C   UNL     1       2.100   5.365  19.795  0.00  0.00    +0.000 A 
ATOM     20  C   UNL     1       1.757   4.578  20.902  0.00  0.00    +0.000 A 
ENDBRANCH  12  19
ENDBRANCH   1  12
TORSDOF 2
ENDMDL
MODEL 2
REMARK VINA RESULT:      -8.1      5.701      7.379
REMARK  Name = 
REMARK  2 active torsions:
REMARK  status: ('A' for Active; 'I' for Inactive)
REMARK    1  A    between atoms: C_6  and  N_7
REMARK    2  A    between atoms: N_7  and  C_8
REMARK                            x       y       z     vdW  Elec       q    Type
REMARK                         _______ _______ _______ _____ _____    ______ ____
ROOT
ATOM      1  C   UNL     1       5.971   4.462  18.048  0.00  0.00    +0.000 A 
ATOM      2  C   UNL     1       6.533   5.495  18.803  0.00  0.00    +0.000 A 
ATOM      3  C   UNL     1       7.295   6.445  18.158  0.00  0.00    +0.000 A 
ATOM      4  N   UNL     1       7.533   6.441  16.833  0.00  0.00    +0.000 NA
ATOM      5  C   UNL     1       6.984   5.466  16.095  0.00  0.00    +0.000 A 
ATOM      6  C   UNL     1       7.259   5.451  14.736  0.00  0.00    +0.000 A 
ATOM      7  C   UNL     1       6.726   4.471  13.902  0.00  0.00    +0.000 A 
ATOM      8 CL   UNL     1       7.113   4.473  12.225  0.00  0.00    +0.000 Cl
ATOM      9  C   UNL     1       5.893   3.487  14.416  0.00  0.00    +0.000 A 
ATOM     10  C   UNL     1       5.615   3.474  15.784  0.00  0.00    +0.000 A 
ATOM     11  C   UNL     1       6.162   4.454  16.645  0.00  0.00    +0.000 A 
ENDROOT
BRANCH   1  12
ATOM     12  N   UNL     1       5.219   3.442  18.685  0.00  0.00    +0.000 N 
ATOM     13  H   UNL     1       5.585   2.514  18.502  0.00  0.00    +0.000 HD
BRANCH  12  19
ATOM     14  F   UNL     1       1.678   2.408  21.774  0.00  0.00    +0.000 F 
ATOM     15  C   UNL     1       2.075   2.956  20.620  0.00  0.00    +0.000 A 
ATOM     16  C   UNL     1       1.137   3.548  19.785  0.00  0.00    +0.000 A 
ATOM     17  C   UNL     1       1.555   4.108  18.580  0.00  0.00    +0.000 A 
ATOM     18  C   UNL     1       2.909   4.072  18.223  0.00  0.00    +0.000 A 
ATOM     19  C   UNL     1       3.862   3.485  19.068  0.00  0.00    +0.000 A 
ATOM     20  C   UNL     1       3.421   2.917  20.270  0.00  0.00    +0.000 A 
ENDBRANCH  12  19
ENDBRANCH   1  12
TORSDOF 2
ENDMDL
MODEL 3
REMARK VINA RESULT:      -8.1      5.407      7.385
REMARK  Name = 
REMARK  2 active torsions:
REMARK  status: ('A' for Active; 'I' for Inactive)
REMARK    1  A    between atoms: C_6  and  N_7
REMARK    2  A    between atoms: N_7  and  C_8
REMARK                            x       y       z     vdW  Elec       q    Type
REMARK                         _______ _______ _______ _____ _____    ______ ____
ROOT
ATOM      1  C   UNL     1       5.986   4.557  18.237  0.00  0.00    +0.000 A 
ATOM      2  C   UNL     1       6.656   5.588  18.901  0.00  0.00    +0.000 A 
ATOM      3  C   UNL     1       7.439   6.450  18.164  0.00  0.00    +0.000 A 
ATOM      4  N   UNL     1       7.599   6.361  16.830  0.00  0.00    +0.000 NA
ATOM      5  C   UNL     1       6.947   5.388  16.178  0.00  0.00    +0.000 A 
ATOM      6  C   UNL     1       7.140   5.284  14.810  0.00  0.00    +0.000 A 
ATOM      7  C   UNL     1       6.499   4.299  14.062  0.00  0.00    +0.000 A 
ATOM      8 CL   UNL     1       6.787   4.188  12.369  0.00  0.00    +0.000 Cl
ATOM      9  C   UNL     1       5.635   3.401  14.675  0.00  0.00    +0.000 A 
ATOM     10  C   UNL     1       5.437   3.479  16.054  0.00  0.00    +0.000 A 
ATOM     11  C   UNL     1       6.095   4.463  16.828  0.00  0.00    +0.000 A 
ENDROOT
BRANCH   1  12
ATOM     12  N   UNL     1       5.209   3.625  18.970  0.00  0.00    +0.000 N 
ATOM     13  H   UNL     1       5.591   2.685  18.936  0.00  0.00    +0.000 HD
BRANCH  12  19
ATOM     14  F   UNL     1       0.721   1.921  18.647  0.00  0.00    +0.000 F 
ATOM     15  C   UNL     1       1.570   2.849  19.104  0.00  0.00    +0.000 A 
ATOM     16  C   UNL     1       1.085   3.906  19.862  0.00  0.00    +0.000 A 
ATOM     17  C   UNL     1       1.972   4.874  20.327  0.00  0.00    +0.000 A 
ATOM     18  C   UNL     1       3.337   4.773  20.030  0.00  0.00    +0.000 A 
ATOM     19  C   UNL     1       3.834   3.702  19.274  0.00  0.00    +0.000 A 
ATOM     20  C   UNL     1       2.925   2.744  18.806  0.00  0.00    +0.000 A 
ENDBRANCH  12  19
ENDBRANCH   1  12
TORSDOF 2
ENDMDL
MODEL 4
REMARK VINA RESULT:      -8.1      5.425      7.362
REMARK  Name = 
REMARK  2 active torsions:
REMARK  status: ('A' for Active; 'I' for Inactive)
REMARK    1  A    between atoms: C_6  and  N_7
REMARK    2  A    between atoms: N_7  and  C_8
REMARK                            x       y       z     vdW  Elec       q    Type
REMARK                         _______ _______ _______ _____ _____    ______ ____
ROOT
ATOM      1  C   UNL     1       6.022   4.562  18.226  0.00  0.00    +0.000 A 
ATOM      2  C   UNL     1       6.665   5.616  18.881  0.00  0.00    +0.000 A 
ATOM      3  C   UNL     1       7.416   6.498  18.135  0.00  0.00    +0.000 A 
ATOM      4  N   UNL     1       7.569   6.409  16.801  0.00  0.00    +0.000 NA
ATOM      5  C   UNL     1       6.942   5.413  16.157  0.00  0.00    +0.000 A 
ATOM      6  C   UNL     1       7.129   5.310  14.788  0.00  0.00    +0.000 A 
ATOM      7  C   UNL     1       6.512   4.304  14.049  0.00  0.00    +0.000 A 
ATOM      8 CL   UNL     1       6.791   4.194  12.354  0.00  0.00    +0.000 Cl
ATOM      9  C   UNL     1       5.680   3.382  14.671  0.00  0.00    +0.000 A 
ATOM     10  C   UNL     1       5.490   3.460  16.051  0.00  0.00    +0.000 A 
ATOM     11  C   UNL     1       6.123   4.466  16.817  0.00  0.00    +0.000 A 
ENDROOT
BRANCH   1  12
ATOM     12  N   UNL     1       5.278   3.610  18.968  0.00  0.00    +0.000 N 
ATOM     13  H   UNL     1       5.722   2.698  18.989  0.00  0.00    +0.000 HD
BRANCH  12  19
ATOM     14  F   UNL     1       1.317   5.653  20.780  0.00  0.00    +0.000 F 
ATOM     15  C   UNL     1       1.894   4.630  20.137  0.00  0.00    +0.000 A 
ATOM     16  C   UNL     1       1.121   3.550  19.737  0.00  0.00    +0.000 A 
ATOM     17  C   UNL     1       1.729   2.485  19.077  0.00  0.00    +0.000 A 
ATOM     18  C   UNL     1       3.106   2.512  18.824  0.00  0.00    +0.000 A 
ATOM     19  C   UNL     1       3.890   3.606  19.216  0.00  0.00    +0.000 A 
ATOM     20  C   UNL     1       3.263   4.663  19.888  0.00  0.00    +0.000 A 
ENDBRANCH  12  19
ENDBRANCH   1  12
TORSDOF 2
ENDMDL
MODEL 5
REMARK VINA RESULT:      -8.0      1.187      1.587
REMARK  Name = 
REMARK  2 active torsions:
REMARK  status: ('A' for Active; 'I' for Inactive)
REMARK    1  A    between atoms: C_6  and  N_7
REMARK    2  A    between atoms: N_7  and  C_8
REMARK                            x       y       z     vdW  Elec       q    Type
REMARK                         _______ _______ _______ _____ _____    ______ ____
ROOT
ATOM      1  C   UNL     1       2.050   7.888  19.523  0.00  0.00    +0.000 A 
ATOM      2  C   UNL     1       2.229   8.315  18.205  0.00  0.00    +0.000 A 
ATOM      3  C   UNL     1       1.634   9.493  17.805  0.00  0.00    +0.000 A 
ATOM      4  N   UNL     1       0.886  10.266  18.614  0.00  0.00    +0.000 NA
ATOM      5  C   UNL     1       0.722   9.878  19.887  0.00  0.00    +0.000 A 
ATOM      6  C   UNL     1      -0.074  10.662  20.705  0.00  0.00    +0.000 A 
ATOM      7  C   UNL     1      -0.293  10.326  22.039  0.00  0.00    +0.000 A 
ATOM      8 CL   UNL     1      -1.311  11.314  23.014  0.00  0.00    +0.000 Cl
ATOM      9  C   UNL     1       0.296   9.194  22.584  0.00  0.00    +0.000 A 
ATOM     10  C   UNL     1       1.091   8.381  21.774  0.00  0.00    +0.000 A 
ATOM     11  C   UNL     1       1.308   8.702  20.414  0.00  0.00    +0.000 A 
ENDROOT
BRANCH   1  12
ATOM     12  N   UNL     1       2.609   6.659  19.956  0.00  0.00    +0.000 N 
ATOM     13  H   UNL     1       3.597   6.736  20.176  0.00  0.00    +0.000 HD
BRANCH  12  19
ATOM     14  F   UNL     1       2.330   2.884  16.987  0.00  0.00    +0.000 F 
ATOM     15  C   UNL     1       2.013   3.456  18.155  0.00  0.00    +0.000 A 
ATOM     16  C   UNL     1       1.216   2.769  19.061  0.00  0.00    +0.000 A 
ATOM     17  C   UNL     1       0.882   3.374  20.269  0.00  0.00    +0.000 A 
ATOM     18  C   UNL     1       1.348   4.662  20.561  0.00  0.00    +0.000 A 
ATOM     19  C   UNL     1       2.162   5.357  19.654  0.00  0.00    +0.000 A 
ATOM     20  C   UNL     1       2.479   4.736  18.439  0.00  0.00    +0.000 A 
ENDBRANCH  12  19
ENDBRANCH   1  12
TORSDOF 2
ENDMDL
MODEL 6
REMARK VINA RESULT:      -8.0      5.738      7.478
REMARK  Name = 
REMARK  2 active torsions:
REMARK  status: ('A' for Active; 'I' for Inactive)
REMARK    1  A    between atoms: C_6  and  N_7
REMARK    2  A    between atoms: N_7  and  C_8
REMARK                            x       y       z     vdW  Elec       q    Type
REMARK                         _______ _______ _______ _____ _____    ______ ____
ROOT
ATOM      1  C   UNL     1       5.153   5.229  16.720  0.00  0.00    +0.000 A 
ATOM      2  C   UNL     1       5.106   6.622  16.813  0.00  0.00    +0.000 A 
ATOM      3  C   UNL     1       4.005   7.209  17.398  0.00  0.00    +0.000 A 
ATOM      4  N   UNL     1       2.961   6.517  17.891  0.00  0.00    +0.000 NA
ATOM      5  C   UNL     1       3.001   5.178  17.824  0.00  0.00    +0.000 A 
ATOM      6  C   UNL     1       1.910   4.473  18.306  0.00  0.00    +0.000 A 
ATOM      7  C   UNL     1       1.876   3.081  18.273  0.00  0.00    +0.000 A 
ATOM      8 CL   UNL     1       0.490   2.245  18.857  0.00  0.00    +0.000 Cl
ATOM      9  C   UNL     1       2.949   2.364  17.762  0.00  0.00    +0.000 A 
ATOM     10  C   UNL     1       4.053   3.054  17.258  0.00  0.00    +0.000 A 
ATOM     11  C   UNL     1       4.094   4.468  17.271  0.00  0.00    +0.000 A 
ENDROOT
BRANCH   1  12
ATOM     12  N   UNL     1       6.250   4.594  16.084  0.00  0.00    +0.000 N 
ATOM     13  H   UNL     1       7.078   4.566  16.669  0.00  0.00    +0.000 HD
BRANCH  12  19
ATOM     14  F   UNL     1       5.324   2.601  11.804  0.00  0.00    +0.000 F 
ATOM     15  C   UNL     1       6.031   3.464  12.543  0.00  0.00    +0.000 A 
ATOM     16  C   UNL     1       7.025   4.226  11.944  0.00  0.00    +0.000 A 
ATOM     17  C   UNL     1       7.763   5.115  12.720  0.00  0.00    +0.000 A 
ATOM     18  C   UNL     1       7.500   5.233  14.091  0.00  0.00    +0.000 A 
ATOM     19  C   UNL     1       6.491   4.474  14.700  0.00  0.00    +0.000 A 
ATOM     20  C   UNL     1       5.766   3.578  13.904  0.00  0.00    +0.000 A 
ENDBRANCH  12  19
ENDBRANCH   1  12
TORSDOF 2
ENDMDL
MODEL 7
REMARK VINA RESULT:      -8.0      5.915      7.586
REMARK  Name = 
REMARK  2 active torsions:
REMARK  status: ('A' for Active; 'I' for Inactive)
REMARK    1  A    between atoms: C_6  and  N_7
REMARK    2  A    between atoms: N_7  and  C_8
REMARK                            x       y       z     vdW  Elec       q    Type
REMARK                         _______ _______ _______ _____ _____    ______ ____
ROOT
ATOM      1  C   UNL     1       6.088   4.548  17.986  0.00  0.00    +0.000 A 
ATOM      2  C   UNL     1       6.652   5.593  18.723  0.00  0.00    +0.000 A 
ATOM      3  C   UNL     1       7.406   6.538  18.062  0.00  0.00    +0.000 A 
ATOM      4  N   UNL     1       7.635   6.518  16.735  0.00  0.00    +0.000 NA
ATOM      5  C   UNL     1       7.084   5.532  16.012  0.00  0.00    +0.000 A 
ATOM      6  C   UNL     1       7.348   5.501  14.653  0.00  0.00    +0.000 A 
ATOM      7  C   UNL     1       6.814   4.509  13.835  0.00  0.00    +0.000 A 
ATOM      8 CL   UNL     1       7.189   4.492  12.155  0.00  0.00    +0.000 Cl
ATOM      9  C   UNL     1       5.988   3.528  14.367  0.00  0.00    +0.000 A 
ATOM     10  C   UNL     1       5.720   3.531  15.736  0.00  0.00    +0.000 A 
ATOM     11  C   UNL     1       6.269   4.524  16.582  0.00  0.00    +0.000 A 
ENDROOT
BRANCH   1  12
ATOM     12  N   UNL     1       5.345   3.534  18.641  0.00  0.00    +0.000 N 
ATOM     13  H   UNL     1       5.793   2.625  18.587  0.00  0.00    +0.000 HD
BRANCH  12  19
ATOM     14  F   UNL     1       0.825   4.554  17.345  0.00  0.00    +0.000 F 
ATOM     15  C   UNL     1       1.677   4.025  18.232  0.00  0.00    +0.000 A 
ATOM     16  C   UNL     1       1.187   3.467  19.404  0.00  0.00    +0.000 A 
ATOM     17  C   UNL     1       2.079   2.928  20.327  0.00  0.00    +0.000 A 
ATOM     18  C   UNL     1       3.455   2.952  20.067  0.00  0.00    +0.000 A 
ATOM     19  C   UNL     1       3.956   3.504  18.879  0.00  0.00    +0.000 A 
ATOM     20  C   UNL     1       3.043   4.051  17.968  0.00  0.00    +0.000 A 
ENDBRANCH  12  19
ENDBRANCH   1  12
TORSDOF 2
ENDMDL
MODEL 8
REMARK VINA RESULT:      -7.8      5.562      6.242
REMARK  Name = 
REMARK  2 active torsions:
REMARK  status: ('A' for Active; 'I' for Inactive)
REMARK    1  A    between atoms: C_6  and  N_7
REMARK    2  A    between atoms: N_7  and  C_8
REMARK                            x       y       z     vdW  Elec       q    Type
REMARK                         _______ _______ _______ _____ _____    ______ ____
ROOT
ATOM      1  C   UNL     1       5.321   3.970  17.092  0.00  0.00    +0.000 A 
ATOM      2  C   UNL     1       4.955   3.940  15.744  0.00  0.00    +0.000 A 
ATOM      3  C   UNL     1       5.427   4.930  14.909  0.00  0.00    +0.000 A 
ATOM      4  N   UNL     1       6.229   5.933  15.314  0.00  0.00    +0.000 NA
ATOM      5  C   UNL     1       6.603   5.962  16.602  0.00  0.00    +0.000 A 
ATOM      6  C   UNL     1       7.403   7.014  17.019  0.00  0.00    +0.000 A 
ATOM      7  C   UNL     1       7.833   7.115  18.339  0.00  0.00    +0.000 A 
ATOM      8 CL   UNL     1       8.804   8.452  18.822  0.00  0.00    +0.000 Cl
ATOM      9  C   UNL     1       7.477   6.150  19.271  0.00  0.00    +0.000 A 
ATOM     10  C   UNL     1       6.660   5.090  18.877  0.00  0.00    +0.000 A 
ATOM     11  C   UNL     1       6.202   4.983  17.542  0.00  0.00    +0.000 A 
ENDROOT
BRANCH   1  12
ATOM     12  N   UNL     1       4.818   2.993  17.989  0.00  0.00    +0.000 N 
ATOM     13  H   UNL     1       5.204   2.071  17.819  0.00  0.00    +0.000 HD
BRANCH  12  19
ATOM     14  F   UNL     1       2.270   3.301  22.058  0.00  0.00    +0.000 F 
ATOM     15  C   UNL     1       2.301   3.156  20.728  0.00  0.00    +0.000 A 
ATOM     16  C   UNL     1       1.114   2.995  20.027  0.00  0.00    +0.000 A 
ATOM     17  C   UNL     1       1.155   2.835  18.645  0.00  0.00    +0.000 A 
ATOM     18  C   UNL     1       2.385   2.837  17.975  0.00  0.00    +0.000 A 
ATOM     19  C   UNL     1       3.587   3.010  18.676  0.00  0.00    +0.000 A 
ATOM     20  C   UNL     1       3.526   3.159  20.067  0.00  0.00    +0.000 A 
ENDBRANCH  12  19
ENDBRANCH   1  12
TORSDOF 2
ENDMDL
MODEL 9
REMARK VINA RESULT:      -7.8      5.246      6.314
REMARK  Name = 
REMARK  2 active torsions:
REMARK  status: ('A' for Active; 'I' for Inactive)
REMARK    1  A    between atoms: C_6  and  N_7
REMARK    2  A    between atoms: N_7  and  C_8
REMARK                            x       y       z     vdW  Elec       q    Type
REMARK                         _______ _______ _______ _____ _____    ______ ____
ROOT
ATOM      1  C   UNL     1       5.261   4.031  17.163  0.00  0.00    +0.000 A 
ATOM      2  C   UNL     1       4.890   3.962  15.817  0.00  0.00    +0.000 A 
ATOM      3  C   UNL     1       5.378   4.914  14.947  0.00  0.00    +0.000 A 
ATOM      4  N   UNL     1       6.200   5.914  15.316  0.00  0.00    +0.000 NA
ATOM      5  C   UNL     1       6.579   5.980  16.601  0.00  0.00    +0.000 A 
ATOM      6  C   UNL     1       7.401   7.030  16.979  0.00  0.00    +0.000 A 
ATOM      7  C   UNL     1       7.838   7.168  18.294  0.00  0.00    +0.000 A 
ATOM      8 CL   UNL     1       8.836   8.501  18.728  0.00  0.00    +0.000 Cl
ATOM      9  C   UNL     1       7.466   6.243  19.260  0.00  0.00    +0.000 A 
ATOM     10  C   UNL     1       6.627   5.186  18.904  0.00  0.00    +0.000 A 
ATOM     11  C   UNL     1       6.163   5.042  17.575  0.00  0.00    +0.000 A 
ENDROOT
BRANCH   1  12
ATOM     12  N   UNL     1       4.742   3.096  18.094  0.00  0.00    +0.000 N 
ATOM     13  H   UNL     1       5.118   2.163  17.961  0.00  0.00    +0.000 HD
BRANCH  12  19
ATOM     14  F   UNL     1       0.083   1.956  18.470  0.00  0.00    +0.000 F 
ATOM     15  C   UNL     1       1.157   2.587  18.960  0.00  0.00    +0.000 A 
ATOM     16  C   UNL     1       1.044   3.323  20.131  0.00  0.00    +0.000 A 
ATOM     17  C   UNL     1       2.163   3.985  20.630  0.00  0.00    +0.000 A 
ATOM     18  C   UNL     1       3.385   3.905  19.951  0.00  0.00    +0.000 A 
ATOM     19  C   UNL     1       3.508   3.154  18.773  0.00  0.00    +0.000 A 
ATOM     20  C   UNL     1       2.369   2.504  18.281  0.00  0.00    +0.000 A 
ENDBRANCH  12  19
ENDBRANCH   1  12
TORSDOF 2
ENDMDL
