MODEL 1
REMARK VINA RESULT:      -7.5      0.000      0.000
REMARK  Name = 
REMARK  5 active torsions:
REMARK  status: ('A' for Active; 'I' for Inactive)
REMARK    1  A    between atoms: C_1  and  O_2
REMARK    2  A    between atoms: O_2  and  C_3
REMARK    3  A    between atoms: C_5  and  O_6
REMARK    4  A    between atoms: O_6  and  C_7
REMARK    5  A    between atoms: C_20  and  C_21
REMARK                            x       y       z     vdW  Elec       q    Type
REMARK                         _______ _______ _______ _____ _____    ______ ____
ROOT
ATOM      1  C   UNL     1       2.075   4.586  19.723  0.00  0.00    +0.000 A 
ATOM      2  C   UNL     1       1.722   5.696  20.520  0.00  0.00    +0.000 A 
ATOM      3  C   UNL     1       2.090   6.997  20.190  0.00  0.00    +0.000 A 
ATOM      4  C   UNL     1       2.836   7.190  19.039  0.00  0.00    +0.000 A 
ATOM      5  C   UNL     1       3.268   6.073  18.295  0.00  0.00    +0.000 A 
ATOM      6  O   UNL     1       4.109   6.379  17.204  0.00  0.00    +0.000 OA
ATOM      7  C   UNL     1       4.696   5.383  16.448  0.00  0.00    +0.000 A 
ATOM      8  O   UNL     1       5.497   5.624  15.551  0.00  0.00    +0.000 OA
ATOM      9  C   UNL     1       4.302   4.004  16.752  0.00  0.00    +0.000 A 
ATOM     10  C   UNL     1       3.455   3.673  17.746  0.00  0.00    +0.000 A 
ATOM     11  C   UNL     1       3.119   2.219  17.939  0.00  0.00    +0.000 C 
ATOM     12  C   UNL     1       2.918   4.749  18.610  0.00  0.00    +0.000 A 
ENDROOT
BRANCH   1  14
ATOM     13  C   UNL     1       1.622   3.020  21.438  0.00  0.00    +0.000 C 
ATOM     14  O   UNL     1       1.613   3.330  20.041  0.00  0.00    +0.000 OA
ENDBRANCH   1  14
BRANCH   3  15
ATOM     15  O   UNL     1       1.675   8.092  20.910  0.00  0.00    +0.000 OA
BRANCH  15  16
ATOM     16  C   UNL     1       0.362   8.572  20.588  0.00  0.00    +0.000 C 
ATOM     17  C   UNL     1      -0.536   8.465  21.827  0.00  0.00    +0.000 C 
ATOM     18  C   UNL     1      -0.221   9.504  22.904  0.00  0.00    +0.000 C 
ATOM     19  C   UNL     1      -0.295  10.931  22.378  0.00  0.00    +0.000 C 
ATOM     20  C   UNL     1       0.453  11.148  21.072  0.00  0.00    +0.000 C 
ATOM     21  C   UNL     1       0.280  10.021  20.079  0.00  0.00    +0.000 C 
ATOM     22  O   UNL     1       0.155  10.273  18.877  0.00  0.00    +0.000 OA
ENDBRANCH  15  16
ENDBRANCH   3  15
TORSDOF 3
ENDMDL
MODEL 2
REMARK VINA RESULT:      -7.3      1.882      3.759
REMARK  Name = 
REMARK  5 active torsions:
REMARK  status: ('A' for Active; 'I' for Inactive)
REMARK    1  A    between atoms: C_1  and  O_2
REMARK    2  A    between atoms: O_2  and  C_3
REMARK    3  A    between atoms: C_5  and  O_6
REMARK    4  A    between atoms: O_6  and  C_7
REMARK    5  A    between atoms: C_20  and  C_21
REMARK                            x       y       z     vdW  Elec       q    Type
REMARK                         _______ _______ _______ _____ _____    ______ ____
ROOT
ATOM      1  C   UNL     1       3.212   6.184  18.153  0.00  0.00    +0.000 A 
ATOM      2  C   UNL     1       2.663   7.477  18.292  0.00  0.00    +0.000 A 
ATOM      3  C   UNL     1       1.959   7.869  19.427  0.00  0.00    +0.000 A 
ATOM      4  C   UNL     1       1.792   6.940  20.442  0.00  0.00    +0.000 A 
ATOM      5  C   UNL     1       2.258   5.622  20.261  0.00  0.00    +0.000 A 
ATOM      6  O   UNL     1       1.942   4.735  21.312  0.00  0.00    +0.000 OA
ATOM      7  C   UNL     1       2.238   3.388  21.229  0.00  0.00    +0.000 A 
ATOM      8  O   UNL     1       1.897   2.585  22.091  0.00  0.00    +0.000 OA
ATOM      9  C   UNL     1       3.009   2.953  20.060  0.00  0.00    +0.000 A 
ATOM     10  C   UNL     1       3.383   3.778  19.064  0.00  0.00    +0.000 A 
ATOM     11  C   UNL     1       4.189   3.205  17.930  0.00  0.00    +0.000 C 
ATOM     12  C   UNL     1       2.965   5.197  19.124  0.00  0.00    +0.000 A 
ENDROOT
BRANCH   1  14
ATOM     13  C   UNL     1       5.153   6.670  16.890  0.00  0.00    +0.000 C 
ATOM     14  O   UNL     1       3.977   5.872  17.053  0.00  0.00    +0.000 OA
ENDBRANCH   1  14
BRANCH   3  15
ATOM     15  O   UNL     1       1.499   9.151  19.611  0.00  0.00    +0.000 OA
BRANCH  15  16
ATOM     16  C   UNL     1       1.266   9.894  18.405  0.00  0.00    +0.000 C 
ATOM     17  C   UNL     1      -0.212   9.772  18.011  0.00  0.00    +0.000 C 
ATOM     18  C   UNL     1      -1.154  10.577  18.907  0.00  0.00    +0.000 C 
ATOM     19  C   UNL     1      -0.789  12.054  18.958  0.00  0.00    +0.000 C 
ATOM     20  C   UNL     1       0.684  12.319  19.215  0.00  0.00    +0.000 C 
ATOM     21  C   UNL     1       1.609  11.391  18.460  0.00  0.00    +0.000 C 
ATOM     22  O   UNL     1       2.655  11.829  17.970  0.00  0.00    +0.000 OA
ENDBRANCH  15  16
ENDBRANCH   3  15
TORSDOF 3
ENDMDL
MODEL 3
REMARK VINA RESULT:      -7.3      1.838      2.051
REMARK  Name = 
REMARK  5 active torsions:
REMARK  status: ('A' for Active; 'I' for Inactive)
REMARK    1  A    between atoms: C_1  and  O_2
REMARK    2  A    between atoms: O_2  and  C_3
REMARK    3  A    between atoms: C_5  and  O_6
REMARK    4  A    between atoms: O_6  and  C_7
REMARK    5  A    between atoms: C_20  and  C_21
REMARK                            x       y       z     vdW  Elec       q    Type
REMARK                         _______ _______ _______ _____ _____    ______ ____
ROOT
ATOM      1  C   UNL     1       2.616   5.369  19.129  0.00  0.00    +0.000 A 
ATOM      2  C   UNL     1       2.056   6.577  19.595  0.00  0.00    +0.000 A 
ATOM      3  C   UNL     1       2.284   7.796  18.964  0.00  0.00    +0.000 A 
ATOM      4  C   UNL     1       3.099   7.807  17.843  0.00  0.00    +0.000 A 
ATOM      5  C   UNL     1       3.734   6.615  17.435  0.00  0.00    +0.000 A 
ATOM      6  O   UNL     1       4.623   6.762  16.348  0.00  0.00    +0.000 OA
ATOM      7  C   UNL     1       5.395   5.707  15.906  0.00  0.00    +0.000 A 
ATOM      8  O   UNL     1       6.236   5.833  15.021  0.00  0.00    +0.000 OA
ATOM      9  C   UNL     1       5.153   4.403  16.531  0.00  0.00    +0.000 A 
ATOM     10  C   UNL     1       4.271   4.207  17.529  0.00  0.00    +0.000 A 
ATOM     11  C   UNL     1       4.105   2.812  18.069  0.00  0.00    +0.000 C 
ATOM     12  C   UNL     1       3.527   5.373  18.058  0.00  0.00    +0.000 A 
ENDROOT
BRANCH   1  14
ATOM     13  C   UNL     1       1.041   4.176  20.431  0.00  0.00    +0.000 C 
ATOM     14  O   UNL     1       2.289   4.177  19.732  0.00  0.00    +0.000 OA
ENDBRANCH   1  14
BRANCH   3  15
ATOM     15  O   UNL     1       1.672   8.963  19.356  0.00  0.00    +0.000 OA
BRANCH  15  16
ATOM     16  C   UNL     1       1.323   9.857  18.289  0.00  0.00    +0.000 C 
ATOM     17  C   UNL     1      -0.184   9.761  18.018  0.00  0.00    +0.000 C 
ATOM     18  C   UNL     1      -1.044  10.420  19.098  0.00  0.00    +0.000 C 
ATOM     19  C   UNL     1      -0.686  11.884  19.316  0.00  0.00    +0.000 C 
ATOM     20  C   UNL     1       0.804  12.139  19.471  0.00  0.00    +0.000 C 
ATOM     21  C   UNL     1       1.660  11.340  18.515  0.00  0.00    +0.000 C 
ATOM     22  O   UNL     1       2.653  11.860  17.996  0.00  0.00    +0.000 OA
ENDBRANCH  15  16
ENDBRANCH   3  15
TORSDOF 3
ENDMDL
MODEL 4
REMARK VINA RESULT:      -7.3      1.791      7.267
REMARK  Name = 
REMARK  5 active torsions:
REMARK  status: ('A' for Active; 'I' for Inactive)
REMARK    1  A    between atoms: C_1  and  O_2
REMARK    2  A    between atoms: O_2  and  C_3
REMARK    3  A    between atoms: C_5  and  O_6
REMARK    4  A    between atoms: O_6  and  C_7
REMARK    5  A    between atoms: C_20  and  C_21
REMARK                            x       y       z     vdW  Elec       q    Type
REMARK                         _______ _______ _______ _____ _____    ______ ____
ROOT
ATOM      1  C   UNL     1       0.473   9.706  18.699  0.00  0.00    +0.000 A 
ATOM      2  C   UNL     1       1.394   8.828  18.090  0.00  0.00    +0.000 A 
ATOM      3  C   UNL     1       2.119   7.888  18.817  0.00  0.00    +0.000 A 
ATOM      4  C   UNL     1       1.923   7.833  20.187  0.00  0.00    +0.000 A 
ATOM      5  C   UNL     1       1.073   8.774  20.806  0.00  0.00    +0.000 A 
ATOM      6  O   UNL     1       1.030   8.693  22.214  0.00  0.00    +0.000 OA
ATOM      7  C   UNL     1       0.326   9.615  22.965  0.00  0.00    +0.000 A 
ATOM      8  O   UNL     1       0.344   9.616  24.191  0.00  0.00    +0.000 OA
ATOM      9  C   UNL     1      -0.472  10.597  22.225  0.00  0.00    +0.000 A 
ATOM     10  C   UNL     1      -0.506  10.670  20.881  0.00  0.00    +0.000 A 
ATOM     11  C   UNL     1      -1.385  11.715  20.246  0.00  0.00    +0.000 C 
ATOM     12  C   UNL     1       0.336   9.738  20.098  0.00  0.00    +0.000 A 
ENDROOT
BRANCH   1  14
ATOM     13  C   UNL     1      -1.421   9.952  17.301  0.00  0.00    +0.000 C 
ATOM     14  O   UNL     1      -0.286  10.557  17.928  0.00  0.00    +0.000 OA
ENDBRANCH   1  14
BRANCH   3  15
ATOM     15  O   UNL     1       2.950   6.969  18.223  0.00  0.00    +0.000 OA
BRANCH  15  16
ATOM     16  C   UNL     1       3.255   5.817  19.022  0.00  0.00    +0.000 C 
ATOM     17  C   UNL     1       2.219   4.718  18.747  0.00  0.00    +0.000 C 
ATOM     18  C   UNL     1       2.387   4.045  17.385  0.00  0.00    +0.000 C 
ATOM     19  C   UNL     1       3.778   3.455  17.194  0.00  0.00    +0.000 C 
ATOM     20  C   UNL     1       4.908   4.403  17.558  0.00  0.00    +0.000 C 
ATOM     21  C   UNL     1       4.649   5.202  18.815  0.00  0.00    +0.000 C 
ATOM     22  O   UNL     1       5.570   5.415  19.610  0.00  0.00    +0.000 OA
ENDBRANCH  15  16
ENDBRANCH   3  15
TORSDOF 3
ENDMDL
MODEL 5
REMARK VINA RESULT:      -7.1      1.680      6.811
REMARK  Name = 
REMARK  5 active torsions:
REMARK  status: ('A' for Active; 'I' for Inactive)
REMARK    1  A    between atoms: C_1  and  O_2
REMARK    2  A    between atoms: O_2  and  C_3
REMARK    3  A    between atoms: C_5  and  O_6
REMARK    4  A    between atoms: O_6  and  C_7
REMARK    5  A    between atoms: C_20  and  C_21
REMARK                            x       y       z     vdW  Elec       q    Type
REMARK                         _______ _______ _______ _____ _____    ______ ____
ROOT
ATOM      1  C   UNL     1       2.008   6.940  19.856  0.00  0.00    +0.000 A 
ATOM      2  C   UNL     1       2.852   6.287  18.934  0.00  0.00    +0.000 A 
ATOM      3  C   UNL     1       3.396   6.938  17.830  0.00  0.00    +0.000 A 
ATOM      4  C   UNL     1       3.078   8.273  17.641  0.00  0.00    +0.000 A 
ATOM      5  C   UNL     1       2.159   8.898  18.509  0.00  0.00    +0.000 A 
ATOM      6  O   UNL     1       1.829  10.226  18.162  0.00  0.00    +0.000 OA
ATOM      7  C   UNL     1       0.863  10.930  18.855  0.00  0.00    +0.000 A 
ATOM      8  O   UNL     1       0.499  12.051  18.518  0.00  0.00    +0.000 OA
ATOM      9  C   UNL     1       0.298  10.281  20.041  0.00  0.00    +0.000 A 
ATOM     10  C   UNL     1       0.630   9.040  20.443  0.00  0.00    +0.000 A 
ATOM     11  C   UNL     1      -0.012   8.499  21.692  0.00  0.00    +0.000 C 
ATOM     12  C   UNL     1       1.590   8.263  19.626  0.00  0.00    +0.000 A 
ENDROOT
BRANCH   1  14
ATOM     13  C   UNL     1       1.888   4.887  21.026  0.00  0.00    +0.000 C 
ATOM     14  O   UNL     1       1.568   6.280  20.980  0.00  0.00    +0.000 OA
ENDBRANCH   1  14
BRANCH   3  15
ATOM     15  O   UNL     1       4.290   6.336  16.977  0.00  0.00    +0.000 OA
BRANCH  15  16
ATOM     16  C   UNL     1       4.695   5.011  17.354  0.00  0.00    +0.000 C 
ATOM     17  C   UNL     1       4.743   4.121  16.105  0.00  0.00    +0.000 C 
ATOM     18  C   UNL     1       5.928   4.419  15.185  0.00  0.00    +0.000 C 
ATOM     19  C   UNL     1       7.266   4.315  15.904  0.00  0.00    +0.000 C 
ATOM     20  C   UNL     1       7.313   5.051  17.232  0.00  0.00    +0.000 C 
ATOM     21  C   UNL     1       6.056   4.897  18.058  0.00  0.00    +0.000 C 
ATOM     22  O   UNL     1       6.137   4.763  19.283  0.00  0.00    +0.000 OA
ENDBRANCH  15  16
ENDBRANCH   3  15
TORSDOF 3
ENDMDL
MODEL 6
REMARK VINA RESULT:      -7.1      1.082      3.286
REMARK  Name = 
REMARK  5 active torsions:
REMARK  status: ('A' for Active; 'I' for Inactive)
REMARK    1  A    between atoms: C_1  and  O_2
REMARK    2  A    between atoms: O_2  and  C_3
REMARK    3  A    between atoms: C_5  and  O_6
REMARK    4  A    between atoms: O_6  and  C_7
REMARK    5  A    between atoms: C_20  and  C_21
REMARK                            x       y       z     vdW  Elec       q    Type
REMARK                         _______ _______ _______ _____ _____    ______ ____
ROOT
ATOM      1  C   UNL     1       2.989   6.191  18.445  0.00  0.00    +0.000 A 
ATOM      2  C   UNL     1       2.464   7.455  18.789  0.00  0.00    +0.000 A 
ATOM      3  C   UNL     1       1.853   7.698  20.016  0.00  0.00    +0.000 A 
ATOM      4  C   UNL     1       1.757   6.648  20.915  0.00  0.00    +0.000 A 
ATOM      5  C   UNL     1       2.196   5.364  20.533  0.00  0.00    +0.000 A 
ATOM      6  O   UNL     1       1.955   4.350  21.484  0.00  0.00    +0.000 OA
ATOM      7  C   UNL     1       2.233   3.026  21.208  0.00  0.00    +0.000 A 
ATOM      8  O   UNL     1       1.952   2.119  21.985  0.00  0.00    +0.000 OA
ATOM      9  C   UNL     1       2.907   2.744  19.937  0.00  0.00    +0.000 A 
ATOM     10  C   UNL     1       3.210   3.689  19.028  0.00  0.00    +0.000 A 
ATOM     11  C   UNL     1       3.921   3.267  17.771  0.00  0.00    +0.000 C 
ATOM     12  C   UNL     1       2.810   5.089  19.299  0.00  0.00    +0.000 A 
ENDROOT
BRANCH   1  14
ATOM     13  C   UNL     1       4.830   6.837  17.106  0.00  0.00    +0.000 C 
ATOM     14  O   UNL     1       3.664   6.023  17.258  0.00  0.00    +0.000 OA
ENDBRANCH   1  14
BRANCH   3  15
ATOM     15  O   UNL     1       1.419   8.946  20.397  0.00  0.00    +0.000 OA
BRANCH  15  16
ATOM     16  C   UNL     1      -0.006   9.100  20.472  0.00  0.00    +0.000 C 
ATOM     17  C   UNL     1      -0.484   8.713  21.878  0.00  0.00    +0.000 C 
ATOM     18  C   UNL     1      -0.132   9.744  22.951  0.00  0.00    +0.000 C 
ATOM     19  C   UNL     1      -0.668  11.132  22.624  0.00  0.00    +0.000 C 
ATOM     20  C   UNL     1      -0.373  11.590  21.206  0.00  0.00    +0.000 C 
ATOM     21  C   UNL     1      -0.549  10.505  20.167  0.00  0.00    +0.000 C 
ATOM     22  O   UNL     1      -1.050  10.776  19.072  0.00  0.00    +0.000 OA
ENDBRANCH  15  16
ENDBRANCH   3  15
TORSDOF 3
ENDMDL
MODEL 7
REMARK VINA RESULT:      -7.0      3.150      5.877
REMARK  Name = 
REMARK  5 active torsions:
REMARK  status: ('A' for Active; 'I' for Inactive)
REMARK    1  A    between atoms: C_1  and  O_2
REMARK    2  A    between atoms: O_2  and  C_3
REMARK    3  A    between atoms: C_5  and  O_6
REMARK    4  A    between atoms: O_6  and  C_7
REMARK    5  A    between atoms: C_20  and  C_21
REMARK                            x       y       z     vdW  Elec       q    Type
REMARK                         _______ _______ _______ _____ _____    ______ ____
ROOT
ATOM      1  C   UNL     1       6.761   5.703  16.126  0.00  0.00    +0.000 A 
ATOM      2  C   UNL     1       5.855   5.564  17.198  0.00  0.00    +0.000 A 
ATOM      3  C   UNL     1       4.831   4.621  17.191  0.00  0.00    +0.000 A 
ATOM      4  C   UNL     1       4.706   3.804  16.078  0.00  0.00    +0.000 A 
ATOM      5  C   UNL     1       5.552   4.008  14.969  0.00  0.00    +0.000 A 
ATOM      6  O   UNL     1       5.269   3.192  13.852  0.00  0.00    +0.000 OA
ATOM      7  C   UNL     1       5.942   3.352  12.658  0.00  0.00    +0.000 A 
ATOM      8  O   UNL     1       5.654   2.714  11.650  0.00  0.00    +0.000 OA
ATOM      9  C   UNL     1       7.048   4.314  12.646  0.00  0.00    +0.000 A 
ATOM     10  C   UNL     1       7.391   5.069  13.707  0.00  0.00    +0.000 A 
ATOM     11  C   UNL     1       8.560   6.006  13.567  0.00  0.00    +0.000 C 
ATOM     12  C   UNL     1       6.589   4.957  14.947  0.00  0.00    +0.000 A 
ENDROOT
BRANCH   1  14
ATOM     13  C   UNL     1       7.714   7.531  17.287  0.00  0.00    +0.000 C 
ATOM     14  O   UNL     1       7.812   6.586  16.217  0.00  0.00    +0.000 OA
ENDBRANCH   1  14
BRANCH   3  15
ATOM     15  O   UNL     1       4.000   4.417  18.267  0.00  0.00    +0.000 OA
BRANCH  15  16
ATOM     16  C   UNL     1       2.759   5.136  18.224  0.00  0.00    +0.000 C 
ATOM     17  C   UNL     1       1.622   4.167  17.875  0.00  0.00    +0.000 C 
ATOM     18  C   UNL     1       1.247   3.224  19.019  0.00  0.00    +0.000 C 
ATOM     19  C   UNL     1       0.870   3.972  20.291  0.00  0.00    +0.000 C 
ATOM     20  C   UNL     1       1.856   5.060  20.684  0.00  0.00    +0.000 C 
ATOM     21  C   UNL     1       2.362   5.872  19.514  0.00  0.00    +0.000 C 
ATOM     22  O   UNL     1       2.523   7.091  19.634  0.00  0.00    +0.000 OA
ENDBRANCH  15  16
ENDBRANCH   3  15
TORSDOF 3
ENDMDL
MODEL 8
REMARK VINA RESULT:      -7.0      4.043      6.260
REMARK  Name = 
REMARK  5 active torsions:
REMARK  status: ('A' for Active; 'I' for Inactive)
REMARK    1  A    between atoms: C_1  and  O_2
REMARK    2  A    between atoms: O_2  and  C_3
REMARK    3  A    between atoms: C_5  and  O_6
REMARK    4  A    between atoms: O_6  and  C_7
REMARK    5  A    between atoms: C_20  and  C_21
REMARK                            x       y       z     vdW  Elec       q    Type
REMARK                         _______ _______ _______ _____ _____    ______ ____
ROOT
ATOM      1  C   UNL     1       6.760   5.737  16.230  0.00  0.00    +0.000 A 
ATOM      2  C   UNL     1       5.882   5.597  17.326  0.00  0.00    +0.000 A 
ATOM      3  C   UNL     1       4.868   4.644  17.351  0.00  0.00    +0.000 A 
ATOM      4  C   UNL     1       4.724   3.818  16.248  0.00  0.00    +0.000 A 
ATOM      5  C   UNL     1       5.540   4.022  15.116  0.00  0.00    +0.000 A 
ATOM      6  O   UNL     1       5.237   3.195  14.013  0.00  0.00    +0.000 OA
ATOM      7  C   UNL     1       5.879   3.352  12.801  0.00  0.00    +0.000 A 
ATOM      8  O   UNL     1       5.573   2.703  11.806  0.00  0.00    +0.000 OA
ATOM      9  C   UNL     1       6.974   4.325  12.754  0.00  0.00    +0.000 A 
ATOM     10  C   UNL     1       7.335   5.092  13.801  0.00  0.00    +0.000 A 
ATOM     11  C   UNL     1       8.491   6.039  13.625  0.00  0.00    +0.000 C 
ATOM     12  C   UNL     1       6.565   4.981  15.061  0.00  0.00    +0.000 A 
ENDROOT
BRANCH   1  14
ATOM     13  C   UNL     1       7.747   7.553  17.383  0.00  0.00    +0.000 C 
ATOM     14  O   UNL     1       7.803   6.632  16.289  0.00  0.00    +0.000 OA
ENDBRANCH   1  14
BRANCH   3  15
ATOM     15  O   UNL     1       4.066   4.440  18.449  0.00  0.00    +0.000 OA
BRANCH  15  16
ATOM     16  C   UNL     1       3.128   3.361  18.326  0.00  0.00    +0.000 C 
ATOM     17  C   UNL     1       3.417   2.311  19.407  0.00  0.00    +0.000 C 
ATOM     18  C   UNL     1       3.008   2.749  20.813  0.00  0.00    +0.000 C 
ATOM     19  C   UNL     1       1.538   3.137  20.899  0.00  0.00    +0.000 C 
ATOM     20  C   UNL     1       1.082   4.082  19.799  0.00  0.00    +0.000 C 
ATOM     21  C   UNL     1       1.643   3.743  18.436  0.00  0.00    +0.000 C 
ATOM     22  O   UNL     1       0.932   3.854  17.433  0.00  0.00    +0.000 OA
ENDBRANCH  15  16
ENDBRANCH   3  15
TORSDOF 3
ENDMDL
MODEL 9
REMARK VINA RESULT:      -7.0      1.934      3.594
REMARK  Name = 
REMARK  5 active torsions:
REMARK  status: ('A' for Active; 'I' for Inactive)
REMARK    1  A    between atoms: C_1  and  O_2
REMARK    2  A    between atoms: O_2  and  C_3
REMARK    3  A    between atoms: C_5  and  O_6
REMARK    4  A    between atoms: O_6  and  C_7
REMARK    5  A    between atoms: C_20  and  C_21
REMARK                            x       y       z     vdW  Elec       q    Type
REMARK                         _______ _______ _______ _____ _____    ______ ____
ROOT
ATOM      1  C   UNL     1       4.070   6.579  17.320  0.00  0.00    +0.000 A 
ATOM      2  C   UNL     1       3.412   7.747  17.760  0.00  0.00    +0.000 A 
ATOM      3  C   UNL     1       2.359   7.711  18.670  0.00  0.00    +0.000 A 
ATOM      4  C   UNL     1       1.951   6.474  19.143  0.00  0.00    +0.000 A 
ATOM      5  C   UNL     1       2.546   5.303  18.631  0.00  0.00    +0.000 A 
ATOM      6  O   UNL     1       1.982   4.099  19.104  0.00  0.00    +0.000 OA
ATOM      7  C   UNL     1       2.388   2.874  18.612  0.00  0.00    +0.000 A 
ATOM      8  O   UNL     1       1.853   1.821  18.945  0.00  0.00    +0.000 OA
ATOM      9  C   UNL     1       3.517   2.879  17.677  0.00  0.00    +0.000 A 
ATOM     10  C   UNL     1       4.123   4.002  17.247  0.00  0.00    +0.000 A 
ATOM     11  C   UNL     1       5.285   3.866  16.300  0.00  0.00    +0.000 C 
ATOM     12  C   UNL     1       3.604   5.310  17.707  0.00  0.00    +0.000 A 
ENDROOT
BRANCH   1  14
ATOM     13  C   UNL     1       6.366   7.117  17.123  0.00  0.00    +0.000 C 
ATOM     14  O   UNL     1       5.163   6.672  16.490  0.00  0.00    +0.000 OA
ENDBRANCH   1  14
BRANCH   3  15
ATOM     15  O   UNL     1       1.771   8.847  19.173  0.00  0.00    +0.000 OA
BRANCH  15  16
ATOM     16  C   UNL     1       1.368   9.811  18.190  0.00  0.00    +0.000 C 
ATOM     17  C   UNL     1      -0.151   9.726  17.989  0.00  0.00    +0.000 C 
ATOM     18  C   UNL     1      -0.957  10.304  19.153  0.00  0.00    +0.000 C 
ATOM     19  C   UNL     1      -0.590  11.751  19.454  0.00  0.00    +0.000 C 
ATOM     20  C   UNL     1       0.905  12.003  19.552  0.00  0.00    +0.000 C 
ATOM     21  C   UNL     1       1.713  11.276  18.501  0.00  0.00    +0.000 C 
ATOM     22  O   UNL     1       2.678  11.835  17.970  0.00  0.00    +0.000 OA
ENDBRANCH  15  16
ENDBRANCH   3  15
TORSDOF 3
ENDMDL
