MODEL 1
REMARK VINA RESULT:      -7.7      0.000      0.000
REMARK  Name = 
REMARK  12 active torsions:
REMARK  status: ('A' for Active; 'I' for Inactive)
REMARK    1  A    between atoms: C_1  and  C_2
REMARK    2  A    between atoms: C_2  and  C_3
REMARK    3  A    between atoms: C_3  and  N_4
REMARK    4  A    between atoms: C_9  and  C_10
REMARK    5  A    between atoms: C_13  and  C_14
REMARK    6  A    between atoms: N_16  and  C_17
REMARK    7  A    between atoms: C_17  and  C_18
REMARK    8  A    between atoms: C_18  and  O_20
REMARK    9  A    between atoms: O_20  and  C_21
REMARK   10  A    between atoms: N_28  and  C_29
REMARK   11  A    between atoms: C_29  and  C_30
REMARK   12  A    between atoms: C_30  and  C_31
REMARK                            x       y       z     vdW  Elec       q    Type
REMARK                         _______ _______ _______ _____ _____    ______ ____
ROOT
ATOM      1  N   UNL     1       5.091   5.301  17.491  0.00  0.00    +0.000 N 
ATOM      2  C   UNL     1       4.638   6.556  17.044  0.00  0.00    +0.000 A 
ATOM      3  O   UNL     1       5.094   7.137  16.063  0.00  0.00    +0.000 OA
ATOM      4  C   UNL     1       3.574   7.099  17.857  0.00  0.00    +0.000 A 
ATOM      5  N   UNL     1       2.903   8.288  17.711  0.00  0.00    +0.000 NA
ATOM      6  C   UNL     1       2.032   8.342  18.705  0.00  0.00    +0.000 A 
ATOM      7  N   UNL     1       2.127   7.199  19.482  0.00  0.00    +0.000 N 
ATOM      8  C   UNL     1       3.109   6.413  18.942  0.00  0.00    +0.000 A 
ATOM      9  N   UNL     1       3.577   5.185  19.371  0.00  0.00    +0.000 N 
ATOM     10  C   UNL     1       4.616   4.594  18.617  0.00  0.00    +0.000 A 
ATOM     11  O   UNL     1       5.090   3.499  18.935  0.00  0.00    +0.000 OA
ATOM     12  H   UNL     1       1.574   6.992  20.301  0.00  0.00    +0.000 HD
ENDROOT
BRANCH   6  13
ATOM     13  C   UNL     1       1.047   9.470  18.942  0.00  0.00    +0.000 C 
ATOM     14  C   UNL     1       1.738  10.842  18.765  0.00  0.00    +0.000 C 
ATOM     15  C   UNL     1       0.756  11.991  19.055  0.00  0.00    +0.000 C 
ATOM     16  C   UNL     1      -0.645  11.455  19.445  0.00  0.00    +0.000 C 
ATOM     17  C   UNL     1      -0.473  10.556  20.686  0.00  0.00    +0.000 C 
ATOM     18  C   UNL     1       0.504   9.407  20.397  0.00  0.00    +0.000 C 
ATOM     19  C   UNL     1      -1.149  10.576  18.279  0.00  0.00    +0.000 C 
ATOM     20  C   UNL     1      -0.170   9.424  17.989  0.00  0.00    +0.000 C 
BRANCH  16  21
ATOM     21  C   UNL     1      -1.620  12.618  19.719  0.00  0.00    +0.000 C 
ATOM     22  O   UNL     1      -1.273  13.797  19.686  0.00  0.00    +0.000 OA
ATOM     23  N   UNL     1      -2.921  12.261  19.982  0.00  0.00    +0.000 N 
ATOM     24  H   UNL     1      -3.203  11.288  20.022  0.00  0.00    +0.000 HD
BRANCH  23  25
ATOM     25  C   UNL     1      -3.949  13.258  20.251  0.00  0.00    +0.000 C 
BRANCH  25  26
ATOM     26  C   UNL     1      -4.332  13.259  21.728  0.00  0.00    +0.000 C 
ATOM     27  O   UNL     1      -3.862  14.035  22.559  0.00  0.00    +0.000 OA
BRANCH  26  28
ATOM     28  O   UNL     1      -5.252  12.290  21.989  0.00  0.00    +0.000 OA
ATOM     29  C   UNL     1      -6.403  12.323  21.141  0.00  0.00    +0.000 C 
ENDBRANCH  26  28
ENDBRANCH  25  26
ENDBRANCH  23  25
ENDBRANCH  16  21
ENDBRANCH   6  13
BRANCH   1  30
ATOM     30  C   UNL     1       6.167   4.686  16.716  0.00  0.00    +0.000 C 
BRANCH  30  32
ATOM     31  C   UNL     1       6.413   4.104  14.276  0.00  0.00    +0.000 C 
ATOM     32  C   UNL     1       5.641   3.829  15.560  0.00  0.00    +0.000 C 
ENDBRANCH  30  32
ENDBRANCH   1  30
BRANCH   9  33
ATOM     33  C   UNL     1       3.096   4.491  20.568  0.00  0.00    +0.000 C 
BRANCH  33  34
ATOM     34  C   UNL     1       1.742   3.791  20.402  0.00  0.00    +0.000 C 
ATOM     35  C   UNL     1       1.466   2.697  21.423  0.00  0.00    +0.000 C 
ENDBRANCH  33  34
ENDBRANCH   9  33
TORSDOF 9
ENDMDL
MODEL 2
REMARK VINA RESULT:      -7.7      0.462      1.385
REMARK  Name = 
REMARK  12 active torsions:
REMARK  status: ('A' for Active; 'I' for Inactive)
REMARK    1  A    between atoms: C_1  and  C_2
REMARK    2  A    between atoms: C_2  and  C_3
REMARK    3  A    between atoms: C_3  and  N_4
REMARK    4  A    between atoms: C_9  and  C_10
REMARK    5  A    between atoms: C_13  and  C_14
REMARK    6  A    between atoms: N_16  and  C_17
REMARK    7  A    between atoms: C_17  and  C_18
REMARK    8  A    between atoms: C_18  and  O_20
REMARK    9  A    between atoms: O_20  and  C_21
REMARK   10  A    between atoms: N_28  and  C_29
REMARK   11  A    between atoms: C_29  and  C_30
REMARK   12  A    between atoms: C_30  and  C_31
REMARK                            x       y       z     vdW  Elec       q    Type
REMARK                         _______ _______ _______ _____ _____    ______ ____
ROOT
ATOM      1  N   UNL     1       4.906   5.212  17.528  0.00  0.00    +0.000 N 
ATOM      2  C   UNL     1       4.492   6.477  17.072  0.00  0.00    +0.000 A 
ATOM      3  O   UNL     1       4.941   7.022  16.066  0.00  0.00    +0.000 OA
ATOM      4  C   UNL     1       3.478   7.080  17.907  0.00  0.00    +0.000 A 
ATOM      5  N   UNL     1       2.853   8.293  17.760  0.00  0.00    +0.000 NA
ATOM      6  C   UNL     1       2.016   8.401  18.779  0.00  0.00    +0.000 A 
ATOM      7  N   UNL     1       2.088   7.268  19.574  0.00  0.00    +0.000 N 
ATOM      8  C   UNL     1       3.018   6.433  19.018  0.00  0.00    +0.000 A 
ATOM      9  N   UNL     1       3.448   5.193  19.455  0.00  0.00    +0.000 N 
ATOM     10  C   UNL     1       4.437   4.546  18.681  0.00  0.00    +0.000 A 
ATOM     11  O   UNL     1       4.875   3.438  19.004  0.00  0.00    +0.000 OA
ATOM     12  H   UNL     1       1.553   7.100  20.413  0.00  0.00    +0.000 HD
ENDROOT
BRANCH   6  13
ATOM     13  C   UNL     1       1.088   9.574  19.025  0.00  0.00    +0.000 C 
ATOM     14  C   UNL     1       0.541   9.541  20.470  0.00  0.00    +0.000 C 
ATOM     15  C   UNL     1      -0.443  10.700  20.711  0.00  0.00    +0.000 C 
ATOM     16  C   UNL     1      -0.612  11.572  19.440  0.00  0.00    +0.000 C 
ATOM     17  C   UNL     1      -1.114  10.655  18.307  0.00  0.00    +0.000 C 
ATOM     18  C   UNL     1      -0.132   9.500  18.065  0.00  0.00    +0.000 C 
ATOM     19  C   UNL     1       0.784  12.102  19.049  0.00  0.00    +0.000 C 
ATOM     20  C   UNL     1       1.769  10.945  18.805  0.00  0.00    +0.000 C 
BRANCH  16  21
ATOM     21  C   UNL     1      -1.590  12.737  19.701  0.00  0.00    +0.000 C 
ATOM     22  O   UNL     1      -1.306  13.909  19.461  0.00  0.00    +0.000 OA
ATOM     23  N   UNL     1      -2.821  12.385  20.201  0.00  0.00    +0.000 N 
ATOM     24  H   UNL     1      -3.049  11.420  20.411  0.00  0.00    +0.000 HD
BRANCH  23  25
ATOM     25  C   UNL     1      -3.844  13.383  20.487  0.00  0.00    +0.000 C 
BRANCH  25  26
ATOM     26  C   UNL     1      -4.672  12.979  21.704  0.00  0.00    +0.000 C 
ATOM     27  O   UNL     1      -5.660  12.248  21.651  0.00  0.00    +0.000 OA
BRANCH  26  28
ATOM     28  O   UNL     1      -4.169  13.542  22.837  0.00  0.00    +0.000 OA
ATOM     29  C   UNL     1      -3.757  12.600  23.832  0.00  0.00    +0.000 C 
ENDBRANCH  26  28
ENDBRANCH  25  26
ENDBRANCH  23  25
ENDBRANCH  16  21
ENDBRANCH   6  13
BRANCH   1  30
ATOM     30  C   UNL     1       5.930   4.539  16.732  0.00  0.00    +0.000 C 
BRANCH  30  32
ATOM     31  C   UNL     1       6.130   4.026  14.272  0.00  0.00    +0.000 C 
ATOM     32  C   UNL     1       5.339   3.767  15.548  0.00  0.00    +0.000 C 
ENDBRANCH  30  32
ENDBRANCH   1  30
BRANCH   9  33
ATOM     33  C   UNL     1       2.976   4.541  20.679  0.00  0.00    +0.000 C 
BRANCH  33  34
ATOM     34  C   UNL     1       1.634   3.814  20.541  0.00  0.00    +0.000 C 
ATOM     35  C   UNL     1       1.462   2.622  21.471  0.00  0.00    +0.000 C 
ENDBRANCH  33  34
ENDBRANCH   9  33
TORSDOF 9
ENDMDL
MODEL 3
REMARK VINA RESULT:      -7.4      1.140      1.731
REMARK  Name = 
REMARK  12 active torsions:
REMARK  status: ('A' for Active; 'I' for Inactive)
REMARK    1  A    between atoms: C_1  and  C_2
REMARK    2  A    between atoms: C_2  and  C_3
REMARK    3  A    between atoms: C_3  and  N_4
REMARK    4  A    between atoms: C_9  and  C_10
REMARK    5  A    between atoms: C_13  and  C_14
REMARK    6  A    between atoms: N_16  and  C_17
REMARK    7  A    between atoms: C_17  and  C_18
REMARK    8  A    between atoms: C_18  and  O_20
REMARK    9  A    between atoms: O_20  and  C_21
REMARK   10  A    between atoms: N_28  and  C_29
REMARK   11  A    between atoms: C_29  and  C_30
REMARK   12  A    between atoms: C_30  and  C_31
REMARK                            x       y       z     vdW  Elec       q    Type
REMARK                         _______ _______ _______ _____ _____    ______ ____
ROOT
ATOM      1  N   UNL     1       5.194   4.928  16.759  0.00  0.00    +0.000 N 
ATOM      2  C   UNL     1       5.097   6.331  16.812  0.00  0.00    +0.000 A 
ATOM      3  O   UNL     1       5.959   7.092  16.381  0.00  0.00    +0.000 OA
ATOM      4  C   UNL     1       3.874   6.794  17.428  0.00  0.00    +0.000 A 
ATOM      5  N   UNL     1       3.455   8.083  17.642  0.00  0.00    +0.000 NA
ATOM      6  C   UNL     1       2.282   7.992  18.247  0.00  0.00    +0.000 A 
ATOM      7  N   UNL     1       1.938   6.661  18.417  0.00  0.00    +0.000 N 
ATOM      8  C   UNL     1       2.952   5.903  17.898  0.00  0.00    +0.000 A 
ATOM      9  N   UNL     1       3.073   4.526  17.845  0.00  0.00    +0.000 N 
ATOM     10  C   UNL     1       4.245   4.006  17.250  0.00  0.00    +0.000 A 
ATOM     11  O   UNL     1       4.429   2.788  17.166  0.00  0.00    +0.000 OA
ATOM     12  H   UNL     1       1.094   6.319  18.851  0.00  0.00    +0.000 HD
ENDROOT
BRANCH   6  13
ATOM     13  C   UNL     1       1.422   9.168  18.664  0.00  0.00    +0.000 C 
ATOM     14  C   UNL     1       0.087   9.170  17.885  0.00  0.00    +0.000 C 
ATOM     15  C   UNL     1      -0.770  10.390  18.267  0.00  0.00    +0.000 C 
ATOM     16  C   UNL     1      -0.056  11.276  19.320  0.00  0.00    +0.000 C 
ATOM     17  C   UNL     1       1.293  11.720  18.719  0.00  0.00    +0.000 C 
ATOM     18  C   UNL     1       2.149  10.504  18.341  0.00  0.00    +0.000 C 
ATOM     19  C   UNL     1       0.232  10.394  20.553  0.00  0.00    +0.000 C 
ATOM     20  C   UNL     1       1.092   9.174  20.175  0.00  0.00    +0.000 C 
BRANCH  16  21
ATOM     21  C   UNL     1      -0.932  12.487  19.701  0.00  0.00    +0.000 C 
ATOM     22  O   UNL     1      -0.856  13.570  19.123  0.00  0.00    +0.000 OA
ATOM     23  N   UNL     1      -1.832  12.280  20.719  0.00  0.00    +0.000 N 
ATOM     24  H   UNL     1      -1.884  11.390  21.203  0.00  0.00    +0.000 HD
BRANCH  23  25
ATOM     25  C   UNL     1      -2.727  13.335  21.176  0.00  0.00    +0.000 C 
BRANCH  25  26
ATOM     26  C   UNL     1      -3.903  12.751  21.953  0.00  0.00    +0.000 C 
ATOM     27  O   UNL     1      -5.077  12.846  21.597  0.00  0.00    +0.000 OA
BRANCH  26  28
ATOM     28  O   UNL     1      -3.472  12.124  23.083  0.00  0.00    +0.000 OA
ATOM     29  C   UNL     1      -4.133  12.543  24.280  0.00  0.00    +0.000 C 
ENDBRANCH  26  28
ENDBRANCH  25  26
ENDBRANCH  23  25
ENDBRANCH  16  21
ENDBRANCH   6  13
BRANCH   1  30
ATOM     30  C   UNL     1       6.405   4.384  16.146  0.00  0.00    +0.000 C 
BRANCH  30  32
ATOM     31  C   UNL     1       7.161   4.886  13.795  0.00  0.00    +0.000 C 
ATOM     32  C   UNL     1       6.215   4.063  14.660  0.00  0.00    +0.000 C 
ENDBRANCH  30  32
ENDBRANCH   1  30
BRANCH   9  33
ATOM     33  C   UNL     1       2.092   3.591  18.401  0.00  0.00    +0.000 C 
BRANCH  33  34
ATOM     34  C   UNL     1       2.249   3.312  19.900  0.00  0.00    +0.000 C 
ATOM     35  C   UNL     1       1.131   3.869  20.768  0.00  0.00    +0.000 C 
ENDBRANCH  33  34
ENDBRANCH   9  33
TORSDOF 9
ENDMDL
MODEL 4
REMARK VINA RESULT:      -7.4      1.180      1.661
REMARK  Name = 
REMARK  12 active torsions:
REMARK  status: ('A' for Active; 'I' for Inactive)
REMARK    1  A    between atoms: C_1  and  C_2
REMARK    2  A    between atoms: C_2  and  C_3
REMARK    3  A    between atoms: C_3  and  N_4
REMARK    4  A    between atoms: C_9  and  C_10
REMARK    5  A    between atoms: C_13  and  C_14
REMARK    6  A    between atoms: N_16  and  C_17
REMARK    7  A    between atoms: C_17  and  C_18
REMARK    8  A    between atoms: C_18  and  O_20
REMARK    9  A    between atoms: O_20  and  C_21
REMARK   10  A    between atoms: N_28  and  C_29
REMARK   11  A    between atoms: C_29  and  C_30
REMARK   12  A    between atoms: C_30  and  C_31
REMARK                            x       y       z     vdW  Elec       q    Type
REMARK                         _______ _______ _______ _____ _____    ______ ____
ROOT
ATOM      1  N   UNL     1       5.319   5.061  16.870  0.00  0.00    +0.000 N 
ATOM      2  C   UNL     1       5.240   6.462  16.985  0.00  0.00    +0.000 A 
ATOM      3  O   UNL     1       6.155   7.225  16.686  0.00  0.00    +0.000 OA
ATOM      4  C   UNL     1       3.966   6.920  17.490  0.00  0.00    +0.000 A 
ATOM      5  N   UNL     1       3.546   8.206  17.723  0.00  0.00    +0.000 NA
ATOM      6  C   UNL     1       2.314   8.110  18.195  0.00  0.00    +0.000 A 
ATOM      7  N   UNL     1       1.933   6.780  18.259  0.00  0.00    +0.000 N 
ATOM      8  C   UNL     1       2.984   6.027  17.813  0.00  0.00    +0.000 A 
ATOM      9  N   UNL     1       3.088   4.652  17.703  0.00  0.00    +0.000 N 
ATOM     10  C   UNL     1       4.308   4.137  17.211  0.00  0.00    +0.000 A 
ATOM     11  O   UNL     1       4.481   2.921  17.084  0.00  0.00    +0.000 OA
ATOM     12  H   UNL     1       1.041   6.435  18.583  0.00  0.00    +0.000 HD
ENDROOT
BRANCH   6  13
ATOM     13  C   UNL     1       1.433   9.283  18.577  0.00  0.00    +0.000 C 
ATOM     14  C   UNL     1       1.084   9.234  20.082  0.00  0.00    +0.000 C 
ATOM     15  C   UNL     1       0.147  10.393  20.466  0.00  0.00    +0.000 C 
ATOM     16  C   UNL     1      -0.187  11.281  19.240  0.00  0.00    +0.000 C 
ATOM     17  C   UNL     1      -0.841  10.379  18.174  0.00  0.00    +0.000 C 
ATOM     18  C   UNL     1       0.094   9.224  17.788  0.00  0.00    +0.000 C 
ATOM     19  C   UNL     1       1.147  11.811  18.671  0.00  0.00    +0.000 C 
ATOM     20  C   UNL     1       2.085  10.654  18.284  0.00  0.00    +0.000 C 
BRANCH  16  21
ATOM     21  C   UNL     1      -1.116  12.445  19.643  0.00  0.00    +0.000 C 
ATOM     22  O   UNL     1      -0.841  13.622  19.417  0.00  0.00    +0.000 OA
ATOM     23  N   UNL     1      -2.293  12.088  20.255  0.00  0.00    +0.000 N 
ATOM     24  H   UNL     1      -2.512  11.118  20.453  0.00  0.00    +0.000 HD
BRANCH  23  25
ATOM     25  C   UNL     1      -3.267  13.085  20.682  0.00  0.00    +0.000 C 
BRANCH  25  26
ATOM     26  C   UNL     1      -3.222  13.277  22.195  0.00  0.00    +0.000 C 
ATOM     27  O   UNL     1      -2.587  14.168  22.756  0.00  0.00    +0.000 OA
BRANCH  26  28
ATOM     28  O   UNL     1      -3.972  12.330  22.824  0.00  0.00    +0.000 OA
ATOM     29  C   UNL     1      -4.051  12.484  24.243  0.00  0.00    +0.000 C 
ENDBRANCH  26  28
ENDBRANCH  25  26
ENDBRANCH  23  25
ENDBRANCH  16  21
ENDBRANCH   6  13
BRANCH   1  30
ATOM     30  C   UNL     1       6.580   4.523  16.363  0.00  0.00    +0.000 C 
BRANCH  30  32
ATOM     31  C   UNL     1       5.959   3.929  13.994  0.00  0.00    +0.000 C 
ATOM     32  C   UNL     1       6.798   4.841  14.880  0.00  0.00    +0.000 C 
ENDBRANCH  30  32
ENDBRANCH   1  30
BRANCH   9  33
ATOM     33  C   UNL     1       2.039   3.711  18.103  0.00  0.00    +0.000 C 
BRANCH  33  34
ATOM     34  C   UNL     1       2.103   3.264  19.568  0.00  0.00    +0.000 C 
ATOM     35  C   UNL     1       1.028   3.864  20.461  0.00  0.00    +0.000 C 
ENDBRANCH  33  34
ENDBRANCH   9  33
TORSDOF 9
ENDMDL
MODEL 5
REMARK VINA RESULT:      -7.4      0.761      1.094
REMARK  Name = 
REMARK  12 active torsions:
REMARK  status: ('A' for Active; 'I' for Inactive)
REMARK    1  A    between atoms: C_1  and  C_2
REMARK    2  A    between atoms: C_2  and  C_3
REMARK    3  A    between atoms: C_3  and  N_4
REMARK    4  A    between atoms: C_9  and  C_10
REMARK    5  A    between atoms: C_13  and  C_14
REMARK    6  A    between atoms: N_16  and  C_17
REMARK    7  A    between atoms: C_17  and  C_18
REMARK    8  A    between atoms: C_18  and  O_20
REMARK    9  A    between atoms: O_20  and  C_21
REMARK   10  A    between atoms: N_28  and  C_29
REMARK   11  A    between atoms: C_29  and  C_30
REMARK   12  A    between atoms: C_30  and  C_31
REMARK                            x       y       z     vdW  Elec       q    Type
REMARK                         _______ _______ _______ _____ _____    ______ ____
ROOT
ATOM      1  N   UNL     1       5.295   5.157  17.390  0.00  0.00    +0.000 N 
ATOM      2  C   UNL     1       4.853   6.408  16.920  0.00  0.00    +0.000 A 
ATOM      3  O   UNL     1       5.315   6.967  15.929  0.00  0.00    +0.000 OA
ATOM      4  C   UNL     1       3.794   6.976  17.722  0.00  0.00    +0.000 A 
ATOM      5  N   UNL     1       3.134   8.167  17.555  0.00  0.00    +0.000 NA
ATOM      6  C   UNL     1       2.263   8.247  18.547  0.00  0.00    +0.000 A 
ATOM      7  N   UNL     1       2.348   7.117  19.345  0.00  0.00    +0.000 N 
ATOM      8  C   UNL     1       3.322   6.313  18.819  0.00  0.00    +0.000 A 
ATOM      9  N   UNL     1       3.779   5.089  19.271  0.00  0.00    +0.000 N 
ATOM     10  C   UNL     1       4.813   4.475  18.528  0.00  0.00    +0.000 A 
ATOM     11  O   UNL     1       5.277   3.382  18.866  0.00  0.00    +0.000 OA
ATOM     12  H   UNL     1       1.792   6.931  20.166  0.00  0.00    +0.000 HD
ENDROOT
BRANCH   6  13
ATOM     13  C   UNL     1       1.289   9.388  18.763  0.00  0.00    +0.000 C 
ATOM     14  C   UNL     1       1.995  10.750  18.578  0.00  0.00    +0.000 C 
ATOM     15  C   UNL     1       1.024  11.913  18.846  0.00  0.00    +0.000 C 
ATOM     16  C   UNL     1      -0.387  11.396  19.229  0.00  0.00    +0.000 C 
ATOM     17  C   UNL     1      -0.235  10.509  20.482  0.00  0.00    +0.000 C 
ATOM     18  C   UNL     1       0.732   9.347  20.214  0.00  0.00    +0.000 C 
ATOM     19  C   UNL     1      -0.889  10.511  18.069  0.00  0.00    +0.000 C 
ATOM     20  C   UNL     1       0.079   9.344  17.800  0.00  0.00    +0.000 C 
BRANCH  16  21
ATOM     21  C   UNL     1      -1.352  12.573  19.482  0.00  0.00    +0.000 C 
ATOM     22  O   UNL     1      -1.289  13.629  18.856  0.00  0.00    +0.000 OA
ATOM     23  N   UNL     1      -2.313  12.365  20.442  0.00  0.00    +0.000 N 
ATOM     24  H   UNL     1      -2.354  11.498  20.967  0.00  0.00    +0.000 HD
BRANCH  23  25
ATOM     25  C   UNL     1      -3.294  13.388  20.778  0.00  0.00    +0.000 C 
BRANCH  25  26
ATOM     26  C   UNL     1      -3.725  13.272  22.237  0.00  0.00    +0.000 C 
ATOM     27  O   UNL     1      -4.098  12.224  22.761  0.00  0.00    +0.000 OA
BRANCH  26  28
ATOM     28  O   UNL     1      -3.641  14.478  22.863  0.00  0.00    +0.000 OA
ATOM     29  C   UNL     1      -4.080  14.471  24.224  0.00  0.00    +0.000 C 
ENDBRANCH  26  28
ENDBRANCH  25  26
ENDBRANCH  23  25
ENDBRANCH  16  21
ENDBRANCH   6  13
BRANCH   1  30
ATOM     30  C   UNL     1       6.366   4.519  16.627  0.00  0.00    +0.000 C 
BRANCH  30  32
ATOM     31  C   UNL     1       6.321   4.131  14.137  0.00  0.00    +0.000 C 
ATOM     32  C   UNL     1       5.832   3.638  15.492  0.00  0.00    +0.000 C 
ENDBRANCH  30  32
ENDBRANCH   1  30
BRANCH   9  33
ATOM     33  C   UNL     1       3.291   4.421  20.480  0.00  0.00    +0.000 C 
BRANCH  33  34
ATOM     34  C   UNL     1       2.221   3.351  20.234  0.00  0.00    +0.000 C 
ATOM     35  C   UNL     1       0.793   3.875  20.220  0.00  0.00    +0.000 C 
ENDBRANCH  33  34
ENDBRANCH   9  33
TORSDOF 9
ENDMDL
MODEL 6
REMARK VINA RESULT:      -7.4      0.408      1.197
REMARK  Name = 
REMARK  12 active torsions:
REMARK  status: ('A' for Active; 'I' for Inactive)
REMARK    1  A    between atoms: C_1  and  C_2
REMARK    2  A    between atoms: C_2  and  C_3
REMARK    3  A    between atoms: C_3  and  N_4
REMARK    4  A    between atoms: C_9  and  C_10
REMARK    5  A    between atoms: C_13  and  C_14
REMARK    6  A    between atoms: N_16  and  C_17
REMARK    7  A    between atoms: C_17  and  C_18
REMARK    8  A    between atoms: C_18  and  O_20
REMARK    9  A    between atoms: O_20  and  C_21
REMARK   10  A    between atoms: N_28  and  C_29
REMARK   11  A    between atoms: C_29  and  C_30
REMARK   12  A    between atoms: C_30  and  C_31
REMARK                            x       y       z     vdW  Elec       q    Type
REMARK                         _______ _______ _______ _____ _____    ______ ____
ROOT
ATOM      1  N   UNL     1       5.135   5.144  17.404  0.00  0.00    +0.000 N 
ATOM      2  C   UNL     1       4.707   6.422  16.998  0.00  0.00    +0.000 A 
ATOM      3  O   UNL     1       5.183   7.030  16.043  0.00  0.00    +0.000 OA
ATOM      4  C   UNL     1       3.645   6.955  17.820  0.00  0.00    +0.000 A 
ATOM      5  N   UNL     1       2.995   8.159  17.712  0.00  0.00    +0.000 NA
ATOM      6  C   UNL     1       2.116   8.192  18.699  0.00  0.00    +0.000 A 
ATOM      7  N   UNL     1       2.184   7.020  19.435  0.00  0.00    +0.000 N 
ATOM      8  C   UNL     1       3.157   6.238  18.876  0.00  0.00    +0.000 A 
ATOM      9  N   UNL     1       3.601   4.987  19.264  0.00  0.00    +0.000 N 
ATOM     10  C   UNL     1       4.637   4.406  18.499  0.00  0.00    +0.000 A 
ATOM     11  O   UNL     1       5.090   3.293  18.781  0.00  0.00    +0.000 OA
ATOM     12  H   UNL     1       1.620   6.794  20.241  0.00  0.00    +0.000 HD
ENDROOT
BRANCH   6  13
ATOM     13  C   UNL     1       1.148   9.328  18.967  0.00  0.00    +0.000 C 
ATOM     14  C   UNL     1      -0.085   9.223  18.041  0.00  0.00    +0.000 C 
ATOM     15  C   UNL     1      -1.047  10.402  18.274  0.00  0.00    +0.000 C 
ATOM     16  C   UNL     1      -0.511  11.364  19.365  0.00  0.00    +0.000 C 
ATOM     17  C   UNL     1       0.871  11.868  18.906  0.00  0.00    +0.000 C 
ATOM     18  C   UNL     1       1.833  10.693  18.676  0.00  0.00    +0.000 C 
ATOM     19  C   UNL     1      -0.320  10.541  20.658  0.00  0.00    +0.000 C 
ATOM     20  C   UNL     1       0.644   9.363  20.429  0.00  0.00    +0.000 C 
BRANCH  16  21
ATOM     21  C   UNL     1      -1.492  12.532  19.595  0.00  0.00    +0.000 C 
ATOM     22  O   UNL     1      -1.148  13.711  19.531  0.00  0.00    +0.000 OA
ATOM     23  N   UNL     1      -2.794  12.179  19.856  0.00  0.00    +0.000 N 
ATOM     24  H   UNL     1      -3.074  11.207  19.922  0.00  0.00    +0.000 HD
BRANCH  23  25
ATOM     25  C   UNL     1      -3.828  13.180  20.086  0.00  0.00    +0.000 C 
BRANCH  25  26
ATOM     26  C   UNL     1      -4.187  13.262  21.567  0.00  0.00    +0.000 C 
ATOM     27  O   UNL     1      -3.673  14.053  22.356  0.00  0.00    +0.000 OA
BRANCH  26  28
ATOM     28  O   UNL     1      -5.141  12.343  21.883  0.00  0.00    +0.000 OA
ATOM     29  C   UNL     1      -6.386  12.904  22.306  0.00  0.00    +0.000 C 
ENDBRANCH  26  28
ENDBRANCH  25  26
ENDBRANCH  23  25
ENDBRANCH  16  21
ENDBRANCH   6  13
BRANCH   1  30
ATOM     30  C   UNL     1       6.208   4.540  16.617  0.00  0.00    +0.000 C 
BRANCH  30  32
ATOM     31  C   UNL     1       6.332   4.222  14.120  0.00  0.00    +0.000 C 
ATOM     32  C   UNL     1       5.679   3.753  15.413  0.00  0.00    +0.000 C 
ENDBRANCH  30  32
ENDBRANCH   1  30
BRANCH   9  33
ATOM     33  C   UNL     1       3.096   4.259  20.432  0.00  0.00    +0.000 C 
BRANCH  33  34
ATOM     34  C   UNL     1       1.636   3.806  20.322  0.00  0.00    +0.000 C 
ATOM     35  C   UNL     1       1.310   3.019  19.063  0.00  0.00    +0.000 C 
ENDBRANCH  33  34
ENDBRANCH   9  33
TORSDOF 9
ENDMDL
MODEL 7
REMARK VINA RESULT:      -7.3      0.751      1.307
REMARK  Name = 
REMARK  12 active torsions:
REMARK  status: ('A' for Active; 'I' for Inactive)
REMARK    1  A    between atoms: C_1  and  C_2
REMARK    2  A    between atoms: C_2  and  C_3
REMARK    3  A    between atoms: C_3  and  N_4
REMARK    4  A    between atoms: C_9  and  C_10
REMARK    5  A    between atoms: C_13  and  C_14
REMARK    6  A    between atoms: N_16  and  C_17
REMARK    7  A    between atoms: C_17  and  C_18
REMARK    8  A    between atoms: C_18  and  O_20
REMARK    9  A    between atoms: O_20  and  C_21
REMARK   10  A    between atoms: N_28  and  C_29
REMARK   11  A    between atoms: C_29  and  C_30
REMARK   12  A    between atoms: C_30  and  C_31
REMARK                            x       y       z     vdW  Elec       q    Type
REMARK                         _______ _______ _______ _____ _____    ______ ____
ROOT
ATOM      1  N   UNL     1       4.728   5.283  17.429  0.00  0.00    +0.000 N 
ATOM      2  C   UNL     1       4.329   6.568  17.017  0.00  0.00    +0.000 A 
ATOM      3  O   UNL     1       4.796   7.148  16.041  0.00  0.00    +0.000 OA
ATOM      4  C   UNL     1       3.306   7.144  17.860  0.00  0.00    +0.000 A 
ATOM      5  N   UNL     1       2.691   8.366  17.752  0.00  0.00    +0.000 NA
ATOM      6  C   UNL     1       1.840   8.440  18.762  0.00  0.00    +0.000 A 
ATOM      7  N   UNL     1       1.893   7.276  19.513  0.00  0.00    +0.000 N 
ATOM      8  C   UNL     1       2.826   6.457  18.939  0.00  0.00    +0.000 A 
ATOM      9  N   UNL     1       3.241   5.198  19.332  0.00  0.00    +0.000 N 
ATOM     10  C   UNL     1       4.238   4.575  18.548  0.00  0.00    +0.000 A 
ATOM     11  O   UNL     1       4.663   3.452  18.833  0.00  0.00    +0.000 OA
ATOM     12  H   UNL     1       1.344   7.078  20.336  0.00  0.00    +0.000 HD
ENDROOT
BRANCH   6  13
ATOM     13  C   UNL     1       0.916   9.608  19.041  0.00  0.00    +0.000 C 
ATOM     14  C   UNL     1       1.658  10.950  18.842  0.00  0.00    +0.000 C 
ATOM     15  C   UNL     1       0.739  12.139  19.173  0.00  0.00    +0.000 C 
ATOM     16  C   UNL     1      -0.668  11.662  19.616  0.00  0.00    +0.000 C 
ATOM     17  C   UNL     1      -0.486  10.751  20.847  0.00  0.00    +0.000 C 
ATOM     18  C   UNL     1       0.428   9.563  20.516  0.00  0.00    +0.000 C 
ATOM     19  C   UNL     1      -1.254  10.812  18.469  0.00  0.00    +0.000 C 
ATOM     20  C   UNL     1      -0.339   9.619  18.137  0.00  0.00    +0.000 C 
BRANCH  16  21
ATOM     21  C   UNL     1      -1.580  12.866  19.932  0.00  0.00    +0.000 C 
ATOM     22  O   UNL     1      -1.212  14.031  19.798  0.00  0.00    +0.000 OA
ATOM     23  N   UNL     1      -2.851  12.560  20.354  0.00  0.00    +0.000 N 
ATOM     24  H   UNL     1      -3.149  11.598  20.477  0.00  0.00    +0.000 HD
BRANCH  23  25
ATOM     25  C   UNL     1      -3.820  13.598  20.679  0.00  0.00    +0.000 C 
BRANCH  25  26
ATOM     26  C   UNL     1      -4.660  13.199  21.890  0.00  0.00    +0.000 C 
ATOM     27  O   UNL     1      -5.560  12.362  21.855  0.00  0.00    +0.000 OA
BRANCH  26  28
ATOM     28  O   UNL     1      -4.277  13.898  22.994  0.00  0.00    +0.000 OA
ATOM     29  C   UNL     1      -3.951  13.085  24.125  0.00  0.00    +0.000 C 
ENDBRANCH  26  28
ENDBRANCH  25  26
ENDBRANCH  23  25
ENDBRANCH  16  21
ENDBRANCH   6  13
BRANCH   1  30
ATOM     30  C   UNL     1       5.760   4.635  16.622  0.00  0.00    +0.000 C 
BRANCH  30  32
ATOM     31  C   UNL     1       7.708   5.038  18.170  0.00  0.00    +0.000 C 
ATOM     32  C   UNL     1       7.132   5.298  16.784  0.00  0.00    +0.000 C 
ENDBRANCH  30  32
ENDBRANCH   1  30
BRANCH   9  33
ATOM     33  C   UNL     1       2.747   4.501  20.523  0.00  0.00    +0.000 C 
BRANCH  33  34
ATOM     34  C   UNL     1       1.299   4.008  20.422  0.00  0.00    +0.000 C 
ATOM     35  C   UNL     1       1.111   2.766  19.565  0.00  0.00    +0.000 C 
ENDBRANCH  33  34
ENDBRANCH   9  33
TORSDOF 9
ENDMDL
MODEL 8
REMARK VINA RESULT:      -7.3      0.807      1.170
REMARK  Name = 
REMARK  12 active torsions:
REMARK  status: ('A' for Active; 'I' for Inactive)
REMARK    1  A    between atoms: C_1  and  C_2
REMARK    2  A    between atoms: C_2  and  C_3
REMARK    3  A    between atoms: C_3  and  N_4
REMARK    4  A    between atoms: C_9  and  C_10
REMARK    5  A    between atoms: C_13  and  C_14
REMARK    6  A    between atoms: N_16  and  C_17
REMARK    7  A    between atoms: C_17  and  C_18
REMARK    8  A    between atoms: C_18  and  O_20
REMARK    9  A    between atoms: O_20  and  C_21
REMARK   10  A    between atoms: N_28  and  C_29
REMARK   11  A    between atoms: C_29  and  C_30
REMARK   12  A    between atoms: C_30  and  C_31
REMARK                            x       y       z     vdW  Elec       q    Type
REMARK                         _______ _______ _______ _____ _____    ______ ____
ROOT
ATOM      1  N   UNL     1       4.830   5.235  17.582  0.00  0.00    +0.000 N 
ATOM      2  C   UNL     1       4.437   6.510  17.134  0.00  0.00    +0.000 A 
ATOM      3  O   UNL     1       4.926   7.073  16.158  0.00  0.00    +0.000 OA
ATOM      4  C   UNL     1       3.392   7.100  17.941  0.00  0.00    +0.000 A 
ATOM      5  N   UNL     1       2.776   8.317  17.793  0.00  0.00    +0.000 NA
ATOM      6  C   UNL     1       1.901   8.408  18.781  0.00  0.00    +0.000 A 
ATOM      7  N   UNL     1       1.939   7.260  19.556  0.00  0.00    +0.000 N 
ATOM      8  C   UNL     1       2.889   6.432  19.021  0.00  0.00    +0.000 A 
ATOM      9  N   UNL     1       3.298   5.183  19.450  0.00  0.00    +0.000 N 
ATOM     10  C   UNL     1       4.315   4.548  18.702  0.00  0.00    +0.000 A 
ATOM     11  O   UNL     1       4.737   3.432  19.020  0.00  0.00    +0.000 OA
ATOM     12  H   UNL     1       1.371   7.076  20.370  0.00  0.00    +0.000 HD
ENDROOT
BRANCH   6  13
ATOM     13  C   UNL     1       0.967   9.579  19.014  0.00  0.00    +0.000 C 
ATOM     14  C   UNL     1       1.717  10.918  18.836  0.00  0.00    +0.000 C 
ATOM     15  C   UNL     1       0.786  12.110  19.121  0.00  0.00    +0.000 C 
ATOM     16  C   UNL     1      -0.638  11.636  19.510  0.00  0.00    +0.000 C 
ATOM     17  C   UNL     1      -0.508  10.734  20.753  0.00  0.00    +0.000 C 
ATOM     18  C   UNL     1       0.419   9.543  20.468  0.00  0.00    +0.000 C 
ATOM     19  C   UNL     1      -1.178  10.778  18.345  0.00  0.00    +0.000 C 
ATOM     20  C   UNL     1      -0.250   9.584  18.059  0.00  0.00    +0.000 C 
BRANCH  16  21
ATOM     21  C   UNL     1      -1.562  12.842  19.780  0.00  0.00    +0.000 C 
ATOM     22  O   UNL     1      -1.207  14.005  19.597  0.00  0.00    +0.000 OA
ATOM     23  N   UNL     1      -2.829  12.540  20.218  0.00  0.00    +0.000 N 
ATOM     24  H   UNL     1      -3.116  11.582  20.381  0.00  0.00    +0.000 HD
BRANCH  23  25
ATOM     25  C   UNL     1      -3.808  13.581  20.505  0.00  0.00    +0.000 C 
BRANCH  25  26
ATOM     26  C   UNL     1      -4.940  13.039  21.373  0.00  0.00    +0.000 C 
ATOM     27  O   UNL     1      -4.766  12.369  22.389  0.00  0.00    +0.000 OA
BRANCH  26  28
ATOM     28  O   UNL     1      -6.152  13.396  20.863  0.00  0.00    +0.000 OA
ATOM     29  C   UNL     1      -6.113  14.518  19.977  0.00  0.00    +0.000 C 
ENDBRANCH  26  28
ENDBRANCH  25  26
ENDBRANCH  23  25
ENDBRANCH  16  21
ENDBRANCH   6  13
BRANCH   1  30
ATOM     30  C   UNL     1       5.883   4.575  16.813  0.00  0.00    +0.000 C 
BRANCH  30  32
ATOM     31  C   UNL     1       7.575   5.994  18.027  0.00  0.00    +0.000 C 
ATOM     32  C   UNL     1       7.235   4.593  17.535  0.00  0.00    +0.000 C 
ENDBRANCH  30  32
ENDBRANCH   1  30
BRANCH   9  33
ATOM     33  C   UNL     1       2.777   4.509  20.642  0.00  0.00    +0.000 C 
BRANCH  33  34
ATOM     34  C   UNL     1       1.296   4.122  20.563  0.00  0.00    +0.000 C 
ATOM     35  C   UNL     1       0.993   2.966  19.623  0.00  0.00    +0.000 C 
ENDBRANCH  33  34
ENDBRANCH   9  33
TORSDOF 9
ENDMDL
MODEL 9
REMARK VINA RESULT:      -7.3      1.042      1.301
REMARK  Name = 
REMARK  12 active torsions:
REMARK  status: ('A' for Active; 'I' for Inactive)
REMARK    1  A    between atoms: C_1  and  C_2
REMARK    2  A    between atoms: C_2  and  C_3
REMARK    3  A    between atoms: C_3  and  N_4
REMARK    4  A    between atoms: C_9  and  C_10
REMARK    5  A    between atoms: C_13  and  C_14
REMARK    6  A    between atoms: N_16  and  C_17
REMARK    7  A    between atoms: C_17  and  C_18
REMARK    8  A    between atoms: C_18  and  O_20
REMARK    9  A    between atoms: O_20  and  C_21
REMARK   10  A    between atoms: N_28  and  C_29
REMARK   11  A    between atoms: C_29  and  C_30
REMARK   12  A    between atoms: C_30  and  C_31
REMARK                            x       y       z     vdW  Elec       q    Type
REMARK                         _______ _______ _______ _____ _____    ______ ____
ROOT
ATOM      1  N   UNL     1       5.044   4.871  16.910  0.00  0.00    +0.000 N 
ATOM      2  C   UNL     1       4.964   6.276  16.921  0.00  0.00    +0.000 A 
ATOM      3  O   UNL     1       5.839   7.013  16.473  0.00  0.00    +0.000 OA
ATOM      4  C   UNL     1       3.744   6.772  17.515  0.00  0.00    +0.000 A 
ATOM      5  N   UNL     1       3.339   8.072  17.687  0.00  0.00    +0.000 NA
ATOM      6  C   UNL     1       2.162   8.014  18.287  0.00  0.00    +0.000 A 
ATOM      7  N   UNL     1       1.800   6.692  18.493  0.00  0.00    +0.000 N 
ATOM      8  C   UNL     1       2.807   5.907  18.004  0.00  0.00    +0.000 A 
ATOM      9  N   UNL     1       2.911   4.528  17.993  0.00  0.00    +0.000 N 
ATOM     10  C   UNL     1       4.080   3.976  17.422  0.00  0.00    +0.000 A 
ATOM     11  O   UNL     1       4.250   2.754  17.375  0.00  0.00    +0.000 OA
ATOM     12  H   UNL     1       0.948   6.374  18.932  0.00  0.00    +0.000 HD
ENDROOT
BRANCH   6  13
ATOM     13  C   UNL     1       1.314   9.212  18.663  0.00  0.00    +0.000 C 
ATOM     14  C   UNL     1       2.083  10.527  18.403  0.00  0.00    +0.000 C 
ATOM     15  C   UNL     1       1.247  11.746  18.830  0.00  0.00    +0.000 C 
ATOM     16  C   UNL     1      -0.128  11.317  19.404  0.00  0.00    +0.000 C 
ATOM     17  C   UNL     1       0.136  10.386  20.604  0.00  0.00    +0.000 C 
ATOM     18  C   UNL     1       0.968   9.168  20.178  0.00  0.00    +0.000 C 
ATOM     19  C   UNL     1      -0.854  10.502  18.312  0.00  0.00    +0.000 C 
ATOM     20  C   UNL     1      -0.021   9.280  17.884  0.00  0.00    +0.000 C 
BRANCH  16  21
ATOM     21  C   UNL     1      -0.960  12.549  19.816  0.00  0.00    +0.000 C 
ATOM     22  O   UNL     1      -0.638  13.697  19.515  0.00  0.00    +0.000 OA
ATOM     23  N   UNL     1      -2.108  12.289  20.524  0.00  0.00    +0.000 N 
ATOM     24  H   UNL     1      -2.365  11.342  20.782  0.00  0.00    +0.000 HD
BRANCH  23  25
ATOM     25  C   UNL     1      -2.991  13.358  20.970  0.00  0.00    +0.000 C 
BRANCH  25  26
ATOM     26  C   UNL     1      -3.903  12.877  22.096  0.00  0.00    +0.000 C 
ATOM     27  O   UNL     1      -5.030  12.420  21.918  0.00  0.00    +0.000 OA
BRANCH  26  28
ATOM     28  O   UNL     1      -3.297  13.031  23.306  0.00  0.00    +0.000 OA
ATOM     29  C   UNL     1      -4.020  12.468  24.405  0.00  0.00    +0.000 C 
ENDBRANCH  26  28
ENDBRANCH  25  26
ENDBRANCH  23  25
ENDBRANCH  16  21
ENDBRANCH   6  13
BRANCH   1  30
ATOM     30  C   UNL     1       6.252   4.294  16.322  0.00  0.00    +0.000 C 
BRANCH  30  32
ATOM     31  C   UNL     1       7.064   4.832  13.997  0.00  0.00    +0.000 C 
ATOM     32  C   UNL     1       6.093   4.002  14.826  0.00  0.00    +0.000 C 
ENDBRANCH  30  32
ENDBRANCH   1  30
BRANCH   9  33
ATOM     33  C   UNL     1       1.915   3.621  18.569  0.00  0.00    +0.000 C 
BRANCH  33  34
ATOM     34  C   UNL     1       1.605   3.868  20.050  0.00  0.00    +0.000 C 
ATOM     35  C   UNL     1       2.501   3.113  21.019  0.00  0.00    +0.000 C 
ENDBRANCH  33  34
ENDBRANCH   9  33
TORSDOF 9
ENDMDL
