MODEL 1
REMARK VINA RESULT:      -7.5      0.000      0.000
REMARK  Name = 
REMARK  9 active torsions:
REMARK  status: ('A' for Active; 'I' for Inactive)
REMARK    1  A    between atoms: C_1  and  O_2
REMARK    2  A    between atoms: O_2  and  C_3
REMARK    3  A    between atoms: C_3  and  C_4
REMARK    4  A    between atoms: C_4  and  C_5
REMARK    5  A    between atoms: C_4  and  C_8
REMARK    6  A    between atoms: C_5  and  O_7
REMARK    7  A    between atoms: C_9  and  C_10
REMARK    8  A    between atoms: C_17  and  C_18
REMARK    9  A    between atoms: C_21  and  C_22
REMARK                            x       y       z     vdW  Elec       q    Type
REMARK                         _______ _______ _______ _____ _____    ______ ____
ROOT
ATOM      1  C   UNL     1       3.363   3.847  19.888  0.00  0.00    +0.000 A 
ATOM      2  C   UNL     1       2.429   3.921  20.943  0.00  0.00    +0.000 A 
ATOM      3  C   UNL     1       2.100   2.803  21.896  0.00  0.00    +0.000 C 
ATOM      4  N   UNL     1       1.716   5.020  21.239  0.00  0.00    +0.000 NA
ATOM      5  C   UNL     1       1.866   6.069  20.426  0.00  0.00    +0.000 A 
ATOM      6  S   UNL     1       0.919   7.472  20.717  0.00  0.00    +0.000 S 
ATOM      7  C   UNL     1       1.602   8.222  19.399  0.00  0.00    +0.000 A 
ATOM      8  C   UNL     1       2.550   7.473  18.748  0.00  0.00    +0.000 A 
ATOM      9  C   UNL     1       2.723   6.164  19.322  0.00  0.00    +0.000 A 
ATOM     10  C   UNL     1       3.526   5.003  19.040  0.00  0.00    +0.000 A 
ATOM     11  C   UNL     1       3.082   8.256  17.593  0.00  0.00    +0.000 C 
ATOM     12  C   UNL     1       2.591   9.704  17.890  0.00  0.00    +0.000 C 
ATOM     13  C   UNL     1       1.349   9.556  18.810  0.00  0.00    +0.000 C 
ENDROOT
BRANCH  10  14
ATOM     14  C   UNL     1       4.437   5.045  17.862  0.00  0.00    +0.000 A 
ATOM     15  C   UNL     1       5.685   5.693  17.882  0.00  0.00    +0.000 A 
ATOM     16  C   UNL     1       6.566   5.630  16.792  0.00  0.00    +0.000 A 
ATOM     17  C   UNL     1       6.175   5.019  15.600  0.00  0.00    +0.000 A 
ATOM     18  C   UNL     1       7.080   4.985  14.405  0.00  0.00    +0.000 C 
ATOM     19  C   UNL     1       4.906   4.448  15.529  0.00  0.00    +0.000 A 
ATOM     20  C   UNL     1       4.090   4.401  16.663  0.00  0.00    +0.000 A 
ENDBRANCH  10  14
BRANCH   1  21
ATOM     21  C   UNL     1       4.179   2.562  19.658  0.00  0.00    +0.000 C 
BRANCH  21  22
ATOM     22  C   UNL     1       3.520   1.566  18.710  0.00  0.00    +0.000 C 
ATOM     23  O   UNL     1       2.403   1.689  18.230  0.00  0.00    +0.000 OA
BRANCH  22  24
ATOM     24  O   UNL     1       4.331   0.537  18.355  0.00  0.00    +0.000 OA
ATOM     25  H   UNL     1       5.086   0.827  17.789  0.00  0.00    +0.000 HD
ENDBRANCH  22  24
ENDBRANCH  21  22
BRANCH  21  26
ATOM     26  C   UNL     1       4.607   1.937  21.001  0.00  0.00    +0.000 C 
BRANCH  26  28
ATOM     27  C   UNL     1       5.962   0.291  22.007  0.00  0.00    +0.000 C 
ATOM     28  O   UNL     1       5.613   0.934  20.777  0.00  0.00    +0.000 OA
ENDBRANCH  26  28
ENDBRANCH  21  26
ENDBRANCH   1  21
TORSDOF 6
ENDMDL
MODEL 2
REMARK VINA RESULT:      -6.4      2.279      4.784
REMARK  Name = 
REMARK  9 active torsions:
REMARK  status: ('A' for Active; 'I' for Inactive)
REMARK    1  A    between atoms: C_1  and  O_2
REMARK    2  A    between atoms: O_2  and  C_3
REMARK    3  A    between atoms: C_3  and  C_4
REMARK    4  A    between atoms: C_4  and  C_5
REMARK    5  A    between atoms: C_4  and  C_8
REMARK    6  A    between atoms: C_5  and  O_7
REMARK    7  A    between atoms: C_9  and  C_10
REMARK    8  A    between atoms: C_17  and  C_18
REMARK    9  A    between atoms: C_21  and  C_22
REMARK                            x       y       z     vdW  Elec       q    Type
REMARK                         _______ _______ _______ _____ _____    ______ ____
ROOT
ATOM      1  C   UNL     1       3.715   5.707  17.715  0.00  0.00    +0.000 A 
ATOM      2  C   UNL     1       4.132   6.772  16.888  0.00  0.00    +0.000 A 
ATOM      3  C   UNL     1       5.147   6.669  15.780  0.00  0.00    +0.000 C 
ATOM      4  N   UNL     1       3.658   8.025  16.980  0.00  0.00    +0.000 NA
ATOM      5  C   UNL     1       2.795   8.267  17.970  0.00  0.00    +0.000 A 
ATOM      6  S   UNL     1       2.218   9.872  18.178  0.00  0.00    +0.000 S 
ATOM      7  C   UNL     1       1.315   9.391  19.489  0.00  0.00    +0.000 A 
ATOM      8  C   UNL     1       1.397   8.051  19.774  0.00  0.00    +0.000 A 
ATOM      9  C   UNL     1       2.293   7.344  18.896  0.00  0.00    +0.000 A 
ATOM     10  C   UNL     1       2.761   5.989  18.760  0.00  0.00    +0.000 A 
ATOM     11  C   UNL     1       0.544   7.752  20.962  0.00  0.00    +0.000 C 
ATOM     12  C   UNL     1      -0.341   9.027  21.093  0.00  0.00    +0.000 C 
ATOM     13  C   UNL     1       0.448  10.171  20.400  0.00  0.00    +0.000 C 
ENDROOT
BRANCH  10  14
ATOM     14  C   UNL     1       2.275   4.975  19.735  0.00  0.00    +0.000 A 
ATOM     15  C   UNL     1       1.095   4.233  19.545  0.00  0.00    +0.000 A 
ATOM     16  C   UNL     1       0.715   3.212  20.429  0.00  0.00    +0.000 A 
ATOM     17  C   UNL     1       1.440   2.982  21.598  0.00  0.00    +0.000 A 
ATOM     18  C   UNL     1       1.023   1.931  22.583  0.00  0.00    +0.000 C 
ATOM     19  C   UNL     1       2.564   3.767  21.852  0.00  0.00    +0.000 A 
ATOM     20  C   UNL     1       3.007   4.689  20.899  0.00  0.00    +0.000 A 
ENDBRANCH  10  14
BRANCH   1  21
ATOM     21  C   UNL     1       4.271   4.288  17.498  0.00  0.00    +0.000 C 
BRANCH  21  22
ATOM     22  C   UNL     1       3.199   3.227  17.269  0.00  0.00    +0.000 C 
ATOM     23  O   UNL     1       2.243   3.348  16.518  0.00  0.00    +0.000 OA
BRANCH  22  24
ATOM     24  O   UNL     1       3.444   2.060  17.917  0.00  0.00    +0.000 OA
ATOM     25  H   UNL     1       3.989   1.435  17.381  0.00  0.00    +0.000 HD
ENDBRANCH  22  24
ENDBRANCH  21  22
BRANCH  21  26
ATOM     26  C   UNL     1       5.272   3.916  18.611  0.00  0.00    +0.000 C 
BRANCH  26  28
ATOM     27  C   UNL     1       6.932   5.502  19.143  0.00  0.00    +0.000 C 
ATOM     28  O   UNL     1       6.579   4.416  18.281  0.00  0.00    +0.000 OA
ENDBRANCH  26  28
ENDBRANCH  21  26
ENDBRANCH   1  21
TORSDOF 6
ENDMDL
MODEL 3
REMARK VINA RESULT:      -6.3      2.323      5.148
REMARK  Name = 
REMARK  9 active torsions:
REMARK  status: ('A' for Active; 'I' for Inactive)
REMARK    1  A    between atoms: C_1  and  O_2
REMARK    2  A    between atoms: O_2  and  C_3
REMARK    3  A    between atoms: C_3  and  C_4
REMARK    4  A    between atoms: C_4  and  C_5
REMARK    5  A    between atoms: C_4  and  C_8
REMARK    6  A    between atoms: C_5  and  O_7
REMARK    7  A    between atoms: C_9  and  C_10
REMARK    8  A    between atoms: C_17  and  C_18
REMARK    9  A    between atoms: C_21  and  C_22
REMARK                            x       y       z     vdW  Elec       q    Type
REMARK                         _______ _______ _______ _____ _____    ______ ____
ROOT
ATOM      1  C   UNL     1       3.697   5.898  17.717  0.00  0.00    +0.000 A 
ATOM      2  C   UNL     1       4.101   6.996  16.929  0.00  0.00    +0.000 A 
ATOM      3  C   UNL     1       5.127   6.948  15.828  0.00  0.00    +0.000 C 
ATOM      4  N   UNL     1       3.600   8.236  17.054  0.00  0.00    +0.000 NA
ATOM      5  C   UNL     1       2.723   8.430  18.043  0.00  0.00    +0.000 A 
ATOM      6  S   UNL     1       2.112  10.015  18.295  0.00  0.00    +0.000 S 
ATOM      7  C   UNL     1       1.206   9.476  19.581  0.00  0.00    +0.000 A 
ATOM      8  C   UNL     1       1.313   8.129  19.825  0.00  0.00    +0.000 A 
ATOM      9  C   UNL     1       2.231   7.469  18.934  0.00  0.00    +0.000 A 
ATOM     10  C   UNL     1       2.728   6.128  18.761  0.00  0.00    +0.000 A 
ATOM     11  C   UNL     1       0.454   7.776  20.995  0.00  0.00    +0.000 C 
ATOM     12  C   UNL     1      -0.457   9.028  21.156  0.00  0.00    +0.000 C 
ATOM     13  C   UNL     1       0.314  10.209  20.507  0.00  0.00    +0.000 C 
ENDROOT
BRANCH  10  14
ATOM     14  C   UNL     1       2.254   5.074  19.699  0.00  0.00    +0.000 A 
ATOM     15  C   UNL     1       1.194   4.200  19.397  0.00  0.00    +0.000 A 
ATOM     16  C   UNL     1       0.835   3.150  20.256  0.00  0.00    +0.000 A 
ATOM     17  C   UNL     1       1.445   3.017  21.503  0.00  0.00    +0.000 A 
ATOM     18  C   UNL     1       1.041   1.935  22.460  0.00  0.00    +0.000 C 
ATOM     19  C   UNL     1       2.437   3.928  21.862  0.00  0.00    +0.000 A 
ATOM     20  C   UNL     1       2.877   4.886  20.944  0.00  0.00    +0.000 A 
ENDBRANCH  10  14
BRANCH   1  21
ATOM     21  C   UNL     1       4.284   4.497  17.463  0.00  0.00    +0.000 C 
BRANCH  21  22
ATOM     22  C   UNL     1       5.450   4.134  18.375  0.00  0.00    +0.000 C 
ATOM     23  O   UNL     1       6.409   4.857  18.608  0.00  0.00    +0.000 OA
BRANCH  22  24
ATOM     24  O   UNL     1       5.298   2.941  19.003  0.00  0.00    +0.000 OA
ATOM     25  H   UNL     1       5.934   2.820  19.748  0.00  0.00    +0.000 HD
ENDBRANCH  22  24
ENDBRANCH  21  22
BRANCH  21  26
ATOM     26  C   UNL     1       4.592   4.297  15.965  0.00  0.00    +0.000 C 
BRANCH  26  28
ATOM     27  C   UNL     1       6.414   3.823  14.546  0.00  0.00    +0.000 C 
ATOM     28  O   UNL     1       5.808   3.544  15.812  0.00  0.00    +0.000 OA
ENDBRANCH  26  28
ENDBRANCH  21  26
ENDBRANCH   1  21
TORSDOF 6
ENDMDL
MODEL 4
REMARK VINA RESULT:      -6.3      7.392     10.975
REMARK  Name = 
REMARK  9 active torsions:
REMARK  status: ('A' for Active; 'I' for Inactive)
REMARK    1  A    between atoms: C_1  and  O_2
REMARK    2  A    between atoms: O_2  and  C_3
REMARK    3  A    between atoms: C_3  and  C_4
REMARK    4  A    between atoms: C_4  and  C_5
REMARK    5  A    between atoms: C_4  and  C_8
REMARK    6  A    between atoms: C_5  and  O_7
REMARK    7  A    between atoms: C_9  and  C_10
REMARK    8  A    between atoms: C_17  and  C_18
REMARK    9  A    between atoms: C_21  and  C_22
REMARK                            x       y       z     vdW  Elec       q    Type
REMARK                         _______ _______ _______ _____ _____    ______ ____
ROOT
ATOM      1  C   UNL     1      -1.112  11.485  19.810  0.00  0.00    +0.000 A 
ATOM      2  C   UNL     1      -0.970  10.742  18.619  0.00  0.00    +0.000 A 
ATOM      3  C   UNL     1       0.289  10.048  18.169  0.00  0.00    +0.000 C 
ATOM      4  N   UNL     1      -1.959  10.547  17.731  0.00  0.00    +0.000 NA
ATOM      5  C   UNL     1      -3.116  11.166  17.980  0.00  0.00    +0.000 A 
ATOM      6  S   UNL     1      -4.389  11.011  16.837  0.00  0.00    +0.000 S 
ATOM      7  C   UNL     1      -5.361  11.989  17.766  0.00  0.00    +0.000 A 
ATOM      8  C   UNL     1      -4.783  12.416  18.936  0.00  0.00    +0.000 A 
ATOM      9  C   UNL     1      -3.426  11.959  19.091  0.00  0.00    +0.000 A 
ATOM     10  C   UNL     1      -2.381  12.122  20.068  0.00  0.00    +0.000 A 
ATOM     11  C   UNL     1      -5.754  13.278  19.673  0.00  0.00    +0.000 C 
ATOM     12  C   UNL     1      -7.105  12.982  18.958  0.00  0.00    +0.000 C 
ATOM     13  C   UNL     1      -6.738  12.479  17.535  0.00  0.00    +0.000 C 
ENDROOT
BRANCH  10  14
ATOM     14  C   UNL     1      -2.653  12.976  21.257  0.00  0.00    +0.000 A 
ATOM     15  C   UNL     1      -2.476  14.371  21.254  0.00  0.00    +0.000 A 
ATOM     16  C   UNL     1      -2.837  15.163  22.354  0.00  0.00    +0.000 A 
ATOM     17  C   UNL     1      -3.272  14.570  23.539  0.00  0.00    +0.000 A 
ATOM     18  C   UNL     1      -3.614  15.394  24.745  0.00  0.00    +0.000 C 
ATOM     19  C   UNL     1      -3.370  13.181  23.594  0.00  0.00    +0.000 A 
ATOM     20  C   UNL     1      -3.134  12.414  22.450  0.00  0.00    +0.000 A 
ENDBRANCH  10  14
BRANCH   1  21
ATOM     21  C   UNL     1       0.062  11.606  20.798  0.00  0.00    +0.000 C 
BRANCH  21  22
ATOM     22  C   UNL     1       1.098  12.656  20.409  0.00  0.00    +0.000 C 
ATOM     23  O   UNL     1       1.009  13.407  19.449  0.00  0.00    +0.000 OA
BRANCH  22  24
ATOM     24  O   UNL     1       2.123  12.759  21.293  0.00  0.00    +0.000 OA
ATOM     25  H   UNL     1       2.482  13.678  21.352  0.00  0.00    +0.000 HD
ENDBRANCH  22  24
ENDBRANCH  21  22
BRANCH  21  26
ATOM     26  C   UNL     1       0.675  10.222  21.094  0.00  0.00    +0.000 C 
BRANCH  26  28
ATOM     27  C   UNL     1      -0.313   9.810  23.194  0.00  0.00    +0.000 C 
ATOM     28  O   UNL     1       0.911  10.083  22.506  0.00  0.00    +0.000 OA
ENDBRANCH  26  28
ENDBRANCH  21  26
ENDBRANCH   1  21
TORSDOF 6
ENDMDL
MODEL 5
REMARK VINA RESULT:      -6.1      9.785     12.066
REMARK  Name = 
REMARK  9 active torsions:
REMARK  status: ('A' for Active; 'I' for Inactive)
REMARK    1  A    between atoms: C_1  and  O_2
REMARK    2  A    between atoms: O_2  and  C_3
REMARK    3  A    between atoms: C_3  and  C_4
REMARK    4  A    between atoms: C_4  and  C_5
REMARK    5  A    between atoms: C_4  and  C_8
REMARK    6  A    between atoms: C_5  and  O_7
REMARK    7  A    between atoms: C_9  and  C_10
REMARK    8  A    between atoms: C_17  and  C_18
REMARK    9  A    between atoms: C_21  and  C_22
REMARK                            x       y       z     vdW  Elec       q    Type
REMARK                         _______ _______ _______ _____ _____    ______ ____
ROOT
ATOM      1  C   UNL     1      -4.466  13.179  21.736  0.00  0.00    +0.000 A 
ATOM      2  C   UNL     1      -5.840  12.914  21.553  0.00  0.00    +0.000 A 
ATOM      3  C   UNL     1      -6.922  13.191  22.562  0.00  0.00    +0.000 C 
ATOM      4  N   UNL     1      -6.361  12.385  20.434  0.00  0.00    +0.000 NA
ATOM      5  C   UNL     1      -5.496  12.030  19.480  0.00  0.00    +0.000 A 
ATOM      6  S   UNL     1      -6.106  11.279  18.061  0.00  0.00    +0.000 S 
ATOM      7  C   UNL     1      -4.563  11.141  17.455  0.00  0.00    +0.000 A 
ATOM      8  C   UNL     1      -3.587  11.667  18.264  0.00  0.00    +0.000 A 
ATOM      9  C   UNL     1      -4.105  12.193  19.500  0.00  0.00    +0.000 A 
ATOM     10  C   UNL     1      -3.555  12.811  20.679  0.00  0.00    +0.000 A 
ATOM     11  C   UNL     1      -2.258  11.482  17.609  0.00  0.00    +0.000 C 
ATOM     12  C   UNL     1      -2.634  11.122  16.141  0.00  0.00    +0.000 C 
ATOM     13  C   UNL     1      -4.072  10.538  16.196  0.00  0.00    +0.000 C 
ENDROOT
BRANCH  10  14
ATOM     14  C   UNL     1      -2.078  12.985  20.759  0.00  0.00    +0.000 A 
ATOM     15  C   UNL     1      -1.219  12.005  21.288  0.00  0.00    +0.000 A 
ATOM     16  C   UNL     1       0.176  12.153  21.258  0.00  0.00    +0.000 A 
ATOM     17  C   UNL     1       0.752  13.341  20.808  0.00  0.00    +0.000 A 
ATOM     18  C   UNL     1       2.238  13.541  20.815  0.00  0.00    +0.000 C 
ATOM     19  C   UNL     1      -0.086  14.362  20.363  0.00  0.00    +0.000 A 
ATOM     20  C   UNL     1      -1.465  14.151  20.274  0.00  0.00    +0.000 A 
ENDBRANCH  10  14
BRANCH   1  21
ATOM     21  C   UNL     1      -3.965  13.842  23.032  0.00  0.00    +0.000 C 
BRANCH  21  22
ATOM     22  C   UNL     1      -3.989  12.926  24.250  0.00  0.00    +0.000 C 
ATOM     23  O   UNL     1      -3.973  11.704  24.209  0.00  0.00    +0.000 OA
BRANCH  22  24
ATOM     24  O   UNL     1      -3.938  13.592  25.431  0.00  0.00    +0.000 OA
ATOM     25  H   UNL     1      -4.763  14.102  25.616  0.00  0.00    +0.000 HD
ENDBRANCH  22  24
ENDBRANCH  21  22
BRANCH  21  26
ATOM     26  C   UNL     1      -4.675  15.191  23.266  0.00  0.00    +0.000 C 
BRANCH  26  28
ATOM     27  C   UNL     1      -4.737  16.926  24.860  0.00  0.00    +0.000 C 
ATOM     28  O   UNL     1      -3.895  16.005  24.160  0.00  0.00    +0.000 OA
ENDBRANCH  26  28
ENDBRANCH  21  26
ENDBRANCH   1  21
TORSDOF 6
ENDMDL
MODEL 6
REMARK VINA RESULT:      -6.1      2.351      5.019
REMARK  Name = 
REMARK  9 active torsions:
REMARK  status: ('A' for Active; 'I' for Inactive)
REMARK    1  A    between atoms: C_1  and  O_2
REMARK    2  A    between atoms: O_2  and  C_3
REMARK    3  A    between atoms: C_3  and  C_4
REMARK    4  A    between atoms: C_4  and  C_5
REMARK    5  A    between atoms: C_4  and  C_8
REMARK    6  A    between atoms: C_5  and  O_7
REMARK    7  A    between atoms: C_9  and  C_10
REMARK    8  A    between atoms: C_17  and  C_18
REMARK    9  A    between atoms: C_21  and  C_22
REMARK                            x       y       z     vdW  Elec       q    Type
REMARK                         _______ _______ _______ _____ _____    ______ ____
ROOT
ATOM      1  C   UNL     1       3.724   5.743  17.763  0.00  0.00    +0.000 A 
ATOM      2  C   UNL     1       4.147   6.808  16.940  0.00  0.00    +0.000 A 
ATOM      3  C   UNL     1       5.172   6.706  15.841  0.00  0.00    +0.000 C 
ATOM      4  N   UNL     1       3.671   8.061  17.028  0.00  0.00    +0.000 NA
ATOM      5  C   UNL     1       2.800   8.302  18.010  0.00  0.00    +0.000 A 
ATOM      6  S   UNL     1       2.219   9.906  18.213  0.00  0.00    +0.000 S 
ATOM      7  C   UNL     1       1.305   9.425  19.516  0.00  0.00    +0.000 A 
ATOM      8  C   UNL     1       1.385   8.085  19.801  0.00  0.00    +0.000 A 
ATOM      9  C   UNL     1       2.290   7.379  18.931  0.00  0.00    +0.000 A 
ATOM     10  C   UNL     1       2.761   6.024  18.800  0.00  0.00    +0.000 A 
ATOM     11  C   UNL     1       0.522   7.784  20.982  0.00  0.00    +0.000 C 
ATOM     12  C   UNL     1      -0.365   9.058  21.106  0.00  0.00    +0.000 C 
ATOM     13  C   UNL     1       0.429  10.203  20.420  0.00  0.00    +0.000 C 
ENDROOT
BRANCH  10  14
ATOM     14  C   UNL     1       2.267   5.009  19.770  0.00  0.00    +0.000 A 
ATOM     15  C   UNL     1       1.073   4.288  19.584  0.00  0.00    +0.000 A 
ATOM     16  C   UNL     1       0.684   3.265  20.462  0.00  0.00    +0.000 A 
ATOM     17  C   UNL     1       1.416   3.014  21.623  0.00  0.00    +0.000 A 
ATOM     18  C   UNL     1       0.990   1.961  22.603  0.00  0.00    +0.000 C 
ATOM     19  C   UNL     1       2.554   3.778  21.874  0.00  0.00    +0.000 A 
ATOM     20  C   UNL     1       3.003   4.702  20.925  0.00  0.00    +0.000 A 
ENDBRANCH  10  14
BRANCH   1  21
ATOM     21  C   UNL     1       4.282   4.324  17.551  0.00  0.00    +0.000 C 
BRANCH  21  22
ATOM     22  C   UNL     1       5.804   4.256  17.486  0.00  0.00    +0.000 C 
ATOM     23  O   UNL     1       6.560   4.603  18.381  0.00  0.00    +0.000 OA
BRANCH  22  24
ATOM     24  O   UNL     1       6.274   3.677  16.352  0.00  0.00    +0.000 OA
ATOM     25  H   UNL     1       7.157   3.255  16.479  0.00  0.00    +0.000 HD
ENDBRANCH  22  24
ENDBRANCH  21  22
BRANCH  21  26
ATOM     26  C   UNL     1       3.588   3.634  16.360  0.00  0.00    +0.000 C 
BRANCH  26  28
ATOM     27  C   UNL     1       3.029   1.908  17.864  0.00  0.00    +0.000 C 
ATOM     28  O   UNL     1       2.539   2.773  16.836  0.00  0.00    +0.000 OA
ENDBRANCH  26  28
ENDBRANCH  21  26
ENDBRANCH   1  21
TORSDOF 6
ENDMDL
MODEL 7
REMARK VINA RESULT:      -6.0      8.366     12.313
REMARK  Name = 
REMARK  9 active torsions:
REMARK  status: ('A' for Active; 'I' for Inactive)
REMARK    1  A    between atoms: C_1  and  O_2
REMARK    2  A    between atoms: O_2  and  C_3
REMARK    3  A    between atoms: C_3  and  C_4
REMARK    4  A    between atoms: C_4  and  C_5
REMARK    5  A    between atoms: C_4  and  C_8
REMARK    6  A    between atoms: C_5  and  O_7
REMARK    7  A    between atoms: C_9  and  C_10
REMARK    8  A    between atoms: C_17  and  C_18
REMARK    9  A    between atoms: C_21  and  C_22
REMARK                            x       y       z     vdW  Elec       q    Type
REMARK                         _______ _______ _______ _____ _____    ______ ____
ROOT
ATOM      1  C   UNL     1      -5.010  12.611  19.538  0.00  0.00    +0.000 A 
ATOM      2  C   UNL     1      -5.469  11.890  18.415  0.00  0.00    +0.000 A 
ATOM      3  C   UNL     1      -6.892  11.855  17.924  0.00  0.00    +0.000 C 
ATOM      4  N   UNL     1      -4.678  11.146  17.625  0.00  0.00    +0.000 NA
ATOM      5  C   UNL     1      -3.397  11.040  17.989  0.00  0.00    +0.000 A 
ATOM      6  S   UNL     1      -2.361  10.038  17.055  0.00  0.00    +0.000 S 
ATOM      7  C   UNL     1      -1.090  10.385  18.069  0.00  0.00    +0.000 A 
ATOM      8  C   UNL     1      -1.394  11.259  19.083  0.00  0.00    +0.000 A 
ATOM      9  C   UNL     1      -2.777  11.660  19.081  0.00  0.00    +0.000 A 
ATOM     10  C   UNL     1      -3.616  12.501  19.895  0.00  0.00    +0.000 A 
ATOM     11  C   UNL     1      -0.175  11.487  19.913  0.00  0.00    +0.000 C 
ATOM     12  C   UNL     1       0.972  10.926  19.021  0.00  0.00    +0.000 C 
ATOM     13  C   UNL     1       0.309   9.900  18.063  0.00  0.00    +0.000 C 
ENDROOT
BRANCH  10  14
ATOM     14  C   UNL     1      -3.010  13.164  21.082  0.00  0.00    +0.000 A 
ATOM     15  C   UNL     1      -2.460  14.458  21.040  0.00  0.00    +0.000 A 
ATOM     16  C   UNL     1      -1.988  15.098  22.195  0.00  0.00    +0.000 A 
ATOM     17  C   UNL     1      -1.938  14.416  23.411  0.00  0.00    +0.000 A 
ATOM     18  C   UNL     1      -1.390  15.062  24.648  0.00  0.00    +0.000 C 
ATOM     19  C   UNL     1      -2.395  13.100  23.457  0.00  0.00    +0.000 A 
ATOM     20  C   UNL     1      -2.985  12.521  22.330  0.00  0.00    +0.000 A 
ENDBRANCH  10  14
BRANCH   1  21
ATOM     21  C   UNL     1      -5.980  13.487  20.352  0.00  0.00    +0.000 C 
BRANCH  21  22
ATOM     22  C   UNL     1      -5.724  14.984  20.226  0.00  0.00    +0.000 C 
ATOM     23  O   UNL     1      -5.550  15.748  21.164  0.00  0.00    +0.000 OA
BRANCH  22  24
ATOM     24  O   UNL     1      -5.611  15.409  18.942  0.00  0.00    +0.000 OA
ATOM     25  H   UNL     1      -5.078  16.237  18.861  0.00  0.00    +0.000 HD
ENDBRANCH  22  24
ENDBRANCH  21  22
BRANCH  21  26
ATOM     26  C   UNL     1      -6.060  13.001  21.814  0.00  0.00    +0.000 C 
BRANCH  26  28
ATOM     27  C   UNL     1      -7.907  11.559  21.566  0.00  0.00    +0.000 C 
ATOM     28  O   UNL     1      -6.508  11.635  21.853  0.00  0.00    +0.000 OA
ENDBRANCH  26  28
ENDBRANCH  21  26
ENDBRANCH   1  21
TORSDOF 6
ENDMDL
MODEL 8
REMARK VINA RESULT:      -5.9      7.319     11.170
REMARK  Name = 
REMARK  9 active torsions:
REMARK  status: ('A' for Active; 'I' for Inactive)
REMARK    1  A    between atoms: C_1  and  O_2
REMARK    2  A    between atoms: O_2  and  C_3
REMARK    3  A    between atoms: C_3  and  C_4
REMARK    4  A    between atoms: C_4  and  C_5
REMARK    5  A    between atoms: C_4  and  C_8
REMARK    6  A    between atoms: C_5  and  O_7
REMARK    7  A    between atoms: C_9  and  C_10
REMARK    8  A    between atoms: C_17  and  C_18
REMARK    9  A    between atoms: C_21  and  C_22
REMARK                            x       y       z     vdW  Elec       q    Type
REMARK                         _______ _______ _______ _____ _____    ______ ____
ROOT
ATOM      1  C   UNL     1      -2.124  11.622  19.207  0.00  0.00    +0.000 A 
ATOM      2  C   UNL     1      -2.628  10.983  18.055  0.00  0.00    +0.000 A 
ATOM      3  C   UNL     1      -1.817  10.158  17.091  0.00  0.00    +0.000 C 
ATOM      4  N   UNL     1      -3.916  11.021  17.677  0.00  0.00    +0.000 NA
ATOM      5  C   UNL     1      -4.734  11.778  18.414  0.00  0.00    +0.000 A 
ATOM      6  S   UNL     1      -6.375  11.922  17.927  0.00  0.00    +0.000 S 
ATOM      7  C   UNL     1      -6.679  12.939  19.207  0.00  0.00    +0.000 A 
ATOM      8  C   UNL     1      -5.598  13.163  20.023  0.00  0.00    +0.000 A 
ATOM      9  C   UNL     1      -4.404  12.499  19.568  0.00  0.00    +0.000 A 
ATOM     10  C   UNL     1      -3.034  12.412  20.002  0.00  0.00    +0.000 A 
ATOM     11  C   UNL     1      -6.002  14.085  21.126  0.00  0.00    +0.000 C 
ATOM     12  C   UNL     1      -7.557  14.061  21.056  0.00  0.00    +0.000 C 
ATOM     13  C   UNL     1      -7.916  13.647  19.604  0.00  0.00    +0.000 C 
ENDROOT
BRANCH  10  14
ATOM     14  C   UNL     1      -2.627  13.180  21.211  0.00  0.00    +0.000 A 
ATOM     15  C   UNL     1      -2.150  14.502  21.154  0.00  0.00    +0.000 A 
ATOM     16  C   UNL     1      -1.871  15.236  22.316  0.00  0.00    +0.000 A 
ATOM     17  C   UNL     1      -1.943  14.630  23.570  0.00  0.00    +0.000 A 
ATOM     18  C   UNL     1      -1.599  15.380  24.822  0.00  0.00    +0.000 C 
ATOM     19  C   UNL     1      -2.327  13.292  23.644  0.00  0.00    +0.000 A 
ATOM     20  C   UNL     1      -2.730  12.612  22.491  0.00  0.00    +0.000 A 
ENDBRANCH  10  14
BRANCH   1  21
ATOM     21  C   UNL     1      -0.641  11.475  19.596  0.00  0.00    +0.000 C 
BRANCH  21  22
ATOM     22  C   UNL     1       0.325  12.165  18.639  0.00  0.00    +0.000 C 
ATOM     23  O   UNL     1       0.278  13.345  18.324  0.00  0.00    +0.000 OA
BRANCH  22  24
ATOM     24  O   UNL     1       1.335  11.363  18.216  0.00  0.00    +0.000 OA
ATOM     25  H   UNL     1       2.076  11.310  18.867  0.00  0.00    +0.000 HD
ENDBRANCH  22  24
ENDBRANCH  21  22
BRANCH  21  26
ATOM     26  C   UNL     1      -0.289   9.997  19.862  0.00  0.00    +0.000 C 
BRANCH  26  28
ATOM     27  C   UNL     1       0.791   8.894  21.643  0.00  0.00    +0.000 C 
ATOM     28  O   UNL     1       0.913   9.914  20.647  0.00  0.00    +0.000 OA
ENDBRANCH  26  28
ENDBRANCH  21  26
ENDBRANCH   1  21
TORSDOF 6
ENDMDL
MODEL 9
REMARK VINA RESULT:      -5.9      7.432     11.090
REMARK  Name = 
REMARK  9 active torsions:
REMARK  status: ('A' for Active; 'I' for Inactive)
REMARK    1  A    between atoms: C_1  and  O_2
REMARK    2  A    between atoms: O_2  and  C_3
REMARK    3  A    between atoms: C_3  and  C_4
REMARK    4  A    between atoms: C_4  and  C_5
REMARK    5  A    between atoms: C_4  and  C_8
REMARK    6  A    between atoms: C_5  and  O_7
REMARK    7  A    between atoms: C_9  and  C_10
REMARK    8  A    between atoms: C_17  and  C_18
REMARK    9  A    between atoms: C_21  and  C_22
REMARK                            x       y       z     vdW  Elec       q    Type
REMARK                         _______ _______ _______ _____ _____    ______ ____
ROOT
ATOM      1  C   UNL     1      -1.176  11.398  19.906  0.00  0.00    +0.000 A 
ATOM      2  C   UNL     1      -1.001  10.699  18.693  0.00  0.00    +0.000 A 
ATOM      3  C   UNL     1       0.259   9.993  18.268  0.00  0.00    +0.000 C 
ATOM      4  N   UNL     1      -1.956  10.565  17.758  0.00  0.00    +0.000 NA
ATOM      5  C   UNL     1      -3.108  11.203  17.983  0.00  0.00    +0.000 A 
ATOM      6  S   UNL     1      -4.334  11.125  16.783  0.00  0.00    +0.000 S 
ATOM      7  C   UNL     1      -5.321  12.090  17.710  0.00  0.00    +0.000 A 
ATOM      8  C   UNL     1      -4.783  12.456  18.919  0.00  0.00    +0.000 A 
ATOM      9  C   UNL     1      -3.446  11.959  19.112  0.00  0.00    +0.000 A 
ATOM     10  C   UNL     1      -2.439  12.056  20.137  0.00  0.00    +0.000 A 
ATOM     11  C   UNL     1      -5.764  13.313  19.650  0.00  0.00    +0.000 C 
ATOM     12  C   UNL     1      -7.091  13.079  18.868  0.00  0.00    +0.000 C 
ATOM     13  C   UNL     1      -6.675  12.624  17.443  0.00  0.00    +0.000 C 
ENDROOT
BRANCH  10  14
ATOM     14  C   UNL     1      -2.741  12.870  21.347  0.00  0.00    +0.000 A 
ATOM     15  C   UNL     1      -3.230  12.312  22.542  0.00  0.00    +0.000 A 
ATOM     16  C   UNL     1      -3.409  13.087  23.698  0.00  0.00    +0.000 A 
ATOM     17  C   UNL     1      -3.220  14.468  23.661  0.00  0.00    +0.000 A 
ATOM     18  C   UNL     1      -3.455  15.323  24.870  0.00  0.00    +0.000 C 
ATOM     19  C   UNL     1      -2.821  15.055  22.461  0.00  0.00    +0.000 A 
ATOM     20  C   UNL     1      -2.519  14.256  21.354  0.00  0.00    +0.000 A 
ENDBRANCH  10  14
BRANCH   1  21
ATOM     21  C   UNL     1      -0.042  11.451  20.946  0.00  0.00    +0.000 C 
BRANCH  21  22
ATOM     22  C   UNL     1      -0.269  10.558  22.161  0.00  0.00    +0.000 C 
ATOM     23  O   UNL     1      -0.348  10.952  23.316  0.00  0.00    +0.000 OA
BRANCH  22  24
ATOM     24  O   UNL     1      -0.474   9.254  21.846  0.00  0.00    +0.000 OA
ATOM     25  H   UNL     1      -0.518   9.102  20.871  0.00  0.00    +0.000 HD
ENDBRANCH  22  24
ENDBRANCH  21  22
BRANCH  21  26
ATOM     26  C   UNL     1       0.297  12.910  21.314  0.00  0.00    +0.000 C 
BRANCH  26  28
ATOM     27  C   UNL     1       2.180  13.212  19.930  0.00  0.00    +0.000 C 
ATOM     28  O   UNL     1       1.721  13.105  21.281  0.00  0.00    +0.000 OA
ENDBRANCH  26  28
ENDBRANCH  21  26
ENDBRANCH   1  21
TORSDOF 6
ENDMDL
