MODEL 1
REMARK VINA RESULT:      -8.0      0.000      0.000
REMARK  Name = 
REMARK  5 active torsions:
REMARK  status: ('A' for Active; 'I' for Inactive)
REMARK    1  A    between atoms: C_1  and  O_2
REMARK    2  A    between atoms: O_2  and  C_3
REMARK    3  A    between atoms: C_3  and  C_5
REMARK    4  A    between atoms: C_16  and  C_17
REMARK    5  A    between atoms: C_17  and  C_18
REMARK                            x       y       z     vdW  Elec       q    Type
REMARK                         _______ _______ _______ _____ _____    ______ ____
ROOT
ATOM      1  C   UNL     1       2.219   4.329  20.313  0.00  0.00    +0.000 A 
ATOM      2  C   UNL     1       1.478   5.374  20.849  0.00  0.00    +0.000 A 
ATOM      3  C   UNL     1       1.639   6.631  20.255  0.00  0.00    +0.000 A 
ATOM      4  C   UNL     1       2.514   6.755  19.172  0.00  0.00    +0.000 A 
ATOM      5  N   UNL     1       2.489   8.080  18.794  0.00  0.00    +0.000 N 
ATOM      6  C   UNL     1       1.620   8.787  19.576  0.00  0.00    +0.000 A 
ATOM      7  N   UNL     1       1.370  10.103  19.436  0.00  0.00    +0.000 NA
ATOM      8  C   UNL     1       0.473  10.563  20.339  0.00  0.00    +0.000 A 
ATOM      9  C   UNL     1      -0.149   9.806  21.324  0.00  0.00    +0.000 A 
ATOM     10  C   UNL     1       0.148   8.447  21.422  0.00  0.00    +0.000 A 
ATOM     11  C   UNL     1       1.073   7.917  20.506  0.00  0.00    +0.000 A 
ATOM     12  C   UNL     1       3.229   5.668  18.645  0.00  0.00    +0.000 A 
ATOM     13  N   UNL     1       3.061   4.455  19.252  0.00  0.00    +0.000 NA
ATOM     14  H   UNL     1       3.024   8.495  18.049  0.00  0.00    +0.000 HD
ENDROOT
BRANCH   1  15
ATOM     15  C   UNL     1       2.062   2.983  20.946  0.00  0.00    +0.000 C 
ATOM     16  O   UNL     1       2.138   2.794  22.152  0.00  0.00    +0.000 OA
BRANCH  15  18
ATOM     17  C   UNL     1       0.725   2.291  19.162  0.00  0.00    +0.000 C 
ATOM     18  O   UNL     1       1.841   2.022  20.011  0.00  0.00    +0.000 OA
ENDBRANCH  15  18
ENDBRANCH   1  15
BRANCH  12  19
ATOM     19  C   UNL     1       4.160   5.747  17.457  0.00  0.00    +0.000 C 
BRANCH  19  20
ATOM     20  C   UNL     1       5.574   6.151  17.810  0.00  0.00    +0.000 A 
ATOM     21  C   UNL     1       6.303   5.418  18.757  0.00  0.00    +0.000 A 
ATOM     22  C   UNL     1       7.602   5.797  19.105  0.00  0.00    +0.000 A 
ATOM     23  C   UNL     1       8.189   6.905  18.501  0.00  0.00    +0.000 A 
ATOM     24  C   UNL     1       7.485   7.626  17.536  0.00  0.00    +0.000 A 
ATOM     25  C   UNL     1       6.187   7.250  17.189  0.00  0.00    +0.000 A 
ENDBRANCH  19  20
ENDBRANCH  12  19
TORSDOF 4
ENDMDL
MODEL 2
REMARK VINA RESULT:      -7.9      1.111      1.383
REMARK  Name = 
REMARK  5 active torsions:
REMARK  status: ('A' for Active; 'I' for Inactive)
REMARK    1  A    between atoms: C_1  and  O_2
REMARK    2  A    between atoms: O_2  and  C_3
REMARK    3  A    between atoms: C_3  and  C_5
REMARK    4  A    between atoms: C_16  and  C_17
REMARK    5  A    between atoms: C_17  and  C_18
REMARK                            x       y       z     vdW  Elec       q    Type
REMARK                         _______ _______ _______ _____ _____    ______ ____
ROOT
ATOM      1  C   UNL     1       2.387   4.904  20.303  0.00  0.00    +0.000 A 
ATOM      2  C   UNL     1       1.620   5.815  21.017  0.00  0.00    +0.000 A 
ATOM      3  C   UNL     1       1.557   7.119  20.512  0.00  0.00    +0.000 A 
ATOM      4  C   UNL     1       2.251   7.418  19.337  0.00  0.00    +0.000 A 
ATOM      5  N   UNL     1       2.028   8.753  19.076  0.00  0.00    +0.000 N 
ATOM      6  C   UNL     1       1.206   9.298  20.022  0.00  0.00    +0.000 A 
ATOM      7  N   UNL     1       0.797  10.580  20.025  0.00  0.00    +0.000 NA
ATOM      8  C   UNL     1      -0.009  10.869  21.073  0.00  0.00    +0.000 A 
ATOM      9  C   UNL     1      -0.400   9.979  22.067  0.00  0.00    +0.000 A 
ATOM     10  C   UNL     1       0.055   8.662  22.012  0.00  0.00    +0.000 A 
ATOM     11  C   UNL     1       0.894   8.308  20.941  0.00  0.00    +0.000 A 
ATOM     12  C   UNL     1       3.000   6.462  18.632  0.00  0.00    +0.000 A 
ATOM     13  N   UNL     1       3.053   5.200  19.154  0.00  0.00    +0.000 NA
ATOM     14  H   UNL     1       2.404   9.278  18.304  0.00  0.00    +0.000 HD
ENDROOT
BRANCH   1  15
ATOM     15  C   UNL     1       2.469   3.510  20.838  0.00  0.00    +0.000 C 
ATOM     16  O   UNL     1       2.319   3.234  22.021  0.00  0.00    +0.000 OA
BRANCH  15  18
ATOM     17  C   UNL     1       1.575   2.081  19.224  0.00  0.00    +0.000 C 
ATOM     18  O   UNL     1       2.741   2.618  19.849  0.00  0.00    +0.000 OA
ENDBRANCH  15  18
ENDBRANCH   1  15
BRANCH  12  19
ATOM     19  C   UNL     1       3.740   6.731  17.342  0.00  0.00    +0.000 C 
BRANCH  19  20
ATOM     20  C   UNL     1       5.021   5.942  17.192  0.00  0.00    +0.000 A 
ATOM     21  C   UNL     1       6.112   6.200  18.034  0.00  0.00    +0.000 A 
ATOM     22  C   UNL     1       7.306   5.491  17.889  0.00  0.00    +0.000 A 
ATOM     23  C   UNL     1       7.419   4.509  16.908  0.00  0.00    +0.000 A 
ATOM     24  C   UNL     1       6.332   4.224  16.082  0.00  0.00    +0.000 A 
ATOM     25  C   UNL     1       5.138   4.933  16.225  0.00  0.00    +0.000 A 
ENDBRANCH  19  20
ENDBRANCH  12  19
TORSDOF 4
ENDMDL
MODEL 3
REMARK VINA RESULT:      -7.9      0.309      1.031
REMARK  Name = 
REMARK  5 active torsions:
REMARK  status: ('A' for Active; 'I' for Inactive)
REMARK    1  A    between atoms: C_1  and  O_2
REMARK    2  A    between atoms: O_2  and  C_3
REMARK    3  A    between atoms: C_3  and  C_5
REMARK    4  A    between atoms: C_16  and  C_17
REMARK    5  A    between atoms: C_17  and  C_18
REMARK                            x       y       z     vdW  Elec       q    Type
REMARK                         _______ _______ _______ _____ _____    ______ ____
ROOT
ATOM      1  C   UNL     1       2.287   4.328  20.444  0.00  0.00    +0.000 A 
ATOM      2  C   UNL     1       1.530   5.380  20.943  0.00  0.00    +0.000 A 
ATOM      3  C   UNL     1       1.676   6.619  20.308  0.00  0.00    +0.000 A 
ATOM      4  C   UNL     1       2.553   6.720  19.225  0.00  0.00    +0.000 A 
ATOM      5  N   UNL     1       2.511   8.031  18.803  0.00  0.00    +0.000 N 
ATOM      6  C   UNL     1       1.629   8.752  19.558  0.00  0.00    +0.000 A 
ATOM      7  N   UNL     1       1.362  10.058  19.374  0.00  0.00    +0.000 NA
ATOM      8  C   UNL     1       0.456  10.535  20.258  0.00  0.00    +0.000 A 
ATOM      9  C   UNL     1      -0.160   9.803  21.266  0.00  0.00    +0.000 A 
ATOM     10  C   UNL     1       0.155   8.452  21.410  0.00  0.00    +0.000 A 
ATOM     11  C   UNL     1       1.091   7.904  20.515  0.00  0.00    +0.000 A 
ATOM     12  C   UNL     1       3.285   5.626  18.736  0.00  0.00    +0.000 A 
ATOM     13  N   UNL     1       3.131   4.431  19.382  0.00  0.00    +0.000 NA
ATOM     14  H   UNL     1       3.043   8.429  18.046  0.00  0.00    +0.000 HD
ENDROOT
BRANCH   1  15
ATOM     15  C   UNL     1       2.146   3.002  21.121  0.00  0.00    +0.000 C 
ATOM     16  O   UNL     1       2.946   2.579  21.944  0.00  0.00    +0.000 OA
BRANCH  15  18
ATOM     17  C   UNL     1       1.004   2.139  19.277  0.00  0.00    +0.000 C 
ATOM     18  O   UNL     1       1.037   2.345  20.690  0.00  0.00    +0.000 OA
ENDBRANCH  15  18
ENDBRANCH   1  15
BRANCH  12  19
ATOM     19  C   UNL     1       4.219   5.678  17.549  0.00  0.00    +0.000 C 
BRANCH  19  20
ATOM     20  C   UNL     1       5.625   6.119  17.892  0.00  0.00    +0.000 A 
ATOM     21  C   UNL     1       6.214   7.195  17.214  0.00  0.00    +0.000 A 
ATOM     22  C   UNL     1       7.519   7.594  17.509  0.00  0.00    +0.000 A 
ATOM     23  C   UNL     1       8.245   6.929  18.494  0.00  0.00    +0.000 A 
ATOM     24  C   UNL     1       7.661   5.876  19.196  0.00  0.00    +0.000 A 
ATOM     25  C   UNL     1       6.357   5.473  18.901  0.00  0.00    +0.000 A 
ENDBRANCH  19  20
ENDBRANCH  12  19
TORSDOF 4
ENDMDL
MODEL 4
REMARK VINA RESULT:      -7.8      2.115      5.815
REMARK  Name = 
REMARK  5 active torsions:
REMARK  status: ('A' for Active; 'I' for Inactive)
REMARK    1  A    between atoms: C_1  and  O_2
REMARK    2  A    between atoms: O_2  and  C_3
REMARK    3  A    between atoms: C_3  and  C_5
REMARK    4  A    between atoms: C_16  and  C_17
REMARK    5  A    between atoms: C_17  and  C_18
REMARK                            x       y       z     vdW  Elec       q    Type
REMARK                         _______ _______ _______ _____ _____    ______ ____
ROOT
ATOM      1  C   UNL     1       1.868   3.922  18.874  0.00  0.00    +0.000 A 
ATOM      2  C   UNL     1       2.742   3.556  17.859  0.00  0.00    +0.000 A 
ATOM      3  C   UNL     1       3.699   4.503  17.477  0.00  0.00    +0.000 A 
ATOM      4  C   UNL     1       3.722   5.737  18.133  0.00  0.00    +0.000 A 
ATOM      5  N   UNL     1       4.739   6.470  17.562  0.00  0.00    +0.000 N 
ATOM      6  C   UNL     1       5.370   5.743  16.592  0.00  0.00    +0.000 A 
ATOM      7  N   UNL     1       6.413   6.188  15.867  0.00  0.00    +0.000 NA
ATOM      8  C   UNL     1       6.852   5.276  14.969  0.00  0.00    +0.000 A 
ATOM      9  C   UNL     1       6.320   4.007  14.773  0.00  0.00    +0.000 A 
ATOM     10  C   UNL     1       5.238   3.599  15.554  0.00  0.00    +0.000 A 
ATOM     11  C   UNL     1       4.744   4.509  16.505  0.00  0.00    +0.000 A 
ATOM     12  C   UNL     1       2.833   6.061  19.171  0.00  0.00    +0.000 A 
ATOM     13  N   UNL     1       1.903   5.122  19.516  0.00  0.00    +0.000 NA
ATOM     14  H   UNL     1       5.003   7.411  17.805  0.00  0.00    +0.000 HD
ENDROOT
BRANCH   1  15
ATOM     15  C   UNL     1       0.836   2.921  19.283  0.00  0.00    +0.000 C 
ATOM     16  O   UNL     1       0.271   2.176  18.494  0.00  0.00    +0.000 OA
BRANCH  15  18
ATOM     17  C   UNL     1       1.691   2.448  21.403  0.00  0.00    +0.000 C 
ATOM     18  O   UNL     1       0.612   2.965  20.623  0.00  0.00    +0.000 OA
ENDBRANCH  15  18
ENDBRANCH   1  15
BRANCH  12  19
ATOM     19  C   UNL     1       2.841   7.368  19.931  0.00  0.00    +0.000 C 
BRANCH  19  20
ATOM     20  C   UNL     1       1.786   8.351  19.475  0.00  0.00    +0.000 A 
ATOM     21  C   UNL     1       0.878   8.892  20.396  0.00  0.00    +0.000 A 
ATOM     22  C   UNL     1      -0.112   9.784  19.979  0.00  0.00    +0.000 A 
ATOM     23  C   UNL     1      -0.199  10.153  18.639  0.00  0.00    +0.000 A 
ATOM     24  C   UNL     1       0.715   9.644  17.718  0.00  0.00    +0.000 A 
ATOM     25  C   UNL     1       1.706   8.751  18.132  0.00  0.00    +0.000 A 
ENDBRANCH  19  20
ENDBRANCH  12  19
TORSDOF 4
ENDMDL
MODEL 5
REMARK VINA RESULT:      -7.8      3.913      5.766
REMARK  Name = 
REMARK  5 active torsions:
REMARK  status: ('A' for Active; 'I' for Inactive)
REMARK    1  A    between atoms: C_1  and  O_2
REMARK    2  A    between atoms: O_2  and  C_3
REMARK    3  A    between atoms: C_3  and  C_5
REMARK    4  A    between atoms: C_16  and  C_17
REMARK    5  A    between atoms: C_17  and  C_18
REMARK                            x       y       z     vdW  Elec       q    Type
REMARK                         _______ _______ _______ _____ _____    ______ ____
ROOT
ATOM      1  C   UNL     1       6.497   4.940  15.574  0.00  0.00    +0.000 A 
ATOM      2  C   UNL     1       5.203   4.541  15.881  0.00  0.00    +0.000 A 
ATOM      3  C   UNL     1       4.787   4.711  17.206  0.00  0.00    +0.000 A 
ATOM      4  C   UNL     1       5.680   5.270  18.124  0.00  0.00    +0.000 A 
ATOM      5  N   UNL     1       5.026   5.313  19.336  0.00  0.00    +0.000 N 
ATOM      6  C   UNL     1       3.754   4.827  19.214  0.00  0.00    +0.000 A 
ATOM      7  N   UNL     1       2.868   4.755  20.224  0.00  0.00    +0.000 NA
ATOM      8  C   UNL     1       1.681   4.231  19.842  0.00  0.00    +0.000 A 
ATOM      9  C   UNL     1       1.359   3.795  18.562  0.00  0.00    +0.000 A 
ATOM     10  C   UNL     1       2.318   3.894  17.553  0.00  0.00    +0.000 A 
ATOM     11  C   UNL     1       3.569   4.434  17.897  0.00  0.00    +0.000 A 
ATOM     12  C   UNL     1       6.974   5.682  17.769  0.00  0.00    +0.000 A 
ATOM     13  N   UNL     1       7.358   5.494  16.472  0.00  0.00    +0.000 NA
ATOM     14  H   UNL     1       5.406   5.650  20.205  0.00  0.00    +0.000 HD
ENDROOT
BRANCH   1  15
ATOM     15  C   UNL     1       6.956   4.754  14.163  0.00  0.00    +0.000 C 
ATOM     16  O   UNL     1       7.874   5.392  13.665  0.00  0.00    +0.000 OA
BRANCH  15  18
ATOM     17  C   UNL     1       6.653   3.540  12.193  0.00  0.00    +0.000 C 
ATOM     18  O   UNL     1       6.216   3.810  13.526  0.00  0.00    +0.000 OA
ENDBRANCH  15  18
ENDBRANCH   1  15
BRANCH  12  19
ATOM     19  C   UNL     1       7.962   6.321  18.719  0.00  0.00    +0.000 C 
BRANCH  19  20
ATOM     20  C   UNL     1       8.153   7.805  18.500  0.00  0.00    +0.000 A 
ATOM     21  C   UNL     1       9.047   8.529  19.302  0.00  0.00    +0.000 A 
ATOM     22  C   UNL     1       9.214   9.903  19.120  0.00  0.00    +0.000 A 
ATOM     23  C   UNL     1       8.497  10.567  18.129  0.00  0.00    +0.000 A 
ATOM     24  C   UNL     1       7.625   9.855  17.306  0.00  0.00    +0.000 A 
ATOM     25  C   UNL     1       7.456   8.480  17.486  0.00  0.00    +0.000 A 
ENDBRANCH  19  20
ENDBRANCH  12  19
TORSDOF 4
ENDMDL
MODEL 6
REMARK VINA RESULT:      -7.7      3.070      5.573
REMARK  Name = 
REMARK  5 active torsions:
REMARK  status: ('A' for Active; 'I' for Inactive)
REMARK    1  A    between atoms: C_1  and  O_2
REMARK    2  A    between atoms: O_2  and  C_3
REMARK    3  A    between atoms: C_3  and  C_5
REMARK    4  A    between atoms: C_16  and  C_17
REMARK    5  A    between atoms: C_17  and  C_18
REMARK                            x       y       z     vdW  Elec       q    Type
REMARK                         _______ _______ _______ _____ _____    ______ ____
ROOT
ATOM      1  C   UNL     1       5.513   5.280  16.241  0.00  0.00    +0.000 A 
ATOM      2  C   UNL     1       4.819   6.481  16.310  0.00  0.00    +0.000 A 
ATOM      3  C   UNL     1       3.989   6.667  17.421  0.00  0.00    +0.000 A 
ATOM      4  C   UNL     1       3.914   5.656  18.381  0.00  0.00    +0.000 A 
ATOM      5  N   UNL     1       3.031   6.090  19.346  0.00  0.00    +0.000 N 
ATOM      6  C   UNL     1       2.566   7.339  19.044  0.00  0.00    +0.000 A 
ATOM      7  N   UNL     1       1.699   8.031  19.807  0.00  0.00    +0.000 NA
ATOM      8  C   UNL     1       1.394   9.241  19.284  0.00  0.00    +0.000 A 
ATOM      9  C   UNL     1       1.889   9.760  18.093  0.00  0.00    +0.000 A 
ATOM     10  C   UNL     1       2.785   8.998  17.344  0.00  0.00    +0.000 A 
ATOM     11  C   UNL     1       3.138   7.732  17.844  0.00  0.00    +0.000 A 
ATOM     12  C   UNL     1       4.649   4.463  18.286  0.00  0.00    +0.000 A 
ATOM     13  N   UNL     1       5.443   4.303  17.186  0.00  0.00    +0.000 NA
ATOM     14  H   UNL     1       2.750   5.580  20.167  0.00  0.00    +0.000 HD
ENDROOT
BRANCH   1  15
ATOM     15  C   UNL     1       6.396   5.066  15.054  0.00  0.00    +0.000 C 
ATOM     16  O   UNL     1       7.478   5.620  14.912  0.00  0.00    +0.000 OA
BRANCH  15  18
ATOM     17  C   UNL     1       6.616   3.987  12.996  0.00  0.00    +0.000 C 
ATOM     18  O   UNL     1       5.833   4.200  14.171  0.00  0.00    +0.000 OA
ENDBRANCH  15  18
ENDBRANCH   1  15
BRANCH  12  19
ATOM     19  C   UNL     1       4.626   3.355  19.315  0.00  0.00    +0.000 C 
BRANCH  19  20
ATOM     20  C   UNL     1       3.243   3.016  19.822  0.00  0.00    +0.000 A 
ATOM     21  C   UNL     1       2.225   2.671  18.922  0.00  0.00    +0.000 A 
ATOM     22  C   UNL     1       0.939   2.377  19.381  0.00  0.00    +0.000 A 
ATOM     23  C   UNL     1       0.659   2.415  20.744  0.00  0.00    +0.000 A 
ATOM     24  C   UNL     1       1.669   2.730  21.652  0.00  0.00    +0.000 A 
ATOM     25  C   UNL     1       2.956   3.025  21.196  0.00  0.00    +0.000 A 
ENDBRANCH  19  20
ENDBRANCH  12  19
TORSDOF 4
ENDMDL
MODEL 7
REMARK VINA RESULT:      -7.6      1.335      1.773
REMARK  Name = 
REMARK  5 active torsions:
REMARK  status: ('A' for Active; 'I' for Inactive)
REMARK    1  A    between atoms: C_1  and  O_2
REMARK    2  A    between atoms: O_2  and  C_3
REMARK    3  A    between atoms: C_3  and  C_5
REMARK    4  A    between atoms: C_16  and  C_17
REMARK    5  A    between atoms: C_17  and  C_18
REMARK                            x       y       z     vdW  Elec       q    Type
REMARK                         _______ _______ _______ _____ _____    ______ ____
ROOT
ATOM      1  C   UNL     1       2.626   5.209  20.055  0.00  0.00    +0.000 A 
ATOM      2  C   UNL     1       1.822   6.064  20.795  0.00  0.00    +0.000 A 
ATOM      3  C   UNL     1       1.647   7.359  20.294  0.00  0.00    +0.000 A 
ATOM      4  C   UNL     1       2.276   7.705  19.095  0.00  0.00    +0.000 A 
ATOM      5  N   UNL     1       1.949   9.020  18.842  0.00  0.00    +0.000 N 
ATOM      6  C   UNL     1       1.123   9.506  19.817  0.00  0.00    +0.000 A 
ATOM      7  N   UNL     1       0.624  10.756  19.835  0.00  0.00    +0.000 NA
ATOM      8  C   UNL     1      -0.163  10.988  20.912  0.00  0.00    +0.000 A 
ATOM      9  C   UNL     1      -0.453  10.075  21.918  0.00  0.00    +0.000 A 
ATOM     10  C   UNL     1       0.093   8.794  21.847  0.00  0.00    +0.000 A 
ATOM     11  C   UNL     1       0.916   8.498  20.747  0.00  0.00    +0.000 A 
ATOM     12  C   UNL     1       3.065   6.803  18.363  0.00  0.00    +0.000 A 
ATOM     13  N   UNL     1       3.227   5.550  18.882  0.00  0.00    +0.000 NA
ATOM     14  H   UNL     1       2.258   9.569  18.057  0.00  0.00    +0.000 HD
ENDROOT
BRANCH   1  15
ATOM     15  C   UNL     1       2.827   3.826  20.586  0.00  0.00    +0.000 C 
ATOM     16  O   UNL     1       3.487   2.973  20.008  0.00  0.00    +0.000 OA
BRANCH  15  18
ATOM     17  C   UNL     1       1.365   2.479  21.808  0.00  0.00    +0.000 C 
ATOM     18  O   UNL     1       2.177   3.652  21.766  0.00  0.00    +0.000 OA
ENDBRANCH  15  18
ENDBRANCH   1  15
BRANCH  12  19
ATOM     19  C   UNL     1       3.738   7.122  17.047  0.00  0.00    +0.000 C 
BRANCH  19  20
ATOM     20  C   UNL     1       4.991   6.317  16.787  0.00  0.00    +0.000 A 
ATOM     21  C   UNL     1       4.966   5.238  15.892  0.00  0.00    +0.000 A 
ATOM     22  C   UNL     1       6.113   4.477  15.662  0.00  0.00    +0.000 A 
ATOM     23  C   UNL     1       7.302   4.793  16.315  0.00  0.00    +0.000 A 
ATOM     24  C   UNL     1       7.348   5.880  17.187  0.00  0.00    +0.000 A 
ATOM     25  C   UNL     1       6.201   6.642  17.420  0.00  0.00    +0.000 A 
ENDBRANCH  19  20
ENDBRANCH  12  19
TORSDOF 4
ENDMDL
MODEL 8
REMARK VINA RESULT:      -7.6      3.881      5.880
REMARK  Name = 
REMARK  5 active torsions:
REMARK  status: ('A' for Active; 'I' for Inactive)
REMARK    1  A    between atoms: C_1  and  O_2
REMARK    2  A    between atoms: O_2  and  C_3
REMARK    3  A    between atoms: C_3  and  C_5
REMARK    4  A    between atoms: C_16  and  C_17
REMARK    5  A    between atoms: C_17  and  C_18
REMARK                            x       y       z     vdW  Elec       q    Type
REMARK                         _______ _______ _______ _____ _____    ______ ____
ROOT
ATOM      1  C   UNL     1       6.425   5.643  17.851  0.00  0.00    +0.000 A 
ATOM      2  C   UNL     1       5.397   5.608  18.784  0.00  0.00    +0.000 A 
ATOM      3  C   UNL     1       4.323   4.754  18.507  0.00  0.00    +0.000 A 
ATOM      4  C   UNL     1       4.353   3.996  17.333  0.00  0.00    +0.000 A 
ATOM      5  N   UNL     1       3.186   3.264  17.306  0.00  0.00    +0.000 N 
ATOM      6  C   UNL     1       2.437   3.510  18.422  0.00  0.00    +0.000 A 
ATOM      7  N   UNL     1       1.251   2.931  18.684  0.00  0.00    +0.000 NA
ATOM      8  C   UNL     1       0.711   3.350  19.852  0.00  0.00    +0.000 A 
ATOM      9  C   UNL     1       1.275   4.277  20.721  0.00  0.00    +0.000 A 
ATOM     10  C   UNL     1       2.506   4.846  20.398  0.00  0.00    +0.000 A 
ATOM     11  C   UNL     1       3.112   4.443  19.195  0.00  0.00    +0.000 A 
ATOM     12  C   UNL     1       5.423   4.045  16.425  0.00  0.00    +0.000 A 
ATOM     13  N   UNL     1       6.452   4.894  16.715  0.00  0.00    +0.000 NA
ATOM     14  H   UNL     1       2.900   2.627  16.580  0.00  0.00    +0.000 HD
ENDROOT
BRANCH   1  15
ATOM     15  C   UNL     1       7.574   6.559  18.133  0.00  0.00    +0.000 C 
ATOM     16  O   UNL     1       8.298   6.447  19.112  0.00  0.00    +0.000 OA
BRANCH  15  18
ATOM     17  C   UNL     1       7.894   8.829  17.697  0.00  0.00    +0.000 C 
ATOM     18  O   UNL     1       7.686   7.516  17.175  0.00  0.00    +0.000 OA
ENDBRANCH  15  18
ENDBRANCH   1  15
BRANCH  12  19
ATOM     19  C   UNL     1       5.514   3.221  15.161  0.00  0.00    +0.000 C 
BRANCH  19  20
ATOM     20  C   UNL     1       6.290   3.887  14.047  0.00  0.00    +0.000 A 
ATOM     21  C   UNL     1       6.164   3.432  12.727  0.00  0.00    +0.000 A 
ATOM     22  C   UNL     1       6.894   4.028  11.696  0.00  0.00    +0.000 A 
ATOM     23  C   UNL     1       7.748   5.092  11.972  0.00  0.00    +0.000 A 
ATOM     24  C   UNL     1       7.861   5.572  13.276  0.00  0.00    +0.000 A 
ATOM     25  C   UNL     1       7.134   4.977  14.309  0.00  0.00    +0.000 A 
ENDBRANCH  19  20
ENDBRANCH  12  19
TORSDOF 4
ENDMDL
MODEL 9
REMARK VINA RESULT:      -7.5      6.557     10.365
REMARK  Name = 
REMARK  5 active torsions:
REMARK  status: ('A' for Active; 'I' for Inactive)
REMARK    1  A    between atoms: C_1  and  O_2
REMARK    2  A    between atoms: O_2  and  C_3
REMARK    3  A    between atoms: C_3  and  C_5
REMARK    4  A    between atoms: C_16  and  C_17
REMARK    5  A    between atoms: C_17  and  C_18
REMARK                            x       y       z     vdW  Elec       q    Type
REMARK                         _______ _______ _______ _____ _____    ______ ____
ROOT
ATOM      1  C   UNL     1      -3.330  10.448  15.359  0.00  0.00    +0.000 A 
ATOM      2  C   UNL     1      -2.179  10.226  16.104  0.00  0.00    +0.000 A 
ATOM      3  C   UNL     1      -2.161  10.738  17.406  0.00  0.00    +0.000 A 
ATOM      4  C   UNL     1      -3.284  11.424  17.874  0.00  0.00    +0.000 A 
ATOM      5  N   UNL     1      -2.997  11.824  19.161  0.00  0.00    +0.000 N 
ATOM      6  C   UNL     1      -1.752  11.398  19.530  0.00  0.00    +0.000 A 
ATOM      7  N   UNL     1      -1.198  11.623  20.736  0.00  0.00    +0.000 NA
ATOM      8  C   UNL     1       0.045  11.101  20.846  0.00  0.00    +0.000 A 
ATOM      9  C   UNL     1       0.724  10.403  19.853  0.00  0.00    +0.000 A 
ATOM     10  C   UNL     1       0.101  10.200  18.623  0.00  0.00    +0.000 A 
ATOM     11  C   UNL     1      -1.194  10.720  18.456  0.00  0.00    +0.000 A 
ATOM     12  C   UNL     1      -4.439  11.610  17.096  0.00  0.00    +0.000 A 
ATOM     13  N   UNL     1      -4.425  11.108  15.825  0.00  0.00    +0.000 NA
ATOM     14  H   UNL     1      -3.601  12.354  19.768  0.00  0.00    +0.000 HD
ENDROOT
BRANCH   1  15
ATOM     15  C   UNL     1      -3.357   9.912  13.964  0.00  0.00    +0.000 C 
ATOM     16  O   UNL     1      -2.347   9.648  13.325  0.00  0.00    +0.000 OA
BRANCH  15  18
ATOM     17  C   UNL     1      -4.738   9.751  12.089  0.00  0.00    +0.000 C 
ATOM     18  O   UNL     1      -4.632   9.778  13.513  0.00  0.00    +0.000 OA
ENDBRANCH  15  18
ENDBRANCH   1  15
BRANCH  12  19
ATOM     19  C   UNL     1      -5.689  12.315  17.570  0.00  0.00    +0.000 C 
BRANCH  19  20
ATOM     20  C   UNL     1      -6.396  11.615  18.708  0.00  0.00    +0.000 A 
ATOM     21  C   UNL     1      -6.581  10.226  18.678  0.00  0.00    +0.000 A 
ATOM     22  C   UNL     1      -7.252   9.574  19.715  0.00  0.00    +0.000 A 
ATOM     23  C   UNL     1      -7.735  10.303  20.799  0.00  0.00    +0.000 A 
ATOM     24  C   UNL     1      -7.533  11.681  20.854  0.00  0.00    +0.000 A 
ATOM     25  C   UNL     1      -6.865  12.335  19.818  0.00  0.00    +0.000 A 
ENDBRANCH  19  20
ENDBRANCH  12  19
TORSDOF 4
ENDMDL
