MODEL 1
REMARK VINA RESULT:      -7.1      0.000      0.000
REMARK  Name = 
REMARK  9 active torsions:
REMARK  status: ('A' for Active; 'I' for Inactive)
REMARK    1  A    between atoms: CD_2  and  OE2_3
REMARK    2  A    between atoms: CD_2  and  CG_4
REMARK    3  A    between atoms: CG_4  and  CB_5
REMARK    4  A    between atoms: CB_5  and  CA_6
REMARK    5  A    between atoms: CA_6  and  N_7
REMARK    6  A    between atoms: CA_6  and  C_18
REMARK    7  A    between atoms: C_8  and  C_10
REMARK    8  A    between atoms: C_11  and  C_12
REMARK    9  A    between atoms: C_18  and  OXT_20
REMARK                            x       y       z     vdW  Elec       q    Type
REMARK                         _______ _______ _______ _____ _____    ______ ____
ROOT
ATOM      1  N   GLU A   1       5.147   5.046  16.728  0.00  0.00    +0.000 N 
ATOM      2  C   UNK A   0       4.040   4.473  17.300  0.00  0.00    +0.000 C 
ATOM      3  O   UNK A   0       3.880   3.266  17.402  0.00  0.00    +0.000 OA
ATOM      4  H   GLU A   1       5.295   6.041  16.917  0.00  0.00    +0.000 HD
ENDROOT
BRANCH   2   5
ATOM      5  C   UNK A   0       3.015   5.474  17.674  0.00  0.00    +0.000 C 
ATOM      6  C   UNK A   0       3.389   6.691  18.095  0.00  0.00    +0.000 C 
BRANCH   6   7
ATOM      7  C   UNK A   0       2.439   7.691  18.598  0.00  0.00    +0.000 A 
ATOM      8  C   UNK A   0       2.012   7.697  19.935  0.00  0.00    +0.000 A 
ATOM      9  C   UNK A   0       1.133   8.678  20.397  0.00  0.00    +0.000 A 
ATOM     10  C   UNK A   0       0.682   9.672  19.530  0.00  0.00    +0.000 A 
ATOM     11  C   UNK A   0       1.119   9.691  18.208  0.00  0.00    +0.000 A 
ATOM     12  C   UNK A   0       1.999   8.710  17.746  0.00  0.00    +0.000 A 
ENDBRANCH   6   7
ENDBRANCH   2   5
BRANCH   1  13
ATOM     13  CA  GLU A   1       6.294   4.243  16.280  0.00  0.00    +0.000 C 
BRANCH  13  14
ATOM     14  C   GLU A   1       6.635   4.503  14.801  0.00  0.00    +0.000 C 
ATOM     15  O   GLU A   1       7.034   5.575  14.369  0.00  0.00    +0.000 OA
BRANCH  14  16
ATOM     16  OXT GLU A   1       6.336   3.466  13.984  0.00  0.00    +0.000 OA
ATOM     17  HXT GLU A   1       5.632   3.733  13.358  0.00  0.00    +0.000 HD
ENDBRANCH  14  16
ENDBRANCH  13  14
BRANCH  13  18
ATOM     18  CB  GLU A   1       7.550   4.478  17.147  0.00  0.00    +0.000 C 
BRANCH  18  19
ATOM     19  CG  GLU A   1       7.532   5.727  18.045  0.00  0.00    +0.000 C 
BRANCH  19  21
ATOM     20  OE1 GLU A   1       6.055   5.069  19.844  0.00  0.00    +0.000 OA
ATOM     21  CD  GLU A   1       7.165   5.414  19.478  0.00  0.00    +0.000 C 
BRANCH  21  22
ATOM     22  OE2 GLU A   1       8.178   5.614  20.348  0.00  0.00    +0.000 OA
ATOM     23  HE2 GLU A   1       8.073   6.392  20.934  0.00  0.00    +0.000 HD
ENDBRANCH  21  22
ENDBRANCH  19  21
ENDBRANCH  18  19
ENDBRANCH  13  18
ENDBRANCH   1  13
TORSDOF 9
ENDMDL
MODEL 2
REMARK VINA RESULT:      -6.9      1.024      1.387
REMARK  Name = 
REMARK  9 active torsions:
REMARK  status: ('A' for Active; 'I' for Inactive)
REMARK    1  A    between atoms: CD_2  and  OE2_3
REMARK    2  A    between atoms: CD_2  and  CG_4
REMARK    3  A    between atoms: CG_4  and  CB_5
REMARK    4  A    between atoms: CB_5  and  CA_6
REMARK    5  A    between atoms: CA_6  and  N_7
REMARK    6  A    between atoms: CA_6  and  C_18
REMARK    7  A    between atoms: C_8  and  C_10
REMARK    8  A    between atoms: C_11  and  C_12
REMARK    9  A    between atoms: C_18  and  OXT_20
REMARK                            x       y       z     vdW  Elec       q    Type
REMARK                         _______ _______ _______ _____ _____    ______ ____
ROOT
ATOM      1  N   GLU A   1       5.049   5.063  17.067  0.00  0.00    +0.000 N 
ATOM      2  C   UNK A   0       4.063   4.485  17.825  0.00  0.00    +0.000 C 
ATOM      3  O   UNK A   0       3.983   3.282  18.027  0.00  0.00    +0.000 OA
ATOM      4  H   GLU A   1       5.169   6.074  17.169  0.00  0.00    +0.000 HD
ENDROOT
BRANCH   2   5
ATOM      5  C   UNK A   0       3.048   5.464  18.273  0.00  0.00    +0.000 C 
ATOM      6  C   UNK A   0       3.254   6.776  18.088  0.00  0.00    +0.000 C 
BRANCH   6   7
ATOM      7  C   UNK A   0       2.354   7.810  18.613  0.00  0.00    +0.000 A 
ATOM      8  C   UNK A   0       1.936   7.814  19.953  0.00  0.00    +0.000 A 
ATOM      9  C   UNK A   0       1.106   8.827  20.437  0.00  0.00    +0.000 A 
ATOM     10  C   UNK A   0       0.695   9.854  19.590  0.00  0.00    +0.000 A 
ATOM     11  C   UNK A   0       1.124   9.874  18.265  0.00  0.00    +0.000 A 
ATOM     12  C   UNK A   0       1.955   8.861  17.781  0.00  0.00    +0.000 A 
ENDBRANCH   6   7
ENDBRANCH   2   5
BRANCH   1  13
ATOM     13  CA  GLU A   1       6.165   4.280  16.516  0.00  0.00    +0.000 C 
BRANCH  13  14
ATOM     14  C   GLU A   1       6.345   4.523  15.006  0.00  0.00    +0.000 C 
ATOM     15  O   GLU A   1       6.369   3.633  14.168  0.00  0.00    +0.000 OA
BRANCH  14  16
ATOM     16  OXT GLU A   1       6.602   5.815  14.690  0.00  0.00    +0.000 OA
ATOM     17  HXT GLU A   1       6.030   6.403  15.224  0.00  0.00    +0.000 HD
ENDBRANCH  14  16
ENDBRANCH  13  14
BRANCH  13  18
ATOM     18  CB  GLU A   1       7.497   4.562  17.245  0.00  0.00    +0.000 C 
BRANCH  18  19
ATOM     19  CG  GLU A   1       7.428   5.538  18.433  0.00  0.00    +0.000 C 
BRANCH  19  21
ATOM     20  OE1 GLU A   1       7.236   7.505  17.039  0.00  0.00    +0.000 OA
ATOM     21  CD  GLU A   1       7.699   6.970  18.032  0.00  0.00    +0.000 C 
BRANCH  21  22
ATOM     22  OE2 GLU A   1       8.564   7.604  18.852  0.00  0.00    +0.000 OA
ATOM     23  HE2 GLU A   1       9.458   7.747  18.478  0.00  0.00    +0.000 HD
ENDBRANCH  21  22
ENDBRANCH  19  21
ENDBRANCH  18  19
ENDBRANCH  13  18
ENDBRANCH   1  13
TORSDOF 9
ENDMDL
MODEL 3
REMARK VINA RESULT:      -6.8      1.135      1.628
REMARK  Name = 
REMARK  9 active torsions:
REMARK  status: ('A' for Active; 'I' for Inactive)
REMARK    1  A    between atoms: CD_2  and  OE2_3
REMARK    2  A    between atoms: CD_2  and  CG_4
REMARK    3  A    between atoms: CG_4  and  CB_5
REMARK    4  A    between atoms: CB_5  and  CA_6
REMARK    5  A    between atoms: CA_6  and  N_7
REMARK    6  A    between atoms: CA_6  and  C_18
REMARK    7  A    between atoms: C_8  and  C_10
REMARK    8  A    between atoms: C_11  and  C_12
REMARK    9  A    between atoms: C_18  and  OXT_20
REMARK                            x       y       z     vdW  Elec       q    Type
REMARK                         _______ _______ _______ _____ _____    ______ ____
ROOT
ATOM      1  N   GLU A   1       5.193   5.120  17.374  0.00  0.00    +0.000 N 
ATOM      2  C   UNK A   0       3.939   4.599  17.566  0.00  0.00    +0.000 C 
ATOM      3  O   UNK A   0       3.603   3.486  17.190  0.00  0.00    +0.000 OA
ATOM      4  H   GLU A   1       5.438   5.938  17.937  0.00  0.00    +0.000 HD
ENDROOT
BRANCH   2   5
ATOM      5  C   UNK A   0       3.009   5.578  18.174  0.00  0.00    +0.000 C 
ATOM      6  C   UNK A   0       3.142   6.885  17.906  0.00  0.00    +0.000 C 
BRANCH   6   7
ATOM      7  C   UNK A   0       2.339   7.923  18.565  0.00  0.00    +0.000 A 
ATOM      8  C   UNK A   0       1.880   9.053  17.870  0.00  0.00    +0.000 A 
ATOM      9  C   UNK A   0       1.091  10.010  18.511  0.00  0.00    +0.000 A 
ATOM     10  C   UNK A   0       0.740   9.840  19.848  0.00  0.00    +0.000 A 
ATOM     11  C   UNK A   0       1.168   8.710  20.540  0.00  0.00    +0.000 A 
ATOM     12  C   UNK A   0       1.957   7.752  19.900  0.00  0.00    +0.000 A 
ENDBRANCH   6   7
ENDBRANCH   2   5
BRANCH   1  13
ATOM     13  CA  GLU A   1       6.281   4.326  16.785  0.00  0.00    +0.000 C 
BRANCH  13  14
ATOM     14  C   GLU A   1       6.387   4.537  15.263  0.00  0.00    +0.000 C 
ATOM     15  O   GLU A   1       6.399   5.634  14.723  0.00  0.00    +0.000 OA
BRANCH  14  16
ATOM     16  OXT GLU A   1       6.344   3.385  14.550  0.00  0.00    +0.000 OA
ATOM     17  HXT GLU A   1       7.177   2.888  14.680  0.00  0.00    +0.000 HD
ENDBRANCH  14  16
ENDBRANCH  13  14
BRANCH  13  18
ATOM     18  CB  GLU A   1       7.647   4.622  17.442  0.00  0.00    +0.000 C 
BRANCH  18  19
ATOM     19  CG  GLU A   1       7.634   5.615  18.618  0.00  0.00    +0.000 C 
BRANCH  19  21
ATOM     20  OE1 GLU A   1       7.405   7.531  17.160  0.00  0.00    +0.000 OA
ATOM     21  CD  GLU A   1       7.859   7.044  18.181  0.00  0.00    +0.000 C 
BRANCH  21  22
ATOM     22  OE2 GLU A   1       8.675   7.736  19.005  0.00  0.00    +0.000 OA
ATOM     23  HE2 GLU A   1       9.622   7.486  18.955  0.00  0.00    +0.000 HD
ENDBRANCH  21  22
ENDBRANCH  19  21
ENDBRANCH  18  19
ENDBRANCH  13  18
ENDBRANCH   1  13
TORSDOF 9
ENDMDL
MODEL 4
REMARK VINA RESULT:      -6.8      3.928      5.776
REMARK  Name = 
REMARK  9 active torsions:
REMARK  status: ('A' for Active; 'I' for Inactive)
REMARK    1  A    between atoms: CD_2  and  OE2_3
REMARK    2  A    between atoms: CD_2  and  CG_4
REMARK    3  A    between atoms: CG_4  and  CB_5
REMARK    4  A    between atoms: CB_5  and  CA_6
REMARK    5  A    between atoms: CA_6  and  N_7
REMARK    6  A    between atoms: CA_6  and  C_18
REMARK    7  A    between atoms: C_8  and  C_10
REMARK    8  A    between atoms: C_11  and  C_12
REMARK    9  A    between atoms: C_18  and  OXT_20
REMARK                            x       y       z     vdW  Elec       q    Type
REMARK                         _______ _______ _______ _____ _____    ______ ____
ROOT
ATOM      1  N   GLU A   1       7.539   6.352  16.762  0.00  0.00    +0.000 N 
ATOM      2  C   UNK A   0       7.155   7.584  17.227  0.00  0.00    +0.000 C 
ATOM      3  O   UNK A   0       6.037   8.048  17.067  0.00  0.00    +0.000 OA
ATOM      4  H   GLU A   1       8.397   5.961  17.160  0.00  0.00    +0.000 HD
ENDROOT
BRANCH   2   5
ATOM      5  C   UNK A   0       8.277   8.331  17.840  0.00  0.00    +0.000 C 
ATOM      6  C   UNK A   0       8.128   9.627  18.150  0.00  0.00    +0.000 C 
BRANCH   6   7
ATOM      7  C   UNK A   0       9.229  10.463  18.645  0.00  0.00    +0.000 A 
ATOM      8  C   UNK A   0       9.407  10.715  20.014  0.00  0.00    +0.000 A 
ATOM      9  C   UNK A   0      10.480  11.487  20.462  0.00  0.00    +0.000 A 
ATOM     10  C   UNK A   0      11.396  12.003  19.547  0.00  0.00    +0.000 A 
ATOM     11  C   UNK A   0      11.244  11.738  18.188  0.00  0.00    +0.000 A 
ATOM     12  C   UNK A   0      10.170  10.965  17.740  0.00  0.00    +0.000 A 
ENDBRANCH   6   7
ENDBRANCH   2   5
BRANCH   1  13
ATOM     13  CA  GLU A   1       6.589   5.435  16.116  0.00  0.00    +0.000 C 
BRANCH  13  14
ATOM     14  C   GLU A   1       7.127   4.901  14.775  0.00  0.00    +0.000 C 
ATOM     15  O   GLU A   1       7.904   5.514  14.056  0.00  0.00    +0.000 OA
BRANCH  14  16
ATOM     16  OXT GLU A   1       6.566   3.729  14.392  0.00  0.00    +0.000 OA
ATOM     17  HXT GLU A   1       6.751   3.042  15.064  0.00  0.00    +0.000 HD
ENDBRANCH  14  16
ENDBRANCH  13  14
BRANCH  13  18
ATOM     18  CB  GLU A   1       6.208   4.247  17.027  0.00  0.00    +0.000 C 
BRANCH  18  19
ATOM     19  CG  GLU A   1       4.947   4.431  17.890  0.00  0.00    +0.000 C 
BRANCH  19  21
ATOM     20  OE1 GLU A   1       6.342   5.247  19.690  0.00  0.00    +0.000 OA
ATOM     21  CD  GLU A   1       5.231   5.128  19.201  0.00  0.00    +0.000 C 
BRANCH  21  22
ATOM     22  OE2 GLU A   1       4.119   5.563  19.831  0.00  0.00    +0.000 OA
ATOM     23  HE2 GLU A   1       3.274   5.291  19.413  0.00  0.00    +0.000 HD
ENDBRANCH  21  22
ENDBRANCH  19  21
ENDBRANCH  18  19
ENDBRANCH  13  18
ENDBRANCH   1  13
TORSDOF 9
ENDMDL
MODEL 5
REMARK VINA RESULT:      -6.8      4.319      6.484
REMARK  Name = 
REMARK  9 active torsions:
REMARK  status: ('A' for Active; 'I' for Inactive)
REMARK    1  A    between atoms: CD_2  and  OE2_3
REMARK    2  A    between atoms: CD_2  and  CG_4
REMARK    3  A    between atoms: CG_4  and  CB_5
REMARK    4  A    between atoms: CB_5  and  CA_6
REMARK    5  A    between atoms: CA_6  and  N_7
REMARK    6  A    between atoms: CA_6  and  C_18
REMARK    7  A    between atoms: C_8  and  C_10
REMARK    8  A    between atoms: C_11  and  C_12
REMARK    9  A    between atoms: C_18  and  OXT_20
REMARK                            x       y       z     vdW  Elec       q    Type
REMARK                         _______ _______ _______ _____ _____    ______ ____
ROOT
ATOM      1  N   GLU A   1       7.326   6.488  18.556  0.00  0.00    +0.000 N 
ATOM      2  C   UNK A   0       7.573   7.637  17.848  0.00  0.00    +0.000 C 
ATOM      3  O   UNK A   0       7.084   7.874  16.754  0.00  0.00    +0.000 OA
ATOM      4  H   GLU A   1       7.576   6.501  19.548  0.00  0.00    +0.000 HD
ENDROOT
BRANCH   2   5
ATOM      5  C   UNK A   0       8.582   8.498  18.504  0.00  0.00    +0.000 C 
ATOM      6  C   UNK A   0       8.602   9.815  18.255  0.00  0.00    +0.000 C 
BRANCH   6   7
ATOM      7  C   UNK A   0       9.645  10.712  18.769  0.00  0.00    +0.000 A 
ATOM      8  C   UNK A   0      10.571  11.332  17.917  0.00  0.00    +0.000 A 
ATOM      9  C   UNK A   0      11.533  12.206  18.427  0.00  0.00    +0.000 A 
ATOM     10  C   UNK A   0      11.571  12.480  19.792  0.00  0.00    +0.000 A 
ATOM     11  C   UNK A   0      10.641  11.890  20.644  0.00  0.00    +0.000 A 
ATOM     12  C   UNK A   0       9.678  11.016  20.134  0.00  0.00    +0.000 A 
ENDBRANCH   6   7
ENDBRANCH   2   5
BRANCH   1  13
ATOM     13  CA  GLU A   1       6.356   5.485  18.094  0.00  0.00    +0.000 C 
BRANCH  13  14
ATOM     14  C   GLU A   1       7.029   4.374  17.266  0.00  0.00    +0.000 C 
ATOM     15  O   GLU A   1       8.237   4.185  17.227  0.00  0.00    +0.000 OA
BRANCH  14  16
ATOM     16  OXT GLU A   1       6.169   3.689  16.475  0.00  0.00    +0.000 OA
ATOM     17  HXT GLU A   1       6.290   3.964  15.543  0.00  0.00    +0.000 HD
ENDBRANCH  14  16
ENDBRANCH  13  14
BRANCH  13  18
ATOM     18  CB  GLU A   1       5.567   4.850  19.260  0.00  0.00    +0.000 C 
BRANCH  18  19
ATOM     19  CG  GLU A   1       4.065   5.179  19.322  0.00  0.00    +0.000 C 
BRANCH  19  21
ATOM     20  OE1 GLU A   1       3.317   3.867  17.432  0.00  0.00    +0.000 OA
ATOM     21  CD  GLU A   1       3.210   4.154  18.612  0.00  0.00    +0.000 C 
BRANCH  21  22
ATOM     22  OE2 GLU A   1       2.254   3.614  19.398  0.00  0.00    +0.000 OA
ATOM     23  HE2 GLU A   1       2.395   3.733  20.361  0.00  0.00    +0.000 HD
ENDBRANCH  21  22
ENDBRANCH  19  21
ENDBRANCH  18  19
ENDBRANCH  13  18
ENDBRANCH   1  13
TORSDOF 9
ENDMDL
MODEL 6
REMARK VINA RESULT:      -6.8      3.241      5.322
REMARK  Name = 
REMARK  9 active torsions:
REMARK  status: ('A' for Active; 'I' for Inactive)
REMARK    1  A    between atoms: CD_2  and  OE2_3
REMARK    2  A    between atoms: CD_2  and  CG_4
REMARK    3  A    between atoms: CG_4  and  CB_5
REMARK    4  A    between atoms: CB_5  and  CA_6
REMARK    5  A    between atoms: CA_6  and  N_7
REMARK    6  A    between atoms: CA_6  and  C_18
REMARK    7  A    between atoms: C_8  and  C_10
REMARK    8  A    between atoms: C_11  and  C_12
REMARK    9  A    between atoms: C_18  and  OXT_20
REMARK                            x       y       z     vdW  Elec       q    Type
REMARK                         _______ _______ _______ _____ _____    ______ ____
ROOT
ATOM      1  N   GLU A   1       5.111   4.626  15.967  0.00  0.00    +0.000 N 
ATOM      2  C   UNK A   0       4.641   5.749  16.599  0.00  0.00    +0.000 C 
ATOM      3  O   UNK A   0       4.918   6.887  16.252  0.00  0.00    +0.000 OA
ATOM      4  H   GLU A   1       4.627   3.749  16.175  0.00  0.00    +0.000 HD
ENDROOT
BRANCH   2   5
ATOM      5  C   UNK A   0       3.858   5.427  17.814  0.00  0.00    +0.000 C 
ATOM      6  C   UNK A   0       3.782   4.160  18.246  0.00  0.00    +0.000 C 
BRANCH   6   7
ATOM      7  C   UNK A   0       2.928   3.746  19.366  0.00  0.00    +0.000 A 
ATOM      8  C   UNK A   0       1.565   4.075  19.417  0.00  0.00    +0.000 A 
ATOM      9  C   UNK A   0       0.767   3.642  20.477  0.00  0.00    +0.000 A 
ATOM     10  C   UNK A   0       1.320   2.863  21.491  0.00  0.00    +0.000 A 
ATOM     11  C   UNK A   0       2.666   2.508  21.439  0.00  0.00    +0.000 A 
ATOM     12  C   UNK A   0       3.464   2.941  20.377  0.00  0.00    +0.000 A 
ENDBRANCH   6   7
ENDBRANCH   2   5
BRANCH   1  13
ATOM     13  CA  GLU A   1       5.913   4.706  14.738  0.00  0.00    +0.000 C 
BRANCH  13  14
ATOM     14  C   GLU A   1       7.381   5.068  15.032  0.00  0.00    +0.000 C 
ATOM     15  O   GLU A   1       8.110   5.661  14.249  0.00  0.00    +0.000 OA
BRANCH  14  16
ATOM     16  OXT GLU A   1       7.842   4.561  16.200  0.00  0.00    +0.000 OA
ATOM     17  HXT GLU A   1       8.662   5.029  16.460  0.00  0.00    +0.000 HD
ENDBRANCH  14  16
ENDBRANCH  13  14
BRANCH  13  18
ATOM     18  CB  GLU A   1       5.860   3.399  13.916  0.00  0.00    +0.000 C 
BRANCH  18  19
ATOM     19  CG  GLU A   1       6.111   3.538  12.404  0.00  0.00    +0.000 C 
BRANCH  19  21
ATOM     20  OE1 GLU A   1       4.175   2.838  11.133  0.00  0.00    +0.000 OA
ATOM     21  CD  GLU A   1       5.280   2.580  11.581  0.00  0.00    +0.000 C 
BRANCH  21  22
ATOM     22  OE2 GLU A   1       5.850   1.365  11.431  0.00  0.00    +0.000 OA
ATOM     23  HE2 GLU A   1       5.308   0.713  10.940  0.00  0.00    +0.000 HD
ENDBRANCH  21  22
ENDBRANCH  19  21
ENDBRANCH  18  19
ENDBRANCH  13  18
ENDBRANCH   1  13
TORSDOF 9
ENDMDL
MODEL 7
REMARK VINA RESULT:      -6.8      4.461      6.435
REMARK  Name = 
REMARK  9 active torsions:
REMARK  status: ('A' for Active; 'I' for Inactive)
REMARK    1  A    between atoms: CD_2  and  OE2_3
REMARK    2  A    between atoms: CD_2  and  CG_4
REMARK    3  A    between atoms: CG_4  and  CB_5
REMARK    4  A    between atoms: CB_5  and  CA_6
REMARK    5  A    between atoms: CA_6  and  N_7
REMARK    6  A    between atoms: CA_6  and  C_18
REMARK    7  A    between atoms: C_8  and  C_10
REMARK    8  A    between atoms: C_11  and  C_12
REMARK    9  A    between atoms: C_18  and  OXT_20
REMARK                            x       y       z     vdW  Elec       q    Type
REMARK                         _______ _______ _______ _____ _____    ______ ____
ROOT
ATOM      1  N   GLU A   1       7.508   6.606  18.527  0.00  0.00    +0.000 N 
ATOM      2  C   UNK A   0       7.690   7.791  17.862  0.00  0.00    +0.000 C 
ATOM      3  O   UNK A   0       7.164   8.053  16.791  0.00  0.00    +0.000 OA
ATOM      4  H   GLU A   1       7.783   6.588  19.512  0.00  0.00    +0.000 HD
ENDROOT
BRANCH   2   5
ATOM      5  C   UNK A   0       8.681   8.666  18.528  0.00  0.00    +0.000 C 
ATOM      6  C   UNK A   0       8.665   9.987  18.304  0.00  0.00    +0.000 C 
BRANCH   6   7
ATOM      7  C   UNK A   0       9.689  10.901  18.829  0.00  0.00    +0.000 A 
ATOM      8  C   UNK A   0       9.788  11.189  20.199  0.00  0.00    +0.000 A 
ATOM      9  C   UNK A   0      10.790  12.036  20.677  0.00  0.00    +0.000 A 
ATOM     10  C   UNK A   0      11.712  12.591  19.792  0.00  0.00    +0.000 A 
ATOM     11  C   UNK A   0      11.639  12.292  18.435  0.00  0.00    +0.000 A 
ATOM     12  C   UNK A   0      10.637  11.444  17.956  0.00  0.00    +0.000 A 
ENDBRANCH   6   7
ENDBRANCH   2   5
BRANCH   1  13
ATOM     13  CA  GLU A   1       6.567   5.583  18.048  0.00  0.00    +0.000 C 
BRANCH  13  14
ATOM     14  C   GLU A   1       7.260   4.542  17.149  0.00  0.00    +0.000 C 
ATOM     15  O   GLU A   1       6.827   4.177  16.065  0.00  0.00    +0.000 OA
BRANCH  14  16
ATOM     16  OXT GLU A   1       8.342   3.963  17.721  0.00  0.00    +0.000 OA
ATOM     17  HXT GLU A   1       8.685   3.257  17.136  0.00  0.00    +0.000 HD
ENDBRANCH  14  16
ENDBRANCH  13  14
BRANCH  13  18
ATOM     18  CB  GLU A   1       5.843   4.861  19.206  0.00  0.00    +0.000 C 
BRANCH  18  19
ATOM     19  CG  GLU A   1       4.548   4.117  18.838  0.00  0.00    +0.000 C 
BRANCH  19  21
ATOM     20  OE1 GLU A   1       2.384   3.893  19.896  0.00  0.00    +0.000 OA
ATOM     21  CD  GLU A   1       3.354   4.586  19.639  0.00  0.00    +0.000 C 
BRANCH  21  22
ATOM     22  OE2 GLU A   1       3.426   5.884  20.002  0.00  0.00    +0.000 OA
ATOM     23  HE2 GLU A   1       3.302   6.525  19.271  0.00  0.00    +0.000 HD
ENDBRANCH  21  22
ENDBRANCH  19  21
ENDBRANCH  18  19
ENDBRANCH  13  18
ENDBRANCH   1  13
TORSDOF 9
ENDMDL
MODEL 8
REMARK VINA RESULT:      -6.7      3.236      5.257
REMARK  Name = 
REMARK  9 active torsions:
REMARK  status: ('A' for Active; 'I' for Inactive)
REMARK    1  A    between atoms: CD_2  and  OE2_3
REMARK    2  A    between atoms: CD_2  and  CG_4
REMARK    3  A    between atoms: CG_4  and  CB_5
REMARK    4  A    between atoms: CB_5  and  CA_6
REMARK    5  A    between atoms: CA_6  and  N_7
REMARK    6  A    between atoms: CA_6  and  C_18
REMARK    7  A    between atoms: C_8  and  C_10
REMARK    8  A    between atoms: C_11  and  C_12
REMARK    9  A    between atoms: C_18  and  OXT_20
REMARK                            x       y       z     vdW  Elec       q    Type
REMARK                         _______ _______ _______ _____ _____    ______ ____
ROOT
ATOM      1  N   GLU A   1       5.096   4.608  15.901  0.00  0.00    +0.000 N 
ATOM      2  C   UNK A   0       4.661   5.727  16.564  0.00  0.00    +0.000 C 
ATOM      3  O   UNK A   0       4.991   6.863  16.261  0.00  0.00    +0.000 OA
ATOM      4  H   GLU A   1       4.573   3.745  16.071  0.00  0.00    +0.000 HD
ENDROOT
BRANCH   2   5
ATOM      5  C   UNK A   0       3.843   5.397  17.753  0.00  0.00    +0.000 C 
ATOM      6  C   UNK A   0       3.890   4.164  18.278  0.00  0.00    +0.000 C 
BRANCH   6   7
ATOM      7  C   UNK A   0       3.019   3.728  19.376  0.00  0.00    +0.000 A 
ATOM      8  C   UNK A   0       3.483   2.880  20.394  0.00  0.00    +0.000 A 
ATOM      9  C   UNK A   0       2.645   2.505  21.446  0.00  0.00    +0.000 A 
ATOM     10  C   UNK A   0       1.338   2.985  21.498  0.00  0.00    +0.000 A 
ATOM     11  C   UNK A   0       0.875   3.847  20.508  0.00  0.00    +0.000 A 
ATOM     12  C   UNK A   0       1.714   4.223  19.456  0.00  0.00    +0.000 A 
ENDBRANCH   6   7
ENDBRANCH   2   5
BRANCH   1  13
ATOM     13  CA  GLU A   1       5.923   4.695  14.689  0.00  0.00    +0.000 C 
BRANCH  13  14
ATOM     14  C   GLU A   1       7.385   5.050  15.016  0.00  0.00    +0.000 C 
ATOM     15  O   GLU A   1       8.125   5.668  14.263  0.00  0.00    +0.000 OA
BRANCH  14  16
ATOM     16  OXT GLU A   1       7.830   4.508  16.175  0.00  0.00    +0.000 OA
ATOM     17  HXT GLU A   1       8.671   4.032  16.013  0.00  0.00    +0.000 HD
ENDBRANCH  14  16
ENDBRANCH  13  14
BRANCH  13  18
ATOM     18  CB  GLU A   1       5.883   3.396  13.855  0.00  0.00    +0.000 C 
BRANCH  18  19
ATOM     19  CG  GLU A   1       6.057   3.559  12.335  0.00  0.00    +0.000 C 
BRANCH  19  21
ATOM     20  OE1 GLU A   1       4.124   2.803  11.092  0.00  0.00    +0.000 OA
ATOM     21  CD  GLU A   1       5.234   2.570  11.541  0.00  0.00    +0.000 C 
BRANCH  21  22
ATOM     22  OE2 GLU A   1       5.818   1.359  11.420  0.00  0.00    +0.000 OA
ATOM     23  HE2 GLU A   1       5.531   0.838  10.641  0.00  0.00    +0.000 HD
ENDBRANCH  21  22
ENDBRANCH  19  21
ENDBRANCH  18  19
ENDBRANCH  13  18
ENDBRANCH   1  13
TORSDOF 9
ENDMDL
MODEL 9
REMARK VINA RESULT:      -6.7      4.485      6.571
REMARK  Name = 
REMARK  9 active torsions:
REMARK  status: ('A' for Active; 'I' for Inactive)
REMARK    1  A    between atoms: CD_2  and  OE2_3
REMARK    2  A    between atoms: CD_2  and  CG_4
REMARK    3  A    between atoms: CG_4  and  CB_5
REMARK    4  A    between atoms: CB_5  and  CA_6
REMARK    5  A    between atoms: CA_6  and  N_7
REMARK    6  A    between atoms: CA_6  and  C_18
REMARK    7  A    between atoms: C_8  and  C_10
REMARK    8  A    between atoms: C_11  and  C_12
REMARK    9  A    between atoms: C_18  and  OXT_20
REMARK                            x       y       z     vdW  Elec       q    Type
REMARK                         _______ _______ _______ _____ _____    ______ ____
ROOT
ATOM      1  N   GLU A   1       7.616   6.693  18.614  0.00  0.00    +0.000 N 
ATOM      2  C   UNK A   0       7.775   7.865  17.921  0.00  0.00    +0.000 C 
ATOM      3  O   UNK A   0       7.230   8.097  16.852  0.00  0.00    +0.000 OA
ATOM      4  H   GLU A   1       7.907   6.701  19.595  0.00  0.00    +0.000 HD
ENDROOT
BRANCH   2   5
ATOM      5  C   UNK A   0       8.766   8.765  18.551  0.00  0.00    +0.000 C 
ATOM      6  C   UNK A   0       8.806  10.062  18.212  0.00  0.00    +0.000 C 
BRANCH   6   7
ATOM      7  C   UNK A   0       9.836  10.986  18.700  0.00  0.00    +0.000 A 
ATOM      8  C   UNK A   0       9.983  11.273  20.066  0.00  0.00    +0.000 A 
ATOM      9  C   UNK A   0      10.992  12.131  20.509  0.00  0.00    +0.000 A 
ATOM     10  C   UNK A   0      11.873  12.700  19.592  0.00  0.00    +0.000 A 
ATOM     11  C   UNK A   0      11.753  12.402  18.237  0.00  0.00    +0.000 A 
ATOM     12  C   UNK A   0      10.745  11.544  17.794  0.00  0.00    +0.000 A 
ENDBRANCH   6   7
ENDBRANCH   2   5
BRANCH   1  13
ATOM     13  CA  GLU A   1       6.680   5.649  18.172  0.00  0.00    +0.000 C 
BRANCH  13  14
ATOM     14  C   GLU A   1       7.408   4.476  17.490  0.00  0.00    +0.000 C 
ATOM     15  O   GLU A   1       8.489   4.036  17.853  0.00  0.00    +0.000 OA
BRANCH  14  16
ATOM     16  OXT GLU A   1       6.800   4.043  16.359  0.00  0.00    +0.000 OA
ATOM     17  HXT GLU A   1       5.835   3.973  16.512  0.00  0.00    +0.000 HD
ENDBRANCH  14  16
ENDBRANCH  13  14
BRANCH  13  18
ATOM     18  CB  GLU A   1       5.811   5.111  19.330  0.00  0.00    +0.000 C 
BRANCH  18  19
ATOM     19  CG  GLU A   1       4.316   4.917  19.023  0.00  0.00    +0.000 C 
BRANCH  19  21
ATOM     20  OE1 GLU A   1       4.055   2.860  17.777  0.00  0.00    +0.000 OA
ATOM     21  CD  GLU A   1       3.940   3.466  18.829  0.00  0.00    +0.000 C 
BRANCH  21  22
ATOM     22  OE2 GLU A   1       3.397   2.900  19.928  0.00  0.00    +0.000 OA
ATOM     23  HE2 GLU A   1       3.261   3.510  20.683  0.00  0.00    +0.000 HD
ENDBRANCH  21  22
ENDBRANCH  19  21
ENDBRANCH  18  19
ENDBRANCH  13  18
ENDBRANCH   1  13
TORSDOF 9
ENDMDL
