MODEL 1
REMARK VINA RESULT:      -6.7      0.000      0.000
REMARK  Name = 
REMARK  10 active torsions:
REMARK  status: ('A' for Active; 'I' for Inactive)
REMARK    1  A    between atoms: C_1  and  C_2
REMARK    2  A    between atoms: C_2  and  O_3
REMARK    3  A    between atoms: O_3  and  C_4
REMARK    4  A    between atoms: N_9  and  C_10
REMARK    5  A    between atoms: C_10  and  C_11
REMARK    6  A    between atoms: C_11  and  O_12
REMARK    7  A    between atoms: C_11  and  C_13
REMARK    8  A    between atoms: C_13  and  O_14
REMARK    9  A    between atoms: O_14  and  C_15
REMARK   10  A    between atoms: C_15  and  C_16
REMARK                            x       y       z     vdW  Elec       q    Type
REMARK                         _______ _______ _______ _____ _____    ______ ____
ROOT
ATOM      1  C   UNL     1       4.990   5.591  19.220  0.00  0.00    +0.000 C 
ENDROOT
BRANCH   1   7
ATOM      2  C   UNL     1       6.629   4.938  14.587  0.00  0.00    +0.000 C 
ATOM      3  O   UNL     1       7.778   5.240  14.289  0.00  0.00    +0.000 OA
ATOM      4  N   UNL     1       6.154   5.185  15.847  0.00  0.00    +0.000 N 
ATOM      5  C   UNL     1       4.790   4.840  16.223  0.00  0.00    +0.000 C 
ATOM      6  C   UNL     1       4.850   3.868  17.410  0.00  0.00    +0.000 C 
ATOM      7  N   UNL     1       5.628   4.432  18.542  0.00  0.00    +0.000 NA
ATOM      8  C   UNL     1       7.002   4.765  18.088  0.00  0.00    +0.000 C 
ATOM      9  C   UNL     1       6.994   5.747  16.897  0.00  0.00    +0.000 C 
BRANCH   2  10
ATOM     10  O   UNL     1       5.832   4.325  13.671  0.00  0.00    +0.000 OA
BRANCH  10  12
ATOM     11  C   UNL     1       5.098   2.998  11.813  0.00  0.00    +0.000 C 
ATOM     12  C   UNL     1       6.270   3.545  12.619  0.00  0.00    +0.000 C 
ENDBRANCH  10  12
ENDBRANCH   2  10
ENDBRANCH   1   7
BRANCH   1  13
ATOM     13  C   UNL     1       3.457   5.458  19.359  0.00  0.00    +0.000 C 
BRANCH  13  14
ATOM     14  O   UNL     1       3.096   5.226  20.699  0.00  0.00    +0.000 OA
ATOM     15  H   UNL     1       2.215   5.656  20.851  0.00  0.00    +0.000 HD
ENDBRANCH  13  14
BRANCH  13  16
ATOM     16  C   UNL     1       2.741   6.699  18.805  0.00  0.00    +0.000 C 
BRANCH  16  17
ATOM     17  O   UNL     1       2.126   7.386  19.877  0.00  0.00    +0.000 OA
BRANCH  17  18
ATOM     18  C   UNL     1       1.585   8.604  19.418  0.00  0.00    +0.000 C 
BRANCH  18  19
ATOM     19  C   UNL     1       0.846   9.261  20.554  0.00  0.00    +0.000 A 
ATOM     20  C   UNL     1       0.978   8.758  21.859  0.00  0.00    +0.000 A 
ATOM     21  C   UNL     1       0.295   9.364  22.919  0.00  0.00    +0.000 A 
ATOM     22  C   UNL     1      -0.519  10.475  22.683  0.00  0.00    +0.000 A 
ATOM     23  C   UNL     1      -0.656  10.979  21.389  0.00  0.00    +0.000 A 
ATOM     24  C   UNL     1       0.023  10.377  20.326  0.00  0.00    +0.000 A 
ENDBRANCH  18  19
ENDBRANCH  17  18
ENDBRANCH  16  17
ENDBRANCH  13  16
ENDBRANCH   1  13
TORSDOF 9
ENDMDL
MODEL 2
REMARK VINA RESULT:      -6.6      3.116      8.839
REMARK  Name = 
REMARK  10 active torsions:
REMARK  status: ('A' for Active; 'I' for Inactive)
REMARK    1  A    between atoms: C_1  and  C_2
REMARK    2  A    between atoms: C_2  and  O_3
REMARK    3  A    between atoms: O_3  and  C_4
REMARK    4  A    between atoms: N_9  and  C_10
REMARK    5  A    between atoms: C_10  and  C_11
REMARK    6  A    between atoms: C_11  and  O_12
REMARK    7  A    between atoms: C_11  and  C_13
REMARK    8  A    between atoms: C_13  and  O_14
REMARK    9  A    between atoms: O_14  and  C_15
REMARK   10  A    between atoms: C_15  and  C_16
REMARK                            x       y       z     vdW  Elec       q    Type
REMARK                         _______ _______ _______ _____ _____    ______ ____
ROOT
ATOM      1  C   UNL     1       6.080   5.577  17.513  0.00  0.00    +0.000 C 
ENDROOT
BRANCH   1   7
ATOM      2  C   UNL     1       2.309   4.894  20.659  0.00  0.00    +0.000 C 
ATOM      3  O   UNL     1       1.399   5.711  20.719  0.00  0.00    +0.000 OA
ATOM      4  N   UNL     1       3.386   5.118  19.843  0.00  0.00    +0.000 N 
ATOM      5  C   UNL     1       4.484   4.164  19.758  0.00  0.00    +0.000 C 
ATOM      6  C   UNL     1       4.612   3.708  18.298  0.00  0.00    +0.000 C 
ATOM      7  N   UNL     1       4.785   4.860  17.376  0.00  0.00    +0.000 NA
ATOM      8  C   UNL     1       3.637   5.791  17.519  0.00  0.00    +0.000 C 
ATOM      9  C   UNL     1       3.471   6.284  18.972  0.00  0.00    +0.000 C 
BRANCH   2  10
ATOM     10  O   UNL     1       2.235   3.744  21.381  0.00  0.00    +0.000 OA
BRANCH  10  12
ATOM     11  C   UNL     1       1.041   2.458  19.746  0.00  0.00    +0.000 C 
ATOM     12  C   UNL     1       1.284   2.755  21.221  0.00  0.00    +0.000 C 
ENDBRANCH  10  12
ENDBRANCH   2  10
ENDBRANCH   1   7
BRANCH   1  13
ATOM     13  C   UNL     1       7.196   5.015  16.605  0.00  0.00    +0.000 C 
BRANCH  13  14
ATOM     14  O   UNL     1       8.036   4.147  17.326  0.00  0.00    +0.000 OA
ATOM     15  H   UNL     1       7.496   3.360  17.594  0.00  0.00    +0.000 HD
ENDBRANCH  13  14
BRANCH  13  16
ATOM     16  C   UNL     1       6.606   4.309  15.375  0.00  0.00    +0.000 C 
BRANCH  16  17
ATOM     17  O   UNL     1       6.575   5.222  14.296  0.00  0.00    +0.000 OA
BRANCH  17  18
ATOM     18  C   UNL     1       7.359   4.734  13.232  0.00  0.00    +0.000 C 
BRANCH  18  19
ATOM     19  C   UNL     1       6.542   3.745  12.444  0.00  0.00    +0.000 A 
ATOM     20  C   UNL     1       7.172   2.659  11.814  0.00  0.00    +0.000 A 
ATOM     21  C   UNL     1       6.419   1.736  11.082  0.00  0.00    +0.000 A 
ATOM     22  C   UNL     1       5.034   1.889  10.977  0.00  0.00    +0.000 A 
ATOM     23  C   UNL     1       4.400   2.965  11.599  0.00  0.00    +0.000 A 
ATOM     24  C   UNL     1       5.149   3.892  12.331  0.00  0.00    +0.000 A 
ENDBRANCH  18  19
ENDBRANCH  17  18
ENDBRANCH  16  17
ENDBRANCH  13  16
ENDBRANCH   1  13
TORSDOF 9
ENDMDL
MODEL 3
REMARK VINA RESULT:      -6.5      3.591      8.998
REMARK  Name = 
REMARK  10 active torsions:
REMARK  status: ('A' for Active; 'I' for Inactive)
REMARK    1  A    between atoms: C_1  and  C_2
REMARK    2  A    between atoms: C_2  and  O_3
REMARK    3  A    between atoms: O_3  and  C_4
REMARK    4  A    between atoms: N_9  and  C_10
REMARK    5  A    between atoms: C_10  and  C_11
REMARK    6  A    between atoms: C_11  and  O_12
REMARK    7  A    between atoms: C_11  and  C_13
REMARK    8  A    between atoms: C_13  and  O_14
REMARK    9  A    between atoms: O_14  and  C_15
REMARK   10  A    between atoms: C_15  and  C_16
REMARK                            x       y       z     vdW  Elec       q    Type
REMARK                         _______ _______ _______ _____ _____    ______ ____
ROOT
ATOM      1  C   UNL     1       5.988   5.719  17.577  0.00  0.00    +0.000 C 
ENDROOT
BRANCH   1   7
ATOM      2  C   UNL     1       1.554   3.864  18.793  0.00  0.00    +0.000 C 
ATOM      3  O   UNL     1       0.896   3.245  17.967  0.00  0.00    +0.000 OA
ATOM      4  N   UNL     1       2.746   4.438  18.438  0.00  0.00    +0.000 N 
ATOM      5  C   UNL     1       3.544   5.185  19.400  0.00  0.00    +0.000 C 
ATOM      6  C   UNL     1       4.924   4.520  19.499  0.00  0.00    +0.000 C 
ATOM      7  N   UNL     1       5.581   4.419  18.170  0.00  0.00    +0.000 NA
ATOM      8  C   UNL     1       4.712   3.653  17.240  0.00  0.00    +0.000 C 
ATOM      9  C   UNL     1       3.312   4.289  17.103  0.00  0.00    +0.000 C 
BRANCH   2  10
ATOM     10  O   UNL     1       1.116   3.955  20.077  0.00  0.00    +0.000 OA
BRANCH  10  12
ATOM     11  C   UNL     1       2.318   2.866  21.844  0.00  0.00    +0.000 C 
ATOM     12  C   UNL     1       1.061   2.913  20.982  0.00  0.00    +0.000 C 
ENDBRANCH  10  12
ENDBRANCH   2  10
ENDBRANCH   1   7
BRANCH   1  13
ATOM     13  C   UNL     1       7.117   5.593  16.529  0.00  0.00    +0.000 C 
BRANCH  13  14
ATOM     14  O   UNL     1       7.932   4.479  16.806  0.00  0.00    +0.000 OA
ATOM     15  H   UNL     1       8.116   4.477  17.780  0.00  0.00    +0.000 HD
ENDBRANCH  13  14
BRANCH  13  16
ATOM     16  C   UNL     1       6.545   5.514  15.107  0.00  0.00    +0.000 C 
BRANCH  16  17
ATOM     17  O   UNL     1       7.249   4.521  14.387  0.00  0.00    +0.000 OA
BRANCH  17  18
ATOM     18  C   UNL     1       7.223   4.818  13.009  0.00  0.00    +0.000 C 
BRANCH  18  19
ATOM     19  C   UNL     1       6.670   3.628  12.270  0.00  0.00    +0.000 A 
ATOM     20  C   UNL     1       5.281   3.486  12.112  0.00  0.00    +0.000 A 
ATOM     21  C   UNL     1       4.760   2.384  11.426  0.00  0.00    +0.000 A 
ATOM     22  C   UNL     1       5.621   1.421  10.892  0.00  0.00    +0.000 A 
ATOM     23  C   UNL     1       7.002   1.555  11.045  0.00  0.00    +0.000 A 
ATOM     24  C   UNL     1       7.527   2.654  11.731  0.00  0.00    +0.000 A 
ENDBRANCH  18  19
ENDBRANCH  17  18
ENDBRANCH  16  17
ENDBRANCH  13  16
ENDBRANCH   1  13
TORSDOF 9
ENDMDL
MODEL 4
REMARK VINA RESULT:      -6.4      4.370      7.102
REMARK  Name = 
REMARK  10 active torsions:
REMARK  status: ('A' for Active; 'I' for Inactive)
REMARK    1  A    between atoms: C_1  and  C_2
REMARK    2  A    between atoms: C_2  and  O_3
REMARK    3  A    between atoms: O_3  and  C_4
REMARK    4  A    between atoms: N_9  and  C_10
REMARK    5  A    between atoms: C_10  and  C_11
REMARK    6  A    between atoms: C_11  and  O_12
REMARK    7  A    between atoms: C_11  and  C_13
REMARK    8  A    between atoms: C_13  and  O_14
REMARK    9  A    between atoms: O_14  and  C_15
REMARK   10  A    between atoms: C_15  and  C_16
REMARK                            x       y       z     vdW  Elec       q    Type
REMARK                         _______ _______ _______ _____ _____    ______ ____
ROOT
ATOM      1  C   UNL     1       5.803   6.540  17.652  0.00  0.00    +0.000 C 
ENDROOT
BRANCH   1   7
ATOM      2  C   UNL     1       2.377   2.956  17.652  0.00  0.00    +0.000 C 
ATOM      3  O   UNL     1       2.689   1.803  17.382  0.00  0.00    +0.000 OA
ATOM      4  N   UNL     1       3.308   3.958  17.582  0.00  0.00    +0.000 N 
ATOM      5  C   UNL     1       2.960   5.338  17.891  0.00  0.00    +0.000 C 
ATOM      6  C   UNL     1       3.856   5.812  19.045  0.00  0.00    +0.000 C 
ATOM      7  N   UNL     1       5.296   5.645  18.726  0.00  0.00    +0.000 NA
ATOM      8  C   UNL     1       5.578   4.221  18.416  0.00  0.00    +0.000 C 
ATOM      9  C   UNL     1       4.705   3.700  17.254  0.00  0.00    +0.000 C 
BRANCH   2  10
ATOM     10  O   UNL     1       1.109   3.238  18.053  0.00  0.00    +0.000 OA
BRANCH  10  12
ATOM     11  C   UNL     1       0.879   3.644  20.406  0.00  0.00    +0.000 C 
ATOM     12  C   UNL     1       0.511   2.774  19.209  0.00  0.00    +0.000 C 
ENDBRANCH  10  12
ENDBRANCH   2  10
ENDBRANCH   1   7
BRANCH   1  13
ATOM     13  C   UNL     1       7.335   6.468  17.461  0.00  0.00    +0.000 C 
BRANCH  13  14
ATOM     14  O   UNL     1       7.702   6.951  16.191  0.00  0.00    +0.000 OA
ATOM     15  H   UNL     1       6.891   6.937  15.620  0.00  0.00    +0.000 HD
ENDBRANCH  13  14
BRANCH  13  16
ATOM     16  C   UNL     1       8.068   7.235  18.571  0.00  0.00    +0.000 C 
BRANCH  16  17
ATOM     17  O   UNL     1       8.212   8.584  18.174  0.00  0.00    +0.000 OA
BRANCH  17  18
ATOM     18  C   UNL     1       9.108   9.246  19.038  0.00  0.00    +0.000 C 
BRANCH  18  19
ATOM     19  C   UNL     1       9.237  10.679  18.594  0.00  0.00    +0.000 A 
ATOM     20  C   UNL     1       8.241  11.254  17.788  0.00  0.00    +0.000 A 
ATOM     21  C   UNL     1       8.353  12.585  17.372  0.00  0.00    +0.000 A 
ATOM     22  C   UNL     1       9.457  13.349  17.761  0.00  0.00    +0.000 A 
ATOM     23  C   UNL     1      10.451  12.784  18.560  0.00  0.00    +0.000 A 
ATOM     24  C   UNL     1      10.345  11.454  18.978  0.00  0.00    +0.000 A 
ENDBRANCH  18  19
ENDBRANCH  17  18
ENDBRANCH  16  17
ENDBRANCH  13  16
ENDBRANCH   1  13
TORSDOF 9
ENDMDL
MODEL 5
REMARK VINA RESULT:      -6.4      4.446      7.408
REMARK  Name = 
REMARK  10 active torsions:
REMARK  status: ('A' for Active; 'I' for Inactive)
REMARK    1  A    between atoms: C_1  and  C_2
REMARK    2  A    between atoms: C_2  and  O_3
REMARK    3  A    between atoms: O_3  and  C_4
REMARK    4  A    between atoms: N_9  and  C_10
REMARK    5  A    between atoms: C_10  and  C_11
REMARK    6  A    between atoms: C_11  and  O_12
REMARK    7  A    between atoms: C_11  and  C_13
REMARK    8  A    between atoms: C_13  and  O_14
REMARK    9  A    between atoms: O_14  and  C_15
REMARK   10  A    between atoms: C_15  and  C_16
REMARK                            x       y       z     vdW  Elec       q    Type
REMARK                         _______ _______ _______ _____ _____    ______ ____
ROOT
ATOM      1  C   UNL     1       6.316   5.737  18.693  0.00  0.00    +0.000 C 
ENDROOT
BRANCH   1   7
ATOM      2  C   UNL     1       1.742   3.864  18.312  0.00  0.00    +0.000 C 
ATOM      3  O   UNL     1       0.997   4.232  17.413  0.00  0.00    +0.000 OA
ATOM      4  N   UNL     1       2.979   4.433  18.461  0.00  0.00    +0.000 N 
ATOM      5  C   UNL     1       3.881   4.018  19.526  0.00  0.00    +0.000 C 
ATOM      6  C   UNL     1       5.182   3.515  18.884  0.00  0.00    +0.000 C 
ATOM      7  N   UNL     1       5.786   4.539  17.993  0.00  0.00    +0.000 NA
ATOM      8  C   UNL     1       4.812   4.919  16.938  0.00  0.00    +0.000 C 
ATOM      9  C   UNL     1       3.488   5.439  17.536  0.00  0.00    +0.000 C 
BRANCH   2  10
ATOM     10  O   UNL     1       1.353   2.864  19.146  0.00  0.00    +0.000 OA
BRANCH  10  12
ATOM     11  C   UNL     1       1.250   2.657  21.533  0.00  0.00    +0.000 C 
ATOM     12  C   UNL     1       0.523   3.008  20.240  0.00  0.00    +0.000 C 
ENDBRANCH  10  12
ENDBRANCH   2  10
ENDBRANCH   1   7
BRANCH   1  13
ATOM     13  C   UNL     1       7.563   6.347  18.014  0.00  0.00    +0.000 C 
BRANCH  13  14
ATOM     14  O   UNL     1       7.915   5.612  16.867  0.00  0.00    +0.000 OA
ATOM     15  H   UNL     1       8.657   5.003  17.117  0.00  0.00    +0.000 HD
ENDBRANCH  13  14
BRANCH  13  16
ATOM     16  C   UNL     1       7.338   7.827  17.669  0.00  0.00    +0.000 C 
BRANCH  16  17
ATOM     17  O   UNL     1       8.291   8.607  18.363  0.00  0.00    +0.000 OA
BRANCH  17  18
ATOM     18  C   UNL     1       8.596   9.766  17.620  0.00  0.00    +0.000 C 
BRANCH  18  19
ATOM     19  C   UNL     1       9.433  10.680  18.475  0.00  0.00    +0.000 A 
ATOM     20  C   UNL     1      10.284  11.619  17.870  0.00  0.00    +0.000 A 
ATOM     21  C   UNL     1      11.064  12.472  18.657  0.00  0.00    +0.000 A 
ATOM     22  C   UNL     1      10.997  12.395  20.050  0.00  0.00    +0.000 A 
ATOM     23  C   UNL     1      10.154  11.464  20.659  0.00  0.00    +0.000 A 
ATOM     24  C   UNL     1       9.373  10.608  19.877  0.00  0.00    +0.000 A 
ENDBRANCH  18  19
ENDBRANCH  17  18
ENDBRANCH  16  17
ENDBRANCH  13  16
ENDBRANCH   1  13
TORSDOF 9
ENDMDL
MODEL 6
REMARK VINA RESULT:      -6.3      0.605      1.201
REMARK  Name = 
REMARK  10 active torsions:
REMARK  status: ('A' for Active; 'I' for Inactive)
REMARK    1  A    between atoms: C_1  and  C_2
REMARK    2  A    between atoms: C_2  and  O_3
REMARK    3  A    between atoms: O_3  and  C_4
REMARK    4  A    between atoms: N_9  and  C_10
REMARK    5  A    between atoms: C_10  and  C_11
REMARK    6  A    between atoms: C_11  and  O_12
REMARK    7  A    between atoms: C_11  and  C_13
REMARK    8  A    between atoms: C_13  and  O_14
REMARK    9  A    between atoms: O_14  and  C_15
REMARK   10  A    between atoms: C_15  and  C_16
REMARK                            x       y       z     vdW  Elec       q    Type
REMARK                         _______ _______ _______ _____ _____    ______ ____
ROOT
ATOM      1  C   UNL     1       5.446   5.463  19.209  0.00  0.00    +0.000 C 
ENDROOT
BRANCH   1   7
ATOM      2  C   UNL     1       6.711   4.943  14.443  0.00  0.00    +0.000 C 
ATOM      3  O   UNL     1       7.832   5.258  14.064  0.00  0.00    +0.000 OA
ATOM      4  N   UNL     1       6.338   5.154  15.744  0.00  0.00    +0.000 N 
ATOM      5  C   UNL     1       5.008   4.794  16.218  0.00  0.00    +0.000 C 
ATOM      6  C   UNL     1       5.165   3.790  17.369  0.00  0.00    +0.000 C 
ATOM      7  N   UNL     1       6.030   4.325  18.451  0.00  0.00    +0.000 NA
ATOM      8  C   UNL     1       7.363   4.675  17.897  0.00  0.00    +0.000 C 
ATOM      9  C   UNL     1       7.258   5.690  16.739  0.00  0.00    +0.000 C 
BRANCH   2  10
ATOM     10  O   UNL     1       5.844   4.353  13.577  0.00  0.00    +0.000 OA
BRANCH  10  12
ATOM     11  C   UNL     1       4.975   3.073  11.745  0.00  0.00    +0.000 C 
ATOM     12  C   UNL     1       6.186   3.450  12.590  0.00  0.00    +0.000 C 
ENDBRANCH  10  12
ENDBRANCH   2  10
ENDBRANCH   1   7
BRANCH   1  13
ATOM     13  C   UNL     1       3.911   5.572  19.073  0.00  0.00    +0.000 C 
BRANCH  13  14
ATOM     14  O   UNL     1       3.289   5.440  20.328  0.00  0.00    +0.000 OA
ATOM     15  H   UNL     1       2.634   4.698  20.262  0.00  0.00    +0.000 HD
ENDBRANCH  13  14
BRANCH  13  16
ATOM     16  C   UNL     1       3.507   6.891  18.398  0.00  0.00    +0.000 C 
BRANCH  16  17
ATOM     17  O   UNL     1       2.178   7.202  18.764  0.00  0.00    +0.000 OA
BRANCH  17  18
ATOM     18  C   UNL     1       1.916   8.564  18.507  0.00  0.00    +0.000 C 
BRANCH  18  19
ATOM     19  C   UNL     1       1.143   9.133  19.667  0.00  0.00    +0.000 A 
ATOM     20  C   UNL     1       0.411  10.320  19.505  0.00  0.00    +0.000 A 
ATOM     21  C   UNL     1      -0.312  10.854  20.578  0.00  0.00    +0.000 A 
ATOM     22  C   UNL     1      -0.309  10.205  21.815  0.00  0.00    +0.000 A 
ATOM     23  C   UNL     1       0.416   9.025  21.984  0.00  0.00    +0.000 A 
ATOM     24  C   UNL     1       1.140   8.487  20.915  0.00  0.00    +0.000 A 
ENDBRANCH  18  19
ENDBRANCH  17  18
ENDBRANCH  16  17
ENDBRANCH  13  16
ENDBRANCH   1  13
TORSDOF 9
ENDMDL
MODEL 7
REMARK VINA RESULT:      -6.3      0.966      1.486
REMARK  Name = 
REMARK  10 active torsions:
REMARK  status: ('A' for Active; 'I' for Inactive)
REMARK    1  A    between atoms: C_1  and  C_2
REMARK    2  A    between atoms: C_2  and  O_3
REMARK    3  A    between atoms: O_3  and  C_4
REMARK    4  A    between atoms: N_9  and  C_10
REMARK    5  A    between atoms: C_10  and  C_11
REMARK    6  A    between atoms: C_11  and  O_12
REMARK    7  A    between atoms: C_11  and  C_13
REMARK    8  A    between atoms: C_13  and  O_14
REMARK    9  A    between atoms: O_14  and  C_15
REMARK   10  A    between atoms: C_15  and  C_16
REMARK                            x       y       z     vdW  Elec       q    Type
REMARK                         _______ _______ _______ _____ _____    ______ ____
ROOT
ATOM      1  C   UNL     1       2.980   5.541  18.030  0.00  0.00    +0.000 C 
ENDROOT
BRANCH   1   7
ATOM      2  C   UNL     1       6.629   4.852  14.746  0.00  0.00    +0.000 C 
ATOM      3  O   UNL     1       7.566   5.638  14.689  0.00  0.00    +0.000 OA
ATOM      4  N   UNL     1       5.585   5.081  15.602  0.00  0.00    +0.000 N 
ATOM      5  C   UNL     1       4.456   4.165  15.683  0.00  0.00    +0.000 C 
ATOM      6  C   UNL     1       4.354   3.655  17.128  0.00  0.00    +0.000 C 
ATOM      7  N   UNL     1       4.250   4.774  18.099  0.00  0.00    +0.000 NA
ATOM      8  C   UNL     1       5.428   5.668  17.958  0.00  0.00    +0.000 C 
ATOM      9  C   UNL     1       5.568   6.213  16.521  0.00  0.00    +0.000 C 
BRANCH   2  10
ATOM     10  O   UNL     1       6.639   3.731  13.977  0.00  0.00    +0.000 OA
BRANCH  10  12
ATOM     11  C   UNL     1       5.248   3.247  12.084  0.00  0.00    +0.000 C 
ATOM     12  C   UNL     1       6.609   3.703  12.597  0.00  0.00    +0.000 C 
ENDBRANCH  10  12
ENDBRANCH   2  10
ENDBRANCH   1   7
BRANCH   1  13
ATOM     13  C   UNL     1       2.453   5.988  19.413  0.00  0.00    +0.000 C 
BRANCH  13  14
ATOM     14  O   UNL     1       3.146   5.330  20.446  0.00  0.00    +0.000 OA
ATOM     15  H   UNL     1       2.776   4.412  20.518  0.00  0.00    +0.000 HD
ENDBRANCH  13  14
BRANCH  13  16
ATOM     16  C   UNL     1       2.546   7.512  19.575  0.00  0.00    +0.000 C 
BRANCH  16  17
ATOM     17  O   UNL     1       1.476   7.950  20.388  0.00  0.00    +0.000 OA
BRANCH  17  18
ATOM     18  C   UNL     1       0.946   9.152  19.877  0.00  0.00    +0.000 C 
BRANCH  18  19
ATOM     19  C   UNL     1       0.180   9.846  20.972  0.00  0.00    +0.000 A 
ATOM     20  C   UNL     1      -0.441  11.080  20.719  0.00  0.00    +0.000 A 
ATOM     21  C   UNL     1      -1.155  11.730  21.732  0.00  0.00    +0.000 A 
ATOM     22  C   UNL     1      -1.255  11.151  23.000  0.00  0.00    +0.000 A 
ATOM     23  C   UNL     1      -0.640   9.925  23.259  0.00  0.00    +0.000 A 
ATOM     24  C   UNL     1       0.076   9.272  22.251  0.00  0.00    +0.000 A 
ENDBRANCH  18  19
ENDBRANCH  17  18
ENDBRANCH  16  17
ENDBRANCH  13  16
ENDBRANCH   1  13
TORSDOF 9
ENDMDL
MODEL 8
REMARK VINA RESULT:      -6.3      4.890      7.656
REMARK  Name = 
REMARK  10 active torsions:
REMARK  status: ('A' for Active; 'I' for Inactive)
REMARK    1  A    between atoms: C_1  and  C_2
REMARK    2  A    between atoms: C_2  and  O_3
REMARK    3  A    between atoms: O_3  and  C_4
REMARK    4  A    between atoms: N_9  and  C_10
REMARK    5  A    between atoms: C_10  and  C_11
REMARK    6  A    between atoms: C_11  and  O_12
REMARK    7  A    between atoms: C_11  and  C_13
REMARK    8  A    between atoms: C_13  and  O_14
REMARK    9  A    between atoms: O_14  and  C_15
REMARK   10  A    between atoms: C_15  and  C_16
REMARK                            x       y       z     vdW  Elec       q    Type
REMARK                         _______ _______ _______ _____ _____    ______ ____
ROOT
ATOM      1  C   UNL     1       6.969   6.531  17.103  0.00  0.00    +0.000 C 
ENDROOT
BRANCH   1   7
ATOM      2  C   UNL     1       3.132   3.485  17.865  0.00  0.00    +0.000 C 
ATOM      3  O   UNL     1       2.622   2.887  16.926  0.00  0.00    +0.000 OA
ATOM      4  N   UNL     1       4.144   4.381  17.646  0.00  0.00    +0.000 N 
ATOM      5  C   UNL     1       4.763   5.109  18.745  0.00  0.00    +0.000 C 
ATOM      6  C   UNL     1       6.264   4.785  18.751  0.00  0.00    +0.000 C 
ATOM      7  N   UNL     1       6.896   5.086  17.441  0.00  0.00    +0.000 NA
ATOM      8  C   UNL     1       6.214   4.316  16.369  0.00  0.00    +0.000 C 
ATOM      9  C   UNL     1       4.700   4.615  16.319  0.00  0.00    +0.000 C 
BRANCH   2  10
ATOM     10  O   UNL     1       2.714   3.235  19.134  0.00  0.00    +0.000 OA
BRANCH  10  12
ATOM     11  C   UNL     1       0.888   4.191  20.360  0.00  0.00    +0.000 C 
ATOM     12  C   UNL     1       1.404   3.028  19.522  0.00  0.00    +0.000 C 
ENDBRANCH  10  12
ENDBRANCH   2  10
ENDBRANCH   1   7
BRANCH   1  13
ATOM     13  C   UNL     1       7.509   7.408  18.255  0.00  0.00    +0.000 C 
BRANCH  13  14
ATOM     14  O   UNL     1       8.473   6.708  19.004  0.00  0.00    +0.000 OA
ATOM     15  H   UNL     1       9.262   7.300  19.105  0.00  0.00    +0.000 HD
ENDBRANCH  13  14
BRANCH  13  16
ATOM     16  C   UNL     1       8.082   8.729  17.722  0.00  0.00    +0.000 C 
BRANCH  16  17
ATOM     17  O   UNL     1       8.984   9.253  18.677  0.00  0.00    +0.000 OA
BRANCH  17  18
ATOM     18  C   UNL     1       8.687  10.609  18.925  0.00  0.00    +0.000 C 
BRANCH  18  19
ATOM     19  C   UNL     1       9.963  11.404  18.843  0.00  0.00    +0.000 A 
ATOM     20  C   UNL     1      10.300  12.064  17.649  0.00  0.00    +0.000 A 
ATOM     21  C   UNL     1      11.483  12.806  17.566  0.00  0.00    +0.000 A 
ATOM     22  C   UNL     1      12.333  12.896  18.672  0.00  0.00    +0.000 A 
ATOM     23  C   UNL     1      12.004  12.243  19.861  0.00  0.00    +0.000 A 
ATOM     24  C   UNL     1      10.823  11.499  19.949  0.00  0.00    +0.000 A 
ENDBRANCH  18  19
ENDBRANCH  17  18
ENDBRANCH  16  17
ENDBRANCH  13  16
ENDBRANCH   1  13
TORSDOF 9
ENDMDL
MODEL 9
REMARK VINA RESULT:      -6.3      4.895      7.585
REMARK  Name = 
REMARK  10 active torsions:
REMARK  status: ('A' for Active; 'I' for Inactive)
REMARK    1  A    between atoms: C_1  and  C_2
REMARK    2  A    between atoms: C_2  and  O_3
REMARK    3  A    between atoms: O_3  and  C_4
REMARK    4  A    between atoms: N_9  and  C_10
REMARK    5  A    between atoms: C_10  and  C_11
REMARK    6  A    between atoms: C_11  and  O_12
REMARK    7  A    between atoms: C_11  and  C_13
REMARK    8  A    between atoms: C_13  and  O_14
REMARK    9  A    between atoms: O_14  and  C_15
REMARK   10  A    between atoms: C_15  and  C_16
REMARK                            x       y       z     vdW  Elec       q    Type
REMARK                         _______ _______ _______ _____ _____    ______ ____
ROOT
ATOM      1  C   UNL     1       7.217   6.444  17.069  0.00  0.00    +0.000 C 
ENDROOT
BRANCH   1   7
ATOM      2  C   UNL     1       3.073   3.782  17.639  0.00  0.00    +0.000 C 
ATOM      3  O   UNL     1       2.603   3.161  16.695  0.00  0.00    +0.000 OA
ATOM      4  N   UNL     1       4.176   4.575  17.465  0.00  0.00    +0.000 N 
ATOM      5  C   UNL     1       4.750   5.329  18.571  0.00  0.00    +0.000 C 
ATOM      6  C   UNL     1       6.209   4.886  18.748  0.00  0.00    +0.000 C 
ATOM      7  N   UNL     1       6.986   5.038  17.492  0.00  0.00    +0.000 NA
ATOM      8  C   UNL     1       6.343   4.250  16.409  0.00  0.00    +0.000 C 
ATOM      9  C   UNL     1       4.873   4.665  16.188  0.00  0.00    +0.000 C 
BRANCH   2  10
ATOM     10  O   UNL     1       2.516   3.660  18.874  0.00  0.00    +0.000 OA
BRANCH  10  12
ATOM     11  C   UNL     1       0.709   3.407  20.430  0.00  0.00    +0.000 C 
ATOM     12  C   UNL     1       1.418   2.884  19.186  0.00  0.00    +0.000 C 
ENDBRANCH  10  12
ENDBRANCH   2  10
ENDBRANCH   1   7
BRANCH   1  13
ATOM     13  C   UNL     1       7.516   7.401  18.246  0.00  0.00    +0.000 C 
BRANCH  13  14
ATOM     14  O   UNL     1       8.581   6.913  19.026  0.00  0.00    +0.000 OA
ATOM     15  H   UNL     1       8.982   6.147  18.540  0.00  0.00    +0.000 HD
ENDBRANCH  13  14
BRANCH  13  16
ATOM     16  C   UNL     1       7.812   8.821  17.742  0.00  0.00    +0.000 C 
BRANCH  16  17
ATOM     17  O   UNL     1       9.085   9.215  18.212  0.00  0.00    +0.000 OA
BRANCH  17  18
ATOM     18  C   UNL     1       8.948  10.243  19.167  0.00  0.00    +0.000 C 
BRANCH  18  19
ATOM     19  C   UNL     1      10.110  11.190  19.027  0.00  0.00    +0.000 A 
ATOM     20  C   UNL     1      10.709  11.737  20.173  0.00  0.00    +0.000 A 
ATOM     21  C   UNL     1      11.790  12.617  20.051  0.00  0.00    +0.000 A 
ATOM     22  C   UNL     1      12.280  12.952  18.787  0.00  0.00    +0.000 A 
ATOM     23  C   UNL     1      11.690  12.412  17.642  0.00  0.00    +0.000 A 
ATOM     24  C   UNL     1      10.608  11.534  17.759  0.00  0.00    +0.000 A 
ENDBRANCH  18  19
ENDBRANCH  17  18
ENDBRANCH  16  17
ENDBRANCH  13  16
ENDBRANCH   1  13
TORSDOF 9
ENDMDL
