MODEL 1
REMARK VINA RESULT:      -8.1      0.000      0.000
REMARK  Name = 
REMARK  8 active torsions:
REMARK  status: ('A' for Active; 'I' for Inactive)
REMARK    1  A    between atoms: C_1  and  O_2
REMARK    2  A    between atoms: O_2  and  C_3
REMARK    3  A    between atoms: C_6  and  N_7
REMARK    4  A    between atoms: C_8  and  C_10
REMARK    5  A    between atoms: C_10  and  C_11
REMARK    6  A    between atoms: C_11  and  C_12
REMARK    7  A    between atoms: C_13  and  C_14
REMARK    8  A    between atoms: C_29  and  C_30
REMARK                            x       y       z     vdW  Elec       q    Type
REMARK                         _______ _______ _______ _____ _____    ______ ____
ROOT
ATOM      1  C   UNL     1       1.071   8.647  20.646  0.00  0.00    +0.000 A 
ATOM      2  C   UNL     1       0.978   9.318  19.397  0.00  0.00    +0.000 A 
ATOM      3  C   UNL     1       1.722   9.075  18.132  0.00  0.00    +0.000 C 
ATOM      4  N   UNL     1       0.088  10.309  19.434  0.00  0.00    +0.000 NA
ATOM      5  N   UNL     1      -0.282  10.405  20.739  0.00  0.00    +0.000 N 
ATOM      6  C   UNL     1      -0.985  11.555  21.192  0.00  0.00    +0.000 A 
ATOM      7  C   UNL     1      -1.440  12.489  20.281  0.00  0.00    +0.000 A 
ATOM      8  C   UNL     1      -2.035  13.653  20.765  0.00  0.00    +0.000 A 
ATOM      9  C   UNL     1      -2.155  13.867  22.134  0.00  0.00    +0.000 A 
ATOM     10  N   UNL     1      -2.734  14.993  22.660  0.00  0.00    +0.000 N 
ATOM     11  C   UNL     1      -2.317  15.462  23.989  0.00  0.00    +0.000 C 
ATOM     12  C   UNL     1      -3.548  15.940  24.771  0.00  0.00    +0.000 C 
ATOM     13  O   UNL     1      -4.301  16.918  24.030  0.00  0.00    +0.000 OA
ATOM     14  C   UNL     1      -4.737  16.369  22.777  0.00  0.00    +0.000 C 
ATOM     15  C   UNL     1      -3.548  15.939  21.904  0.00  0.00    +0.000 C 
ATOM     16  N   UNL     1      -1.706  12.915  22.975  0.00  0.00    +0.000 NA
ATOM     17  N   UNL     1      -1.125  11.762  22.513  0.00  0.00    +0.000 NA
ATOM     18  C   UNL     1       0.190   9.326  21.478  0.00  0.00    +0.000 A 
ATOM     19  C   UNL     1      -0.182   9.058  22.897  0.00  0.00    +0.000 C 
ENDROOT
BRANCH   1  20
ATOM     20  C   UNL     1       1.986   7.509  20.957  0.00  0.00    +0.000 C 
BRANCH  20  21
ATOM     21  C   UNL     1       1.498   6.123  20.537  0.00  0.00    +0.000 C 
BRANCH  21  23
ATOM     22  N   UNL     1       3.571   6.228  19.308  0.00  0.00    +0.000 N 
ATOM     23  C   UNL     1       2.326   5.623  19.384  0.00  0.00    +0.000 C 
ATOM     24  O   UNL     1       1.881   4.768  18.622  0.00  0.00    +0.000 OA
ATOM     25  H   UNL     1       3.823   6.885  20.034  0.00  0.00    +0.000 HD
BRANCH  22  29
ATOM     26  C   UNL     1       6.465   5.588  16.282  0.00  0.00    +0.000 A 
ATOM     27  C   UNL     1       5.262   6.212  15.978  0.00  0.00    +0.000 A 
ATOM     28  C   UNL     1       4.309   6.428  16.971  0.00  0.00    +0.000 A 
ATOM     29  C   UNL     1       4.522   6.014  18.286  0.00  0.00    +0.000 A 
ATOM     30  C   UNL     1       5.720   5.366  18.597  0.00  0.00    +0.000 A 
ATOM     31  C   UNL     1       6.683   5.152  17.598  0.00  0.00    +0.000 A 
ATOM     32 CL   UNL     1       8.154   4.358  18.043  0.00  0.00    +0.000 Cl
BRANCH  26  34
ATOM     33  C   UNL     1       6.943   4.908  14.072  0.00  0.00    +0.000 C 
ATOM     34  O   UNL     1       7.430   5.353  15.338  0.00  0.00    +0.000 OA
ENDBRANCH  26  34
ENDBRANCH  22  29
ENDBRANCH  21  23
ENDBRANCH  20  21
ENDBRANCH   1  20
TORSDOF 5
ENDMDL
MODEL 2
REMARK VINA RESULT:      -7.7      3.256      5.013
REMARK  Name = 
REMARK  8 active torsions:
REMARK  status: ('A' for Active; 'I' for Inactive)
REMARK    1  A    between atoms: C_1  and  O_2
REMARK    2  A    between atoms: O_2  and  C_3
REMARK    3  A    between atoms: C_6  and  N_7
REMARK    4  A    between atoms: C_8  and  C_10
REMARK    5  A    between atoms: C_10  and  C_11
REMARK    6  A    between atoms: C_11  and  C_12
REMARK    7  A    between atoms: C_13  and  C_14
REMARK    8  A    between atoms: C_29  and  C_30
REMARK                            x       y       z     vdW  Elec       q    Type
REMARK                         _______ _______ _______ _____ _____    ______ ____
ROOT
ATOM      1  C   UNL     1       1.922   3.882  19.585  0.00  0.00    +0.000 A 
ATOM      2  C   UNL     1       1.729   4.024  20.986  0.00  0.00    +0.000 A 
ATOM      3  C   UNL     1       1.463   2.985  22.017  0.00  0.00    +0.000 C 
ATOM      4  N   UNL     1       1.794   5.299  21.366  0.00  0.00    +0.000 NA
ATOM      5  N   UNL     1       1.858   6.012  20.210  0.00  0.00    +0.000 N 
ATOM      6  C   UNL     1       1.628   7.415  20.230  0.00  0.00    +0.000 A 
ATOM      7  C   UNL     1       1.509   8.078  21.436  0.00  0.00    +0.000 A 
ATOM      8  C   UNL     1       1.183   9.433  21.420  0.00  0.00    +0.000 A 
ATOM      9  C   UNL     1       0.972  10.093  20.214  0.00  0.00    +0.000 A 
ATOM     10  N   UNL     1       0.651  11.424  20.144  0.00  0.00    +0.000 N 
ATOM     11  C   UNL     1      -0.127  11.917  18.999  0.00  0.00    +0.000 C 
ATOM     12  C   UNL     1       0.428  13.276  18.552  0.00  0.00    +0.000 C 
ATOM     13  O   UNL     1       0.490  14.211  19.644  0.00  0.00    +0.000 OA
ATOM     14  C   UNL     1       1.325  13.696  20.695  0.00  0.00    +0.000 C 
ATOM     15  C   UNL     1       0.784  12.369  21.248  0.00  0.00    +0.000 C 
ATOM     16  N   UNL     1       1.115   9.399  19.068  0.00  0.00    +0.000 NA
ATOM     17  N   UNL     1       1.443   8.067  19.069  0.00  0.00    +0.000 NA
ATOM     18  C   UNL     1       2.075   5.181  19.116  0.00  0.00    +0.000 A 
ATOM     19  C   UNL     1       2.353   5.671  17.736  0.00  0.00    +0.000 C 
ENDROOT
BRANCH   1  20
ATOM     20  C   UNL     1       1.887   2.596  18.827  0.00  0.00    +0.000 C 
BRANCH  20  21
ATOM     21  C   UNL     1       3.170   1.767  18.855  0.00  0.00    +0.000 C 
BRANCH  21  23
ATOM     22  N   UNL     1       4.240   2.964  17.056  0.00  0.00    +0.000 N 
ATOM     23  C   UNL     1       4.328   2.609  18.394  0.00  0.00    +0.000 C 
ATOM     24  O   UNL     1       5.229   2.910  19.173  0.00  0.00    +0.000 OA
ATOM     25  H   UNL     1       3.414   2.683  16.545  0.00  0.00    +0.000 HD
BRANCH  22  29
ATOM     26  C   UNL     1       7.170   5.160  14.927  0.00  0.00    +0.000 A 
ATOM     27  C   UNL     1       6.533   4.081  14.328  0.00  0.00    +0.000 A 
ATOM     28  C   UNL     1       5.566   3.359  15.023  0.00  0.00    +0.000 A 
ATOM     29  C   UNL     1       5.222   3.681  16.336  0.00  0.00    +0.000 A 
ATOM     30  C   UNL     1       5.873   4.751  16.954  0.00  0.00    +0.000 A 
ATOM     31  C   UNL     1       6.844   5.483  16.253  0.00  0.00    +0.000 A 
ATOM     32 CL   UNL     1       7.607   6.807  17.062  0.00  0.00    +0.000 Cl
BRANCH  26  34
ATOM     33  C   UNL     1       8.304   5.587  12.900  0.00  0.00    +0.000 C 
ATOM     34  O   UNL     1       8.128   5.898  14.282  0.00  0.00    +0.000 OA
ENDBRANCH  26  34
ENDBRANCH  22  29
ENDBRANCH  21  23
ENDBRANCH  20  21
ENDBRANCH   1  20
TORSDOF 5
ENDMDL
MODEL 3
REMARK VINA RESULT:      -7.5      1.048      1.325
REMARK  Name = 
REMARK  8 active torsions:
REMARK  status: ('A' for Active; 'I' for Inactive)
REMARK    1  A    between atoms: C_1  and  O_2
REMARK    2  A    between atoms: O_2  and  C_3
REMARK    3  A    between atoms: C_6  and  N_7
REMARK    4  A    between atoms: C_8  and  C_10
REMARK    5  A    between atoms: C_10  and  C_11
REMARK    6  A    between atoms: C_11  and  C_12
REMARK    7  A    between atoms: C_13  and  C_14
REMARK    8  A    between atoms: C_29  and  C_30
REMARK                            x       y       z     vdW  Elec       q    Type
REMARK                         _______ _______ _______ _____ _____    ______ ____
ROOT
ATOM      1  C   UNL     1       0.896   8.868  20.856  0.00  0.00    +0.000 A 
ATOM      2  C   UNL     1       0.756   9.474  19.578  0.00  0.00    +0.000 A 
ATOM      3  C   UNL     1       1.477   9.188  18.309  0.00  0.00    +0.000 C 
ATOM      4  N   UNL     1      -0.160  10.442  19.589  0.00  0.00    +0.000 NA
ATOM      5  N   UNL     1      -0.502  10.593  20.896  0.00  0.00    +0.000 N 
ATOM      6  C   UNL     1      -1.226  11.745  21.309  0.00  0.00    +0.000 A 
ATOM      7  C   UNL     1      -1.727  12.621  20.365  0.00  0.00    +0.000 A 
ATOM      8  C   UNL     1      -2.343  13.791  20.806  0.00  0.00    +0.000 A 
ATOM      9  C   UNL     1      -2.437  14.070  22.165  0.00  0.00    +0.000 A 
ATOM     10  N   UNL     1      -3.033  15.205  22.650  0.00  0.00    +0.000 N 
ATOM     11  C   UNL     1      -2.599  15.750  23.943  0.00  0.00    +0.000 C 
ATOM     12  C   UNL     1      -3.824  16.234  24.730  0.00  0.00    +0.000 C 
ATOM     13  O   UNL     1      -4.620  17.154  23.962  0.00  0.00    +0.000 OA
ATOM     14  C   UNL     1      -5.070  16.532  22.747  0.00  0.00    +0.000 C 
ATOM     15  C   UNL     1      -3.890  16.091  21.868  0.00  0.00    +0.000 C 
ATOM     16  N   UNL     1      -1.942  13.173  23.040  0.00  0.00    +0.000 NA
ATOM     17  N   UNL     1      -1.341  12.014  22.622  0.00  0.00    +0.000 NA
ATOM     18  C   UNL     1       0.016   9.565  21.675  0.00  0.00    +0.000 A 
ATOM     19  C   UNL     1      -0.315   9.358  23.114  0.00  0.00    +0.000 C 
ENDROOT
BRANCH   1  20
ATOM     20  C   UNL     1       1.848   7.771  21.200  0.00  0.00    +0.000 C 
BRANCH  20  21
ATOM     21  C   UNL     1       1.325   6.347  21.017  0.00  0.00    +0.000 C 
BRANCH  21  23
ATOM     22  N   UNL     1       3.341   6.237  19.697  0.00  0.00    +0.000 N 
ATOM     23  C   UNL     1       2.102   5.658  19.929  0.00  0.00    +0.000 C 
ATOM     24  O   UNL     1       1.626   4.689  19.341  0.00  0.00    +0.000 OA
ATOM     25  H   UNL     1       3.622   7.006  20.292  0.00  0.00    +0.000 HD
BRANCH  22  29
ATOM     26  C   UNL     1       6.018   5.096  16.620  0.00  0.00    +0.000 A 
ATOM     27  C   UNL     1       6.051   4.452  17.851  0.00  0.00    +0.000 A 
ATOM     28  C   UNL     1       5.171   4.821  18.864  0.00  0.00    +0.000 A 
ATOM     29  C   UNL     1       4.246   5.851  18.684  0.00  0.00    +0.000 A 
ATOM     30  C   UNL     1       4.219   6.519  17.458  0.00  0.00    +0.000 A 
ATOM     31  C   UNL     1       5.104   6.144  16.434  0.00  0.00    +0.000 A 
ATOM     32 CL   UNL     1       5.016   6.995  14.931  0.00  0.00    +0.000 Cl
BRANCH  26  34
ATOM     33  C   UNL     1       6.383   3.759  14.709  0.00  0.00    +0.000 C 
ATOM     34  O   UNL     1       6.867   4.767  15.596  0.00  0.00    +0.000 OA
ENDBRANCH  26  34
ENDBRANCH  22  29
ENDBRANCH  21  23
ENDBRANCH  20  21
ENDBRANCH   1  20
TORSDOF 5
ENDMDL
MODEL 4
REMARK VINA RESULT:      -7.5      2.843      3.801
REMARK  Name = 
REMARK  8 active torsions:
REMARK  status: ('A' for Active; 'I' for Inactive)
REMARK    1  A    between atoms: C_1  and  O_2
REMARK    2  A    between atoms: O_2  and  C_3
REMARK    3  A    between atoms: C_6  and  N_7
REMARK    4  A    between atoms: C_8  and  C_10
REMARK    5  A    between atoms: C_10  and  C_11
REMARK    6  A    between atoms: C_11  and  C_12
REMARK    7  A    between atoms: C_13  and  C_14
REMARK    8  A    between atoms: C_29  and  C_30
REMARK                            x       y       z     vdW  Elec       q    Type
REMARK                         _______ _______ _______ _____ _____    ______ ____
ROOT
ATOM      1  C   UNL     1       0.109  10.085  19.249  0.00  0.00    +0.000 A 
ATOM      2  C   UNL     1       0.326   9.781  20.620  0.00  0.00    +0.000 A 
ATOM      3  C   UNL     1       1.099   8.668  21.234  0.00  0.00    +0.000 C 
ATOM      4  N   UNL     1      -0.294  10.647  21.421  0.00  0.00    +0.000 NA
ATOM      5  N   UNL     1      -1.051  11.416  20.595  0.00  0.00    +0.000 N 
ATOM      6  C   UNL     1      -2.076  12.240  21.137  0.00  0.00    +0.000 A 
ATOM      7  C   UNL     1      -2.189  12.390  22.507  0.00  0.00    +0.000 A 
ATOM      8  C   UNL     1      -3.264  13.121  23.008  0.00  0.00    +0.000 A 
ATOM      9  C   UNL     1      -4.204  13.675  22.145  0.00  0.00    +0.000 A 
ATOM     10  N   UNL     1      -5.278  14.404  22.587  0.00  0.00    +0.000 N 
ATOM     11  C   UNL     1      -6.504  14.440  21.779  0.00  0.00    +0.000 C 
ATOM     12  C   UNL     1      -7.082  15.861  21.791  0.00  0.00    +0.000 C 
ATOM     13  O   UNL     1      -7.268  16.348  23.133  0.00  0.00    +0.000 OA
ATOM     14  C   UNL     1      -6.017  16.354  23.840  0.00  0.00    +0.000 C 
ATOM     15  C   UNL     1      -5.415  14.944  23.936  0.00  0.00    +0.000 C 
ATOM     16  N   UNL     1      -4.035  13.508  20.819  0.00  0.00    +0.000 NA
ATOM     17  N   UNL     1      -2.978  12.797  20.311  0.00  0.00    +0.000 NA
ATOM     18  C   UNL     1      -0.728  11.194  19.261  0.00  0.00    +0.000 A 
ATOM     19  C   UNL     1      -1.265  11.997  18.126  0.00  0.00    +0.000 C 
ENDROOT
BRANCH   1  20
ATOM     20  C   UNL     1       0.637   9.305  18.090  0.00  0.00    +0.000 C 
BRANCH  20  21
ATOM     21  C   UNL     1       2.147   9.376  17.867  0.00  0.00    +0.000 C 
BRANCH  21  23
ATOM     22  N   UNL     1       1.821   7.035  18.348  0.00  0.00    +0.000 N 
ATOM     23  C   UNL     1       2.734   7.993  17.930  0.00  0.00    +0.000 C 
ATOM     24  O   UNL     1       3.911   7.800  17.634  0.00  0.00    +0.000 OA
ATOM     25  H   UNL     1       0.869   7.331  18.515  0.00  0.00    +0.000 HD
BRANCH  22  29
ATOM     26  C   UNL     1       2.719   2.962  19.084  0.00  0.00    +0.000 A 
ATOM     27  C   UNL     1       2.734   3.458  17.787  0.00  0.00    +0.000 A 
ATOM     28  C   UNL     1       2.443   4.797  17.541  0.00  0.00    +0.000 A 
ATOM     29  C   UNL     1       2.114   5.673  18.576  0.00  0.00    +0.000 A 
ATOM     30  C   UNL     1       2.075   5.178  19.882  0.00  0.00    +0.000 A 
ATOM     31  C   UNL     1       2.373   3.829  20.132  0.00  0.00    +0.000 A 
ATOM     32 CL   UNL     1       2.324   3.275  21.770  0.00  0.00    +0.000 Cl
BRANCH  26  34
ATOM     33  C   UNL     1       3.961   1.034  18.522  0.00  0.00    +0.000 C 
ATOM     34  O   UNL     1       2.997   1.652  19.374  0.00  0.00    +0.000 OA
ENDBRANCH  26  34
ENDBRANCH  22  29
ENDBRANCH  21  23
ENDBRANCH  20  21
ENDBRANCH   1  20
TORSDOF 5
ENDMDL
MODEL 5
REMARK VINA RESULT:      -7.5      4.535     10.334
REMARK  Name = 
REMARK  8 active torsions:
REMARK  status: ('A' for Active; 'I' for Inactive)
REMARK    1  A    between atoms: C_1  and  O_2
REMARK    2  A    between atoms: O_2  and  C_3
REMARK    3  A    between atoms: C_6  and  N_7
REMARK    4  A    between atoms: C_8  and  C_10
REMARK    5  A    between atoms: C_10  and  C_11
REMARK    6  A    between atoms: C_11  and  C_12
REMARK    7  A    between atoms: C_13  and  C_14
REMARK    8  A    between atoms: C_29  and  C_30
REMARK                            x       y       z     vdW  Elec       q    Type
REMARK                         _______ _______ _______ _____ _____    ______ ____
ROOT
ATOM      1  C   UNL     1      -0.258  10.467  20.767  0.00  0.00    +0.000 A 
ATOM      2  C   UNL     1       0.025   9.571  21.832  0.00  0.00    +0.000 A 
ATOM      3  C   UNL     1      -0.251   9.710  23.288  0.00  0.00    +0.000 C 
ATOM      4  N   UNL     1       0.642   8.472  21.401  0.00  0.00    +0.000 NA
ATOM      5  N   UNL     1       0.917   8.709  20.091  0.00  0.00    +0.000 N 
ATOM      6  C   UNL     1       1.841   7.877  19.400  0.00  0.00    +0.000 A 
ATOM      7  C   UNL     1       2.325   6.732  20.004  0.00  0.00    +0.000 A 
ATOM      8  C   UNL     1       3.303   5.995  19.341  0.00  0.00    +0.000 A 
ATOM      9  C   UNL     1       3.786   6.413  18.105  0.00  0.00    +0.000 A 
ATOM     10  N   UNL     1       4.746   5.723  17.412  0.00  0.00    +0.000 N 
ATOM     11  C   UNL     1       5.629   6.450  16.490  0.00  0.00    +0.000 C 
ATOM     12  C   UNL     1       5.842   5.612  15.221  0.00  0.00    +0.000 C 
ATOM     13  O   UNL     1       6.308   4.286  15.531  0.00  0.00    +0.000 OA
ATOM     14  C   UNL     1       5.362   3.610  16.375  0.00  0.00    +0.000 C 
ATOM     15  C   UNL     1       5.158   4.353  17.704  0.00  0.00    +0.000 C 
ATOM     16  N   UNL     1       3.267   7.530  17.558  0.00  0.00    +0.000 NA
ATOM     17  N   UNL     1       2.298   8.261  18.196  0.00  0.00    +0.000 NA
ATOM     18  C   UNL     1       0.266   9.851  19.637  0.00  0.00    +0.000 A 
ATOM     19  C   UNL     1       0.237  10.285  18.212  0.00  0.00    +0.000 C 
ENDROOT
BRANCH   1  20
ATOM     20  C   UNL     1      -0.918  11.800  20.902  0.00  0.00    +0.000 C 
BRANCH  20  21
ATOM     21  C   UNL     1      -0.589  12.585  22.171  0.00  0.00    +0.000 C 
BRANCH  21  23
ATOM     22  N   UNL     1       0.854  13.628  20.545  0.00  0.00    +0.000 N 
ATOM     23  C   UNL     1       0.382  13.687  21.847  0.00  0.00    +0.000 C 
ATOM     24  O   UNL     1       0.687  14.519  22.699  0.00  0.00    +0.000 OA
ATOM     25  H   UNL     1       0.479  12.912  19.938  0.00  0.00    +0.000 HD
BRANCH  22  29
ATOM     26  C   UNL     1       3.757  16.199  18.840  0.00  0.00    +0.000 A 
ATOM     27  C   UNL     1       4.139  15.213  19.742  0.00  0.00    +0.000 A 
ATOM     28  C   UNL     1       3.188  14.364  20.302  0.00  0.00    +0.000 A 
ATOM     29  C   UNL     1       1.833  14.483  19.992  0.00  0.00    +0.000 A 
ATOM     30  C   UNL     1       1.437  15.485  19.102  0.00  0.00    +0.000 A 
ATOM     31  C   UNL     1       2.395  16.339  18.534  0.00  0.00    +0.000 A 
ATOM     32 CL   UNL     1       1.850  17.552  17.428  0.00  0.00    +0.000 Cl
BRANCH  26  34
ATOM     33  C   UNL     1       5.930  17.121  18.909  0.00  0.00    +0.000 C 
ATOM     34  O   UNL     1       4.657  17.058  18.266  0.00  0.00    +0.000 OA
ENDBRANCH  26  34
ENDBRANCH  22  29
ENDBRANCH  21  23
ENDBRANCH  20  21
ENDBRANCH   1  20
TORSDOF 5
ENDMDL
MODEL 6
REMARK VINA RESULT:      -7.4      4.555     10.030
REMARK  Name = 
REMARK  8 active torsions:
REMARK  status: ('A' for Active; 'I' for Inactive)
REMARK    1  A    between atoms: C_1  and  O_2
REMARK    2  A    between atoms: O_2  and  C_3
REMARK    3  A    between atoms: C_6  and  N_7
REMARK    4  A    between atoms: C_8  and  C_10
REMARK    5  A    between atoms: C_10  and  C_11
REMARK    6  A    between atoms: C_11  and  C_12
REMARK    7  A    between atoms: C_13  and  C_14
REMARK    8  A    between atoms: C_29  and  C_30
REMARK                            x       y       z     vdW  Elec       q    Type
REMARK                         _______ _______ _______ _____ _____    ______ ____
ROOT
ATOM      1  C   UNL     1      -0.460  11.668  20.702  0.00  0.00    +0.000 A 
ATOM      2  C   UNL     1      -0.145  11.849  19.328  0.00  0.00    +0.000 A 
ATOM      3  C   UNL     1      -0.646  12.868  18.367  0.00  0.00    +0.000 C 
ATOM      4  N   UNL     1       0.719  10.932  18.896  0.00  0.00    +0.000 NA
ATOM      5  N   UNL     1       0.846  10.051  19.923  0.00  0.00    +0.000 N 
ATOM      6  C   UNL     1       1.451   8.783  19.697  0.00  0.00    +0.000 A 
ATOM      7  C   UNL     1       2.060   8.515  18.486  0.00  0.00    +0.000 A 
ATOM      8  C   UNL     1       2.552   7.231  18.261  0.00  0.00    +0.000 A 
ATOM      9  C   UNL     1       2.420   6.244  19.232  0.00  0.00    +0.000 A 
ATOM     10  N   UNL     1       2.889   4.967  19.061  0.00  0.00    +0.000 N 
ATOM     11  C   UNL     1       2.236   3.860  19.772  0.00  0.00    +0.000 C 
ATOM     12  C   UNL     1       3.302   2.881  20.282  0.00  0.00    +0.000 C 
ATOM     13  O   UNL     1       4.173   2.444  19.222  0.00  0.00    +0.000 OA
ATOM     14  C   UNL     1       4.832   3.571  18.621  0.00  0.00    +0.000 C 
ATOM     15  C   UNL     1       3.823   4.559  18.016  0.00  0.00    +0.000 C 
ATOM     16  N   UNL     1       1.830   6.567  20.400  0.00  0.00    +0.000 NA
ATOM     17  N   UNL     1       1.347   7.829  20.638  0.00  0.00    +0.000 NA
ATOM     18  C   UNL     1       0.253  10.537  21.082  0.00  0.00    +0.000 A 
ATOM     19  C   UNL     1       0.361   9.881  22.416  0.00  0.00    +0.000 C 
ENDROOT
BRANCH   1  20
ATOM     20  C   UNL     1      -1.412  12.502  21.495  0.00  0.00    +0.000 C 
BRANCH  20  21
ATOM     21  C   UNL     1      -0.780  13.493  22.472  0.00  0.00    +0.000 C 
BRANCH  21  23
ATOM     22  N   UNL     1       1.329  14.306  21.632  0.00  0.00    +0.000 N 
ATOM     23  C   UNL     1      -0.034  14.552  21.709  0.00  0.00    +0.000 C 
ATOM     24  O   UNL     1      -0.631  15.515  21.233  0.00  0.00    +0.000 OA
ATOM     25  H   UNL     1       1.678  13.446  22.032  0.00  0.00    +0.000 HD
BRANCH  22  29
ATOM     26  C   UNL     1       4.189  16.862  19.834  0.00  0.00    +0.000 A 
ATOM     27  C   UNL     1       4.141  16.728  21.216  0.00  0.00    +0.000 A 
ATOM     28  C   UNL     1       3.205  15.886  21.811  0.00  0.00    +0.000 A 
ATOM     29  C   UNL     1       2.283  15.170  21.048  0.00  0.00    +0.000 A 
ATOM     30  C   UNL     1       2.309  15.314  19.659  0.00  0.00    +0.000 A 
ATOM     31  C   UNL     1       3.255  16.159  19.058  0.00  0.00    +0.000 A 
ATOM     32 CL   UNL     1       3.251  16.287  17.333  0.00  0.00    +0.000 Cl
BRANCH  26  34
ATOM     33  C   UNL     1       6.450  17.252  19.278  0.00  0.00    +0.000 C 
ATOM     34  O   UNL     1       5.091  17.680  19.205  0.00  0.00    +0.000 OA
ENDBRANCH  26  34
ENDBRANCH  22  29
ENDBRANCH  21  23
ENDBRANCH  20  21
ENDBRANCH   1  20
TORSDOF 5
ENDMDL
MODEL 7
REMARK VINA RESULT:      -7.4      2.424      3.499
REMARK  Name = 
REMARK  8 active torsions:
REMARK  status: ('A' for Active; 'I' for Inactive)
REMARK    1  A    between atoms: C_1  and  O_2
REMARK    2  A    between atoms: O_2  and  C_3
REMARK    3  A    between atoms: C_6  and  N_7
REMARK    4  A    between atoms: C_8  and  C_10
REMARK    5  A    between atoms: C_10  and  C_11
REMARK    6  A    between atoms: C_11  and  C_12
REMARK    7  A    between atoms: C_13  and  C_14
REMARK    8  A    between atoms: C_29  and  C_30
REMARK                            x       y       z     vdW  Elec       q    Type
REMARK                         _______ _______ _______ _____ _____    ______ ____
ROOT
ATOM      1  C   UNL     1       0.252  10.263  19.742  0.00  0.00    +0.000 A 
ATOM      2  C   UNL     1       0.594   9.996  21.095  0.00  0.00    +0.000 A 
ATOM      3  C   UNL     1       1.292   8.820  21.682  0.00  0.00    +0.000 C 
ATOM      4  N   UNL     1       0.190  10.971  21.907  0.00  0.00    +0.000 NA
ATOM      5  N   UNL     1      -0.561  11.794  21.129  0.00  0.00    +0.000 N 
ATOM      6  C   UNL     1      -1.401  12.769  21.734  0.00  0.00    +0.000 A 
ATOM      7  C   UNL     1      -1.327  12.995  23.096  0.00  0.00    +0.000 A 
ATOM      8  C   UNL     1      -2.233  13.883  23.672  0.00  0.00    +0.000 A 
ATOM      9  C   UNL     1      -3.194  14.515  22.891  0.00  0.00    +0.000 A 
ATOM     10  N   UNL     1      -4.107  15.398  23.408  0.00  0.00    +0.000 N 
ATOM     11  C   UNL     1      -5.408  15.557  22.746  0.00  0.00    +0.000 C 
ATOM     12  C   UNL     1      -5.799  17.042  22.738  0.00  0.00    +0.000 C 
ATOM     13  O   UNL     1      -5.758  17.609  24.060  0.00  0.00    +0.000 OA
ATOM     14  C   UNL     1      -4.439  17.483  24.617  0.00  0.00    +0.000 C 
ATOM     15  C   UNL     1      -4.011  16.012  24.729  0.00  0.00    +0.000 C 
ATOM     16  N   UNL     1      -3.210  14.268  21.566  0.00  0.00    +0.000 NA
ATOM     17  N   UNL     1      -2.320  13.402  20.984  0.00  0.00    +0.000 NA
ATOM     18  C   UNL     1      -0.432  11.472  19.783  0.00  0.00    +0.000 A 
ATOM     19  C   UNL     1      -0.999  12.285  18.670  0.00  0.00    +0.000 C 
ENDROOT
BRANCH   1  20
ATOM     20  C   UNL     1       0.533   9.369  18.579  0.00  0.00    +0.000 C 
BRANCH  20  21
ATOM     21  C   UNL     1       1.867   9.594  17.868  0.00  0.00    +0.000 C 
BRANCH  21  23
ATOM     22  N   UNL     1       2.114   7.319  18.629  0.00  0.00    +0.000 N 
ATOM     23  C   UNL     1       2.622   8.295  17.786  0.00  0.00    +0.000 C 
ATOM     24  O   UNL     1       3.585   8.181  17.031  0.00  0.00    +0.000 OA
ATOM     25  H   UNL     1       1.284   7.539  19.163  0.00  0.00    +0.000 HD
BRANCH  22  29
ATOM     26  C   UNL     1       3.774   3.472  19.255  0.00  0.00    +0.000 A 
ATOM     27  C   UNL     1       4.158   4.229  18.155  0.00  0.00    +0.000 A 
ATOM     28  C   UNL     1       3.618   5.495  17.947  0.00  0.00    +0.000 A 
ATOM     29  C   UNL     1       2.670   6.034  18.819  0.00  0.00    +0.000 A 
ATOM     30  C   UNL     1       2.262   5.272  19.916  0.00  0.00    +0.000 A 
ATOM     31  C   UNL     1       2.810   3.997  20.128  0.00  0.00    +0.000 A 
ATOM     32 CL   UNL     1       2.279   3.104  21.512  0.00  0.00    +0.000 Cl
BRANCH  26  34
ATOM     33  C   UNL     1       3.710   1.176  18.707  0.00  0.00    +0.000 C 
ATOM     34  O   UNL     1       4.277   2.221  19.497  0.00  0.00    +0.000 OA
ENDBRANCH  26  34
ENDBRANCH  22  29
ENDBRANCH  21  23
ENDBRANCH  20  21
ENDBRANCH   1  20
TORSDOF 5
ENDMDL
MODEL 8
REMARK VINA RESULT:      -7.4      4.177     11.816
REMARK  Name = 
REMARK  8 active torsions:
REMARK  status: ('A' for Active; 'I' for Inactive)
REMARK    1  A    between atoms: C_1  and  O_2
REMARK    2  A    between atoms: O_2  and  C_3
REMARK    3  A    between atoms: C_6  and  N_7
REMARK    4  A    between atoms: C_8  and  C_10
REMARK    5  A    between atoms: C_10  and  C_11
REMARK    6  A    between atoms: C_11  and  C_12
REMARK    7  A    between atoms: C_13  and  C_14
REMARK    8  A    between atoms: C_29  and  C_30
REMARK                            x       y       z     vdW  Elec       q    Type
REMARK                         _______ _______ _______ _____ _____    ______ ____
ROOT
ATOM      1  C   UNL     1       0.272  10.477  21.051  0.00  0.00    +0.000 A 
ATOM      2  C   UNL     1       0.390   9.433  22.008  0.00  0.00    +0.000 A 
ATOM      3  C   UNL     1       0.075   9.439  23.462  0.00  0.00    +0.000 C 
ATOM      4  N   UNL     1       0.872   8.317  21.463  0.00  0.00    +0.000 NA
ATOM      5  N   UNL     1       1.230   8.664  20.199  0.00  0.00    +0.000 N 
ATOM      6  C   UNL     1       2.063   7.799  19.436  0.00  0.00    +0.000 A 
ATOM      7  C   UNL     1       2.364   6.536  19.910  0.00  0.00    +0.000 A 
ATOM      8  C   UNL     1       3.262   5.753  19.188  0.00  0.00    +0.000 A 
ATOM      9  C   UNL     1       3.847   6.241  18.024  0.00  0.00    +0.000 A 
ATOM     10  N   UNL     1       4.735   5.510  17.277  0.00  0.00    +0.000 N 
ATOM     11  C   UNL     1       5.744   6.211  16.472  0.00  0.00    +0.000 C 
ATOM     12  C   UNL     1       5.896   5.505  15.118  0.00  0.00    +0.000 C 
ATOM     13  O   UNL     1       6.167   4.101  15.278  0.00  0.00    +0.000 OA
ATOM     14  C   UNL     1       5.106   3.467  16.010  0.00  0.00    +0.000 C 
ATOM     15  C   UNL     1       4.947   4.073  17.413  0.00  0.00    +0.000 C 
ATOM     16  N   UNL     1       3.505   7.474  17.602  0.00  0.00    +0.000 NA
ATOM     17  N   UNL     1       2.616   8.253  18.299  0.00  0.00    +0.000 NA
ATOM     18  C   UNL     1       0.757   9.929  19.869  0.00  0.00    +0.000 A 
ATOM     19  C   UNL     1       0.845  10.526  18.506  0.00  0.00    +0.000 C 
ENDROOT
BRANCH   1  20
ATOM     20  C   UNL     1      -0.209  11.863  21.328  0.00  0.00    +0.000 C 
BRANCH  20  21
ATOM     21  C   UNL     1      -1.656  11.987  21.801  0.00  0.00    +0.000 C 
BRANCH  21  23
ATOM     22  N   UNL     1      -3.771  12.967  21.179  0.00  0.00    +0.000 N 
ATOM     23  C   UNL     1      -2.454  12.767  20.792  0.00  0.00    +0.000 C 
ATOM     24  O   UNL     1      -1.933  13.152  19.748  0.00  0.00    +0.000 OA
ATOM     25  H   UNL     1      -4.052  12.632  22.091  0.00  0.00    +0.000 HD
BRANCH  22  29
ATOM     26  C   UNL     1      -6.744  14.808  18.790  0.00  0.00    +0.000 A 
ATOM     27  C   UNL     1      -6.090  15.535  19.776  0.00  0.00    +0.000 A 
ATOM     28  C   UNL     1      -5.109  14.935  20.561  0.00  0.00    +0.000 A 
ATOM     29  C   UNL     1      -4.766  13.593  20.397  0.00  0.00    +0.000 A 
ATOM     30  C   UNL     1      -5.433  12.847  19.422  0.00  0.00    +0.000 A 
ATOM     31  C   UNL     1      -6.419  13.452  18.627  0.00  0.00    +0.000 A 
ATOM     32 CL   UNL     1      -7.202  12.486  17.425  0.00  0.00    +0.000 Cl
BRANCH  26  34
ATOM     33  C   UNL     1      -7.236  16.113  16.885  0.00  0.00    +0.000 C 
ATOM     34  O   UNL     1      -7.716  15.356  17.995  0.00  0.00    +0.000 OA
ENDBRANCH  26  34
ENDBRANCH  22  29
ENDBRANCH  21  23
ENDBRANCH  20  21
ENDBRANCH   1  20
TORSDOF 5
ENDMDL
MODEL 9
REMARK VINA RESULT:      -7.3      4.683     10.390
REMARK  Name = 
REMARK  8 active torsions:
REMARK  status: ('A' for Active; 'I' for Inactive)
REMARK    1  A    between atoms: C_1  and  O_2
REMARK    2  A    between atoms: O_2  and  C_3
REMARK    3  A    between atoms: C_6  and  N_7
REMARK    4  A    between atoms: C_8  and  C_10
REMARK    5  A    between atoms: C_10  and  C_11
REMARK    6  A    between atoms: C_11  and  C_12
REMARK    7  A    between atoms: C_13  and  C_14
REMARK    8  A    between atoms: C_29  and  C_30
REMARK                            x       y       z     vdW  Elec       q    Type
REMARK                         _______ _______ _______ _____ _____    ______ ____
ROOT
ATOM      1  C   UNL     1       0.258  10.531  20.850  0.00  0.00    +0.000 A 
ATOM      2  C   UNL     1       0.338   9.508  21.833  0.00  0.00    +0.000 A 
ATOM      3  C   UNL     1      -0.023   9.548  23.276  0.00  0.00    +0.000 C 
ATOM      4  N   UNL     1       0.830   8.377  21.328  0.00  0.00    +0.000 NA
ATOM      5  N   UNL     1       1.230   8.695  20.069  0.00  0.00    +0.000 N 
ATOM      6  C   UNL     1       2.080   7.808  19.352  0.00  0.00    +0.000 A 
ATOM      7  C   UNL     1       2.359   6.554  19.863  0.00  0.00    +0.000 A 
ATOM      8  C   UNL     1       3.274   5.750  19.187  0.00  0.00    +0.000 A 
ATOM      9  C   UNL     1       3.898   6.209  18.032  0.00  0.00    +0.000 A 
ATOM     10  N   UNL     1       4.804   5.457  17.329  0.00  0.00    +0.000 N 
ATOM     11  C   UNL     1       5.843   6.134  16.541  0.00  0.00    +0.000 C 
ATOM     12  C   UNL     1       6.033   5.397  15.208  0.00  0.00    +0.000 C 
ATOM     13  O   UNL     1       6.290   3.995  15.407  0.00  0.00    +0.000 OA
ATOM     14  C   UNL     1       5.202   3.384  16.119  0.00  0.00    +0.000 C 
ATOM     15  C   UNL     1       5.003   4.022  17.503  0.00  0.00    +0.000 C 
ATOM     16  N   UNL     1       3.577   7.435  17.572  0.00  0.00    +0.000 NA
ATOM     17  N   UNL     1       2.673   8.234  18.223  0.00  0.00    +0.000 NA
ATOM     18  C   UNL     1       0.775   9.955  19.697  0.00  0.00    +0.000 A 
ATOM     19  C   UNL     1       0.910  10.521  18.325  0.00  0.00    +0.000 C 
ENDROOT
BRANCH   1  20
ATOM     20  C   UNL     1      -0.223  11.926  21.082  0.00  0.00    +0.000 C 
BRANCH  20  21
ATOM     21  C   UNL     1      -0.823  12.638  19.870  0.00  0.00    +0.000 C 
BRANCH  21  23
ATOM     22  N   UNL     1       1.353  13.631  19.559  0.00  0.00    +0.000 N 
ATOM     23  C   UNL     1      -0.014  13.866  19.553  0.00  0.00    +0.000 C 
ATOM     24  O   UNL     1      -0.571  14.938  19.327  0.00  0.00    +0.000 OA
ATOM     25  H   UNL     1       1.669  12.684  19.716  0.00  0.00    +0.000 HD
BRANCH  22  29
ATOM     26  C   UNL     1       4.324  16.606  19.052  0.00  0.00    +0.000 A 
ATOM     27  C   UNL     1       3.879  15.870  17.961  0.00  0.00    +0.000 A 
ATOM     28  C   UNL     1       2.899  14.894  18.123  0.00  0.00    +0.000 A 
ATOM     29  C   UNL     1       2.351  14.614  19.375  0.00  0.00    +0.000 A 
ATOM     30  C   UNL     1       2.808  15.334  20.481  0.00  0.00    +0.000 A 
ATOM     31  C   UNL     1       3.792  16.322  20.318  0.00  0.00    +0.000 A 
ATOM     32 CL   UNL     1       4.309  17.193  21.720  0.00  0.00    +0.000 Cl
BRANCH  26  34
ATOM     33  C   UNL     1       6.625  17.090  18.830  0.00  0.00    +0.000 C 
ATOM     34  O   UNL     1       5.287  17.575  18.940  0.00  0.00    +0.000 OA
ENDBRANCH  26  34
ENDBRANCH  22  29
ENDBRANCH  21  23
ENDBRANCH  20  21
ENDBRANCH   1  20
TORSDOF 5
ENDMDL
