MODEL 1
REMARK VINA RESULT:      -7.0      0.000      0.000
REMARK  Name = 
REMARK  4 active torsions:
REMARK  status: ('A' for Active; 'I' for Inactive)
REMARK    1  A    between atoms: C_4  and  O_5
REMARK    2  A    between atoms: C_8  and  C_9
REMARK    3  A    between atoms: C_12  and  C_13
REMARK    4  A    between atoms: C_13  and  O_14
REMARK                            x       y       z     vdW  Elec       q    Type
REMARK                         _______ _______ _______ _____ _____    ______ ____
ROOT
ATOM      1  O   UNL     1       6.615   4.055  14.512  0.00  0.00    +0.000 OA
ATOM      2  C   UNL     1       6.606   4.781  15.496  0.00  0.00    +0.000 C 
ATOM      3  N   UNL     1       7.366   5.922  15.643  0.00  0.00    +0.000 NA
ATOM      4  C   UNL     1       7.185   6.453  16.800  0.00  0.00    +0.000 C 
ATOM      5  S   UNL     1       6.107   5.688  17.913  0.00  0.00    +0.000 S 
ATOM      6  C   UNL     1       5.722   4.548  16.683  0.00  0.00    +0.000 C 
ATOM      7  C   UNL     1       4.745   3.633  16.684  0.00  0.00    +0.000 C 
ENDROOT
BRANCH   7   8
ATOM      8  C   UNL     1       3.767   3.462  17.759  0.00  0.00    +0.000 A 
ATOM      9  C   UNL     1       4.115   2.726  18.896  0.00  0.00    +0.000 A 
ATOM     10  C   UNL     1       3.205   2.572  19.943  0.00  0.00    +0.000 A 
ATOM     11  C   UNL     1       1.935   3.159  19.874  0.00  0.00    +0.000 A 
ATOM     12  C   UNL     1       1.577   3.857  18.710  0.00  0.00    +0.000 A 
ATOM     13  C   UNL     1       2.489   4.015  17.662  0.00  0.00    +0.000 A 
BRANCH  11  14
ATOM     14  C   UNL     1       0.965   2.980  21.015  0.00  0.00    +0.000 C 
BRANCH  14  15
ATOM     15  O   UNL     1       1.615   2.499  22.185  0.00  0.00    +0.000 OA
ATOM     16  H   UNL     1       2.193   3.216  22.498  0.00  0.00    +0.000 HD
ENDBRANCH  14  15
ENDBRANCH  11  14
ENDBRANCH   7   8
BRANCH   4  17
ATOM     17  O   UNL     1       7.803   7.597  17.113  0.00  0.00    +0.000 OA
ATOM     18  H   UNL     1       8.755   7.466  16.978  0.00  0.00    +0.000 HD
ENDBRANCH   4  17
TORSDOF 4
ENDMDL
MODEL 2
REMARK VINA RESULT:      -6.9      1.410      2.551
REMARK  Name = 
REMARK  4 active torsions:
REMARK  status: ('A' for Active; 'I' for Inactive)
REMARK    1  A    between atoms: C_4  and  O_5
REMARK    2  A    between atoms: C_8  and  C_9
REMARK    3  A    between atoms: C_12  and  C_13
REMARK    4  A    between atoms: C_13  and  O_14
REMARK                            x       y       z     vdW  Elec       q    Type
REMARK                         _______ _______ _______ _____ _____    ______ ____
ROOT
ATOM      1  O   UNL     1       7.770   6.766  16.859  0.00  0.00    +0.000 OA
ATOM      2  C   UNL     1       7.100   5.866  16.371  0.00  0.00    +0.000 C 
ATOM      3  N   UNL     1       7.373   5.241  15.172  0.00  0.00    +0.000 NA
ATOM      4  C   UNL     1       6.471   4.369  14.890  0.00  0.00    +0.000 C 
ATOM      5  S   UNL     1       5.144   4.154  15.977  0.00  0.00    +0.000 S 
ATOM      6  C   UNL     1       5.893   5.282  17.038  0.00  0.00    +0.000 C 
ATOM      7  C   UNL     1       5.558   5.574  18.301  0.00  0.00    +0.000 C 
ENDROOT
BRANCH   7   8
ATOM      8  C   UNL     1       4.476   4.927  19.044  0.00  0.00    +0.000 A 
ATOM      9  C   UNL     1       3.367   5.680  19.441  0.00  0.00    +0.000 A 
ATOM     10  C   UNL     1       2.313   5.077  20.129  0.00  0.00    +0.000 A 
ATOM     11  C   UNL     1       2.347   3.708  20.425  0.00  0.00    +0.000 A 
ATOM     12  C   UNL     1       3.485   2.969  20.064  0.00  0.00    +0.000 A 
ATOM     13  C   UNL     1       4.539   3.571  19.371  0.00  0.00    +0.000 A 
BRANCH  11  14
ATOM     14  C   UNL     1       1.200   3.075  21.172  0.00  0.00    +0.000 C 
BRANCH  14  15
ATOM     15  O   UNL     1       1.645   2.404  22.344  0.00  0.00    +0.000 OA
ATOM     16  H   UNL     1       0.933   2.488  23.001  0.00  0.00    +0.000 HD
ENDBRANCH  14  15
ENDBRANCH  11  14
ENDBRANCH   7   8
BRANCH   4  17
ATOM     17  O   UNL     1       6.586   3.623  13.786  0.00  0.00    +0.000 OA
ATOM     18  H   UNL     1       6.788   2.714  14.063  0.00  0.00    +0.000 HD
ENDBRANCH   4  17
TORSDOF 4
ENDMDL
MODEL 3
REMARK VINA RESULT:      -6.8      0.219      1.226
REMARK  Name = 
REMARK  4 active torsions:
REMARK  status: ('A' for Active; 'I' for Inactive)
REMARK    1  A    between atoms: C_4  and  O_5
REMARK    2  A    between atoms: C_8  and  C_9
REMARK    3  A    between atoms: C_12  and  C_13
REMARK    4  A    between atoms: C_13  and  O_14
REMARK                            x       y       z     vdW  Elec       q    Type
REMARK                         _______ _______ _______ _____ _____    ______ ____
ROOT
ATOM      1  O   UNL     1       6.260   4.031  14.263  0.00  0.00    +0.000 OA
ATOM      2  C   UNL     1       6.382   4.705  15.276  0.00  0.00    +0.000 C 
ATOM      3  N   UNL     1       7.226   5.789  15.407  0.00  0.00    +0.000 NA
ATOM      4  C   UNL     1       7.179   6.270  16.598  0.00  0.00    +0.000 C 
ATOM      5  S   UNL     1       6.152   5.518  17.766  0.00  0.00    +0.000 S 
ATOM      6  C   UNL     1       5.590   4.467  16.525  0.00  0.00    +0.000 C 
ATOM      7  C   UNL     1       4.558   3.615  16.571  0.00  0.00    +0.000 C 
ENDROOT
BRANCH   7   8
ATOM      8  C   UNL     1       3.666   3.452  17.718  0.00  0.00    +0.000 A 
ATOM      9  C   UNL     1       2.407   4.059  17.703  0.00  0.00    +0.000 A 
ATOM     10  C   UNL     1       1.530   3.896  18.777  0.00  0.00    +0.000 A 
ATOM     11  C   UNL     1       1.896   3.113  19.881  0.00  0.00    +0.000 A 
ATOM     12  C   UNL     1       3.179   2.545  19.909  0.00  0.00    +0.000 A 
ATOM     13  C   UNL     1       4.056   2.705  18.832  0.00  0.00    +0.000 A 
BRANCH  11  14
ATOM     14  C   UNL     1       0.936   2.950  21.032  0.00  0.00    +0.000 C 
BRANCH  14  15
ATOM     15  O   UNL     1       1.598   2.490  22.205  0.00  0.00    +0.000 OA
ATOM     16  H   UNL     1       2.226   1.805  21.920  0.00  0.00    +0.000 HD
ENDBRANCH  14  15
ENDBRANCH  11  14
ENDBRANCH   7   8
BRANCH   4  17
ATOM     17  O   UNL     1       7.895   7.357  16.906  0.00  0.00    +0.000 OA
ATOM     18  H   UNL     1       7.377   8.136  16.648  0.00  0.00    +0.000 HD
ENDBRANCH   4  17
TORSDOF 4
ENDMDL
MODEL 4
REMARK VINA RESULT:      -6.8      1.364      2.287
REMARK  Name = 
REMARK  4 active torsions:
REMARK  status: ('A' for Active; 'I' for Inactive)
REMARK    1  A    between atoms: C_4  and  O_5
REMARK    2  A    between atoms: C_8  and  C_9
REMARK    3  A    between atoms: C_12  and  C_13
REMARK    4  A    between atoms: C_13  and  O_14
REMARK                            x       y       z     vdW  Elec       q    Type
REMARK                         _______ _______ _______ _____ _____    ______ ____
ROOT
ATOM      1  O   UNL     1       7.699   6.783  16.825  0.00  0.00    +0.000 OA
ATOM      2  C   UNL     1       7.047   5.874  16.328  0.00  0.00    +0.000 C 
ATOM      3  N   UNL     1       7.357   5.235  15.145  0.00  0.00    +0.000 NA
ATOM      4  C   UNL     1       6.468   4.356  14.848  0.00  0.00    +0.000 C 
ATOM      5  S   UNL     1       5.110   4.149  15.897  0.00  0.00    +0.000 S 
ATOM      6  C   UNL     1       5.823   5.293  16.967  0.00  0.00    +0.000 C 
ATOM      7  C   UNL     1       5.449   5.598  18.215  0.00  0.00    +0.000 C 
ENDROOT
BRANCH   7   8
ATOM      8  C   UNL     1       4.349   4.956  18.934  0.00  0.00    +0.000 A 
ATOM      9  C   UNL     1       4.480   3.626  19.347  0.00  0.00    +0.000 A 
ATOM     10  C   UNL     1       3.452   3.002  20.055  0.00  0.00    +0.000 A 
ATOM     11  C   UNL     1       2.279   3.701  20.371  0.00  0.00    +0.000 A 
ATOM     12  C   UNL     1       2.136   5.020  19.913  0.00  0.00    +0.000 A 
ATOM     13  C   UNL     1       3.167   5.648  19.206  0.00  0.00    +0.000 A 
BRANCH  11  14
ATOM     14  C   UNL     1       1.178   3.009  21.135  0.00  0.00    +0.000 C 
BRANCH  14  15
ATOM     15  O   UNL     1       1.664   2.418  22.334  0.00  0.00    +0.000 OA
ATOM     16  H   UNL     1       1.570   3.087  23.033  0.00  0.00    +0.000 HD
ENDBRANCH  14  15
ENDBRANCH  11  14
ENDBRANCH   7   8
BRANCH   4  17
ATOM     17  O   UNL     1       6.619   3.597  13.757  0.00  0.00    +0.000 OA
ATOM     18  H   UNL     1       5.882   2.965  13.732  0.00  0.00    +0.000 HD
ENDBRANCH   4  17
TORSDOF 4
ENDMDL
MODEL 5
REMARK VINA RESULT:      -6.6      1.148      1.492
REMARK  Name = 
REMARK  4 active torsions:
REMARK  status: ('A' for Active; 'I' for Inactive)
REMARK    1  A    between atoms: C_4  and  O_5
REMARK    2  A    between atoms: C_8  and  C_9
REMARK    3  A    between atoms: C_12  and  C_13
REMARK    4  A    between atoms: C_13  and  O_14
REMARK                            x       y       z     vdW  Elec       q    Type
REMARK                         _______ _______ _______ _____ _____    ______ ____
ROOT
ATOM      1  O   UNL     1       6.355   5.867  15.006  0.00  0.00    +0.000 OA
ATOM      2  C   UNL     1       6.586   5.987  16.202  0.00  0.00    +0.000 C 
ATOM      3  N   UNL     1       7.596   6.759  16.737  0.00  0.00    +0.000 NA
ATOM      4  C   UNL     1       7.628   6.654  18.018  0.00  0.00    +0.000 C 
ATOM      5  S   UNL     1       6.490   5.617  18.803  0.00  0.00    +0.000 S 
ATOM      6  C   UNL     1       5.764   5.333  17.269  0.00  0.00    +0.000 C 
ATOM      7  C   UNL     1       4.606   4.714  17.007  0.00  0.00    +0.000 C 
ENDROOT
BRANCH   7   8
ATOM      8  C   UNL     1       3.698   4.184  18.025  0.00  0.00    +0.000 A 
ATOM      9  C   UNL     1       2.922   5.068  18.781  0.00  0.00    +0.000 A 
ATOM     10  C   UNL     1       2.031   4.583  19.740  0.00  0.00    +0.000 A 
ATOM     11  C   UNL     1       1.896   3.204  19.952  0.00  0.00    +0.000 A 
ATOM     12  C   UNL     1       2.712   2.326  19.222  0.00  0.00    +0.000 A 
ATOM     13  C   UNL     1       3.602   2.811  18.259  0.00  0.00    +0.000 A 
BRANCH  11  14
ATOM     14  C   UNL     1       0.930   2.699  20.994  0.00  0.00    +0.000 C 
BRANCH  14  15
ATOM     15  O   UNL     1       1.553   2.564  22.265  0.00  0.00    +0.000 OA
ATOM     16  H   UNL     1       2.173   1.818  22.195  0.00  0.00    +0.000 HD
ENDBRANCH  14  15
ENDBRANCH  11  14
ENDBRANCH   7   8
BRANCH   4  17
ATOM     17  O   UNL     1       8.513   7.368  18.724  0.00  0.00    +0.000 OA
ATOM     18  H   UNL     1       8.286   8.306  18.621  0.00  0.00    +0.000 HD
ENDBRANCH   4  17
TORSDOF 4
ENDMDL
MODEL 6
REMARK VINA RESULT:      -6.5      1.275      1.658
REMARK  Name = 
REMARK  4 active torsions:
REMARK  status: ('A' for Active; 'I' for Inactive)
REMARK    1  A    between atoms: C_4  and  O_5
REMARK    2  A    between atoms: C_8  and  C_9
REMARK    3  A    between atoms: C_12  and  C_13
REMARK    4  A    between atoms: C_13  and  O_14
REMARK                            x       y       z     vdW  Elec       q    Type
REMARK                         _______ _______ _______ _____ _____    ______ ____
ROOT
ATOM      1  O   UNL     1       7.212   5.418  14.698  0.00  0.00    +0.000 OA
ATOM      2  C   UNL     1       7.080   5.727  15.875  0.00  0.00    +0.000 C 
ATOM      3  N   UNL     1       7.826   6.685  16.529  0.00  0.00    +0.000 NA
ATOM      4  C   UNL     1       7.498   6.759  17.769  0.00  0.00    +0.000 C 
ATOM      5  S   UNL     1       6.273   5.703  18.377  0.00  0.00    +0.000 S 
ATOM      6  C   UNL     1       6.043   5.124  16.773  0.00  0.00    +0.000 C 
ATOM      7  C   UNL     1       5.065   4.334  16.314  0.00  0.00    +0.000 C 
ENDROOT
BRANCH   7   8
ATOM      8  C   UNL     1       3.951   3.837  17.121  0.00  0.00    +0.000 A 
ATOM      9  C   UNL     1       2.925   4.712  17.491  0.00  0.00    +0.000 A 
ATOM     10  C   UNL     1       1.840   4.252  18.240  0.00  0.00    +0.000 A 
ATOM     11  C   UNL     1       1.759   2.907  18.624  0.00  0.00    +0.000 A 
ATOM     12  C   UNL     1       2.816   2.046  18.288  0.00  0.00    +0.000 A 
ATOM     13  C   UNL     1       3.901   2.504  17.535  0.00  0.00    +0.000 A 
BRANCH  11  14
ATOM     14  C   UNL     1       0.581   2.430  19.434  0.00  0.00    +0.000 C 
BRANCH  14  15
ATOM     15  O   UNL     1       0.359   3.254  20.572  0.00  0.00    +0.000 OA
ATOM     16  H   UNL     1       0.614   4.157  20.317  0.00  0.00    +0.000 HD
ENDBRANCH  14  15
ENDBRANCH  11  14
ENDBRANCH   7   8
BRANCH   4  17
ATOM     17  O   UNL     1       8.081   7.667  18.560  0.00  0.00    +0.000 OA
ATOM     18  H   UNL     1       8.208   7.261  19.433  0.00  0.00    +0.000 HD
ENDBRANCH   4  17
TORSDOF 4
ENDMDL
MODEL 7
REMARK VINA RESULT:      -6.4      4.734      5.980
REMARK  Name = 
REMARK  4 active torsions:
REMARK  status: ('A' for Active; 'I' for Inactive)
REMARK    1  A    between atoms: C_4  and  O_5
REMARK    2  A    between atoms: C_8  and  C_9
REMARK    3  A    between atoms: C_12  and  C_13
REMARK    4  A    between atoms: C_13  and  O_14
REMARK                            x       y       z     vdW  Elec       q    Type
REMARK                         _______ _______ _______ _____ _____    ______ ____
ROOT
ATOM      1  O   UNL     1       5.339   3.550  19.243  0.00  0.00    +0.000 OA
ATOM      2  C   UNL     1       4.144   3.463  18.996  0.00  0.00    +0.000 C 
ATOM      3  N   UNL     1       3.439   2.280  18.912  0.00  0.00    +0.000 NA
ATOM      4  C   UNL     1       2.213   2.494  18.591  0.00  0.00    +0.000 C 
ATOM      5  S   UNL     1       1.690   4.118  18.317  0.00  0.00    +0.000 S 
ATOM      6  C   UNL     1       3.257   4.652  18.787  0.00  0.00    +0.000 C 
ATOM      7  C   UNL     1       3.663   5.903  19.031  0.00  0.00    +0.000 C 
ENDROOT
BRANCH   7   8
ATOM      8  C   UNL     1       2.798   7.082  18.980  0.00  0.00    +0.000 A 
ATOM      9  C   UNL     1       2.081   7.460  20.120  0.00  0.00    +0.000 A 
ATOM     10  C   UNL     1       1.269   8.595  20.099  0.00  0.00    +0.000 A 
ATOM     11  C   UNL     1       1.168   9.378  18.941  0.00  0.00    +0.000 A 
ATOM     12  C   UNL     1       1.854   8.965  17.788  0.00  0.00    +0.000 A 
ATOM     13  C   UNL     1       2.671   7.831  17.808  0.00  0.00    +0.000 A 
BRANCH  11  14
ATOM     14  C   UNL     1       0.285  10.599  18.938  0.00  0.00    +0.000 C 
BRANCH  14  15
ATOM     15  O   UNL     1      -0.483  10.688  17.744  0.00  0.00    +0.000 OA
ATOM     16  H   UNL     1      -0.414   9.824  17.302  0.00  0.00    +0.000 HD
ENDBRANCH  14  15
ENDBRANCH  11  14
ENDBRANCH   7   8
BRANCH   4  17
ATOM     17  O   UNL     1       1.357   1.470  18.506  0.00  0.00    +0.000 OA
ATOM     18  H   UNL     1       1.791   0.689  18.887  0.00  0.00    +0.000 HD
ENDBRANCH   4  17
TORSDOF 4
ENDMDL
MODEL 8
REMARK VINA RESULT:      -6.3      1.454      1.545
REMARK  Name = 
REMARK  4 active torsions:
REMARK  status: ('A' for Active; 'I' for Inactive)
REMARK    1  A    between atoms: C_4  and  O_5
REMARK    2  A    between atoms: C_8  and  C_9
REMARK    3  A    between atoms: C_12  and  C_13
REMARK    4  A    between atoms: C_13  and  O_14
REMARK                            x       y       z     vdW  Elec       q    Type
REMARK                         _______ _______ _______ _____ _____    ______ ____
ROOT
ATOM      1  O   UNL     1       5.709   6.629  15.318  0.00  0.00    +0.000 OA
ATOM      2  C   UNL     1       6.100   6.460  16.464  0.00  0.00    +0.000 C 
ATOM      3  N   UNL     1       7.259   6.993  16.991  0.00  0.00    +0.000 NA
ATOM      4  C   UNL     1       7.437   6.605  18.203  0.00  0.00    +0.000 C 
ATOM      5  S   UNL     1       6.285   5.535  18.919  0.00  0.00    +0.000 S 
ATOM      6  C   UNL     1       5.342   5.667  17.485  0.00  0.00    +0.000 C 
ATOM      7  C   UNL     1       4.093   5.235  17.277  0.00  0.00    +0.000 C 
ENDROOT
BRANCH   7   8
ATOM      8  C   UNL     1       3.260   4.584  18.288  0.00  0.00    +0.000 A 
ATOM      9  C   UNL     1       3.308   3.193  18.428  0.00  0.00    +0.000 A 
ATOM     10  C   UNL     1       2.539   2.554  19.402  0.00  0.00    +0.000 A 
ATOM     11  C   UNL     1       1.716   3.296  20.260  0.00  0.00    +0.000 A 
ATOM     12  C   UNL     1       1.639   4.686  20.083  0.00  0.00    +0.000 A 
ATOM     13  C   UNL     1       2.411   5.328  19.110  0.00  0.00    +0.000 A 
BRANCH  11  14
ATOM     14  C   UNL     1       0.892   2.588  21.305  0.00  0.00    +0.000 C 
BRANCH  14  15
ATOM     15  O   UNL     1       1.687   2.182  22.413  0.00  0.00    +0.000 OA
ATOM     16  H   UNL     1       1.255   2.533  23.210  0.00  0.00    +0.000 HD
ENDBRANCH  14  15
ENDBRANCH  11  14
ENDBRANCH   7   8
BRANCH   4  17
ATOM     17  O   UNL     1       8.486   7.057  18.900  0.00  0.00    +0.000 OA
ATOM     18  H   UNL     1       8.268   7.948  19.217  0.00  0.00    +0.000 HD
ENDBRANCH   4  17
TORSDOF 4
ENDMDL
MODEL 9
REMARK VINA RESULT:      -6.2      2.907      6.239
REMARK  Name = 
REMARK  4 active torsions:
REMARK  status: ('A' for Active; 'I' for Inactive)
REMARK    1  A    between atoms: C_4  and  O_5
REMARK    2  A    between atoms: C_8  and  C_9
REMARK    3  A    between atoms: C_12  and  C_13
REMARK    4  A    between atoms: C_13  and  O_14
REMARK                            x       y       z     vdW  Elec       q    Type
REMARK                         _______ _______ _______ _____ _____    ______ ____
ROOT
ATOM      1  O   UNL     1       2.120   1.788  17.486  0.00  0.00    +0.000 OA
ATOM      2  C   UNL     1       2.358   2.431  18.500  0.00  0.00    +0.000 C 
ATOM      3  N   UNL     1       1.844   2.153  19.750  0.00  0.00    +0.000 NA
ATOM      4  C   UNL     1       2.229   3.025  20.612  0.00  0.00    +0.000 C 
ATOM      5  S   UNL     1       3.242   4.326  20.094  0.00  0.00    +0.000 S 
ATOM      6  C   UNL     1       3.288   3.604  18.532  0.00  0.00    +0.000 C 
ATOM      7  C   UNL     1       4.070   3.931  17.496  0.00  0.00    +0.000 C 
ENDROOT
BRANCH   7   8
ATOM      8  C   UNL     1       5.093   4.976  17.525  0.00  0.00    +0.000 A 
ATOM      9  C   UNL     1       4.775   6.263  17.082  0.00  0.00    +0.000 A 
ATOM     10  C   UNL     1       5.731   7.280  17.123  0.00  0.00    +0.000 A 
ATOM     11  C   UNL     1       7.018   7.029  17.617  0.00  0.00    +0.000 A 
ATOM     12  C   UNL     1       7.343   5.723  18.016  0.00  0.00    +0.000 A 
ATOM     13  C   UNL     1       6.386   4.704  17.979  0.00  0.00    +0.000 A 
BRANCH  11  14
ATOM     14  C   UNL     1       8.036   8.140  17.652  0.00  0.00    +0.000 C 
BRANCH  14  15
ATOM     15  O   UNL     1       8.716   8.188  18.901  0.00  0.00    +0.000 OA
ATOM     16  H   UNL     1       8.034   8.144  19.592  0.00  0.00    +0.000 HD
ENDBRANCH  14  15
ENDBRANCH  11  14
ENDBRANCH   7   8
BRANCH   4  17
ATOM     17  O   UNL     1       1.871   2.898  21.895  0.00  0.00    +0.000 OA
ATOM     18  H   UNL     1       2.625   2.522  22.376  0.00  0.00    +0.000 HD
ENDBRANCH   4  17
TORSDOF 4
ENDMDL
