MODEL 1
REMARK VINA RESULT:      -5.8      0.000      0.000
REMARK  Name = 
REMARK  2 active torsions:
REMARK  status: ('A' for Active; 'I' for Inactive)
REMARK    1  A    between atoms: N_1  and  C_2
REMARK    2  A    between atoms: C_2  and  C_3
REMARK                            x       y       z     vdW  Elec       q    Type
REMARK                         _______ _______ _______ _____ _____    ______ ____
ROOT
ATOM      1  C   UNL     1       5.554   4.397  17.291  0.00  0.00    +0.000 A 
ATOM      2  C   UNL     1       5.415   4.052  18.622  0.00  0.00    +0.000 A 
ATOM      3  N   UNL     1       4.084   3.789  18.803  0.00  0.00    +0.000 N 
ATOM      4  C   UNL     1       3.401   3.439  19.963  0.00  0.00    +0.000 A 
ATOM      5  C   UNL     1       2.072   3.257  19.902  0.00  0.00    +0.000 A 
ATOM      6 CL   UNL     1       1.154   2.845  21.295  0.00  0.00    +0.000 Cl
ATOM      7  C   UNL     1       1.386   3.420  18.628  0.00  0.00    +0.000 A 
ATOM      8  C   UNL     1       2.060   3.752  17.507  0.00  0.00    +0.000 A 
ATOM      9  C   UNL     1       3.468   3.960  17.567  0.00  0.00    +0.000 A 
ATOM     10  N   UNL     1       4.336   4.317  16.644  0.00  0.00    +0.000 NA
ENDROOT
BRANCH   1  11
ATOM     11  C   UNL     1       6.782   4.820  16.561  0.00  0.00    +0.000 C 
BRANCH  11  12
ATOM     12  N   UNL     1       7.950   4.215  17.196  0.00  0.00    +0.000 NA
ATOM     13  H   UNL     1       8.367   3.555  16.544  0.00  0.00    +0.000 HD
ATOM     14  H   UNL     1       7.614   3.659  17.983  0.00  0.00    +0.000 HD
ENDBRANCH  11  12
ENDBRANCH   1  11
TORSDOF 2
ENDMDL
MODEL 2
REMARK VINA RESULT:      -5.6      1.027      1.027
REMARK  Name = 
REMARK  2 active torsions:
REMARK  status: ('A' for Active; 'I' for Inactive)
REMARK    1  A    between atoms: N_1  and  C_2
REMARK    2  A    between atoms: C_2  and  C_3
REMARK                            x       y       z     vdW  Elec       q    Type
REMARK                         _______ _______ _______ _____ _____    ______ ____
ROOT
ATOM      1  C   UNL     1       6.051   4.470  17.495  0.00  0.00    +0.000 A 
ATOM      2  C   UNL     1       5.539   4.750  18.748  0.00  0.00    +0.000 A 
ATOM      3  N   UNL     1       4.226   4.368  18.709  0.00  0.00    +0.000 N 
ATOM      4  C   UNL     1       3.246   4.469  19.691  0.00  0.00    +0.000 A 
ATOM      5  C   UNL     1       2.002   4.047  19.411  0.00  0.00    +0.000 A 
ATOM      6 CL   UNL     1       0.732   4.159  20.562  0.00  0.00    +0.000 Cl
ATOM      7  C   UNL     1       1.716   3.488  18.097  0.00  0.00    +0.000 A 
ATOM      8  C   UNL     1       2.677   3.387  17.155  0.00  0.00    +0.000 A 
ATOM      9  C   UNL     1       3.995   3.845  17.440  0.00  0.00    +0.000 A 
ATOM     10  N   UNL     1       5.082   3.890  16.699  0.00  0.00    +0.000 NA
ENDROOT
BRANCH   1  11
ATOM     11  C   UNL     1       7.422   4.724  16.969  0.00  0.00    +0.000 C 
BRANCH  11  12
ATOM     12  N   UNL     1       7.407   5.940  16.161  0.00  0.00    +0.000 NA
ATOM     13  H   UNL     1       8.216   5.929  15.544  0.00  0.00    +0.000 HD
ATOM     14  H   UNL     1       7.546   6.727  16.795  0.00  0.00    +0.000 HD
ENDBRANCH  11  12
ENDBRANCH   1  11
TORSDOF 2
ENDMDL
MODEL 3
REMARK VINA RESULT:      -5.5      1.891      1.981
REMARK  Name = 
REMARK  2 active torsions:
REMARK  status: ('A' for Active; 'I' for Inactive)
REMARK    1  A    between atoms: N_1  and  C_2
REMARK    2  A    between atoms: C_2  and  C_3
REMARK                            x       y       z     vdW  Elec       q    Type
REMARK                         _______ _______ _______ _____ _____    ______ ____
ROOT
ATOM      1  C   UNL     1       6.064   5.297  18.795  0.00  0.00    +0.000 A 
ATOM      2  C   UNL     1       5.546   4.063  19.140  0.00  0.00    +0.000 A 
ATOM      3  N   UNL     1       4.221   4.106  18.800  0.00  0.00    +0.000 N 
ATOM      4  C   UNL     1       3.233   3.142  18.971  0.00  0.00    +0.000 A 
ATOM      5  C   UNL     1       1.979   3.424  18.580  0.00  0.00    +0.000 A 
ATOM      6 CL   UNL     1       0.698   2.296  18.778  0.00  0.00    +0.000 Cl
ATOM      7  C   UNL     1       1.691   4.720  17.981  0.00  0.00    +0.000 A 
ATOM      8  C   UNL     1       2.661   5.644  17.813  0.00  0.00    +0.000 A 
ATOM      9  C   UNL     1       3.989   5.357  18.237  0.00  0.00    +0.000 A 
ATOM     10  N   UNL     1       5.086   6.084  18.218  0.00  0.00    +0.000 NA
ENDROOT
BRANCH   1  11
ATOM     11  C   UNL     1       7.449   5.813  18.984  0.00  0.00    +0.000 C 
BRANCH  11  12
ATOM     12  N   UNL     1       7.921   5.444  20.316  0.00  0.00    +0.000 NA
ATOM     13  H   UNL     1       7.941   6.280  20.895  0.00  0.00    +0.000 HD
ATOM     14  H   UNL     1       8.891   5.142  20.222  0.00  0.00    +0.000 HD
ENDBRANCH  11  12
ENDBRANCH   1  11
TORSDOF 2
ENDMDL
MODEL 4
REMARK VINA RESULT:      -5.4      1.456      1.922
REMARK  Name = 
REMARK  2 active torsions:
REMARK  status: ('A' for Active; 'I' for Inactive)
REMARK    1  A    between atoms: N_1  and  C_2
REMARK    2  A    between atoms: C_2  and  C_3
REMARK                            x       y       z     vdW  Elec       q    Type
REMARK                         _______ _______ _______ _____ _____    ______ ____
ROOT
ATOM      1  C   UNL     1       5.985   4.840  18.384  0.00  0.00    +0.000 A 
ATOM      2  C   UNL     1       5.203   3.896  17.747  0.00  0.00    +0.000 A 
ATOM      3  N   UNL     1       3.993   3.919  18.387  0.00  0.00    +0.000 N 
ATOM      4  C   UNL     1       2.863   3.139  18.169  0.00  0.00    +0.000 A 
ATOM      5  C   UNL     1       1.788   3.325  18.952  0.00  0.00    +0.000 A 
ATOM      6 CL   UNL     1       0.362   2.386  18.762  0.00  0.00    +0.000 Cl
ATOM      7  C   UNL     1       1.829   4.341  19.994  0.00  0.00    +0.000 A 
ATOM      8  C   UNL     1       2.929   5.098  20.190  0.00  0.00    +0.000 A 
ATOM      9  C   UNL     1       4.078   4.897  19.374  0.00  0.00    +0.000 A 
ATOM     10  N   UNL     1       5.264   5.467  19.382  0.00  0.00    +0.000 NA
ENDROOT
BRANCH   1  11
ATOM     11  C   UNL     1       7.408   5.202  18.126  0.00  0.00    +0.000 C 
BRANCH  11  12
ATOM     12  N   UNL     1       7.988   4.231  17.202  0.00  0.00    +0.000 NA
ATOM     13  H   UNL     1       8.663   3.664  17.710  0.00  0.00    +0.000 HD
ATOM     14  H   UNL     1       8.525   4.754  16.510  0.00  0.00    +0.000 HD
ENDBRANCH  11  12
ENDBRANCH   1  11
TORSDOF 2
ENDMDL
MODEL 5
REMARK VINA RESULT:      -5.4      1.473      1.568
REMARK  Name = 
REMARK  2 active torsions:
REMARK  status: ('A' for Active; 'I' for Inactive)
REMARK    1  A    between atoms: N_1  and  C_2
REMARK    2  A    between atoms: C_2  and  C_3
REMARK                            x       y       z     vdW  Elec       q    Type
REMARK                         _______ _______ _______ _____ _____    ______ ____
ROOT
ATOM      1  C   UNL     1       5.627   5.062  17.903  0.00  0.00    +0.000 A 
ATOM      2  C   UNL     1       5.285   3.855  18.481  0.00  0.00    +0.000 A 
ATOM      3  N   UNL     1       4.150   4.096  19.208  0.00  0.00    +0.000 N 
ATOM      4  C   UNL     1       3.416   3.233  20.014  0.00  0.00    +0.000 A 
ATOM      5  C   UNL     1       2.340   3.709  20.660  0.00  0.00    +0.000 A 
ATOM      6 CL   UNL     1       1.394   2.713  21.692  0.00  0.00    +0.000 Cl
ATOM      7  C   UNL     1       1.964   5.106  20.491  0.00  0.00    +0.000 A 
ATOM      8  C   UNL     1       2.680   5.932  19.700  0.00  0.00    +0.000 A 
ATOM      9  C   UNL     1       3.831   5.438  19.022  0.00  0.00    +0.000 A 
ATOM     10  N   UNL     1       4.702   6.033  18.235  0.00  0.00    +0.000 NA
ENDROOT
BRANCH   1  11
ATOM     11  C   UNL     1       6.801   5.386  17.044  0.00  0.00    +0.000 C 
BRANCH  11  12
ATOM     12  N   UNL     1       7.831   4.368  17.237  0.00  0.00    +0.000 NA
ATOM     13  H   UNL     1       8.371   4.608  18.065  0.00  0.00    +0.000 HD
ATOM     14  H   UNL     1       8.476   4.436  16.450  0.00  0.00    +0.000 HD
ENDBRANCH  11  12
ENDBRANCH   1  11
TORSDOF 2
ENDMDL
MODEL 6
REMARK VINA RESULT:      -5.4      2.727      4.700
REMARK  Name = 
REMARK  2 active torsions:
REMARK  status: ('A' for Active; 'I' for Inactive)
REMARK    1  A    between atoms: N_1  and  C_2
REMARK    2  A    between atoms: C_2  and  C_3
REMARK                            x       y       z     vdW  Elec       q    Type
REMARK                         _______ _______ _______ _____ _____    ______ ____
ROOT
ATOM      1  C   UNL     1       2.306   3.262  18.653  0.00  0.00    +0.000 A 
ATOM      2  C   UNL     1       3.124   3.982  19.502  0.00  0.00    +0.000 A 
ATOM      3  N   UNL     1       4.226   4.319  18.762  0.00  0.00    +0.000 N 
ATOM      4  C   UNL     1       5.371   5.009  19.146  0.00  0.00    +0.000 A 
ATOM      5  C   UNL     1       6.345   5.198  18.241  0.00  0.00    +0.000 A 
ATOM      6 CL   UNL     1       7.800   6.021  18.643  0.00  0.00    +0.000 Cl
ATOM      7  C   UNL     1       6.174   4.689  16.888  0.00  0.00    +0.000 A 
ATOM      8  C   UNL     1       5.054   4.028  16.525  0.00  0.00    +0.000 A 
ATOM      9  C   UNL     1       4.023   3.812  17.482  0.00  0.00    +0.000 A 
ATOM     10  N   UNL     1       2.871   3.181  17.395  0.00  0.00    +0.000 NA
ENDROOT
BRANCH   1  11
ATOM     11  C   UNL     1       0.996   2.614  18.947  0.00  0.00    +0.000 C 
BRANCH  11  12
ATOM     12  N   UNL     1       0.478   3.132  20.210  0.00  0.00    +0.000 NA
ATOM     13  H   UNL     1      -0.535   3.193  20.143  0.00  0.00    +0.000 HD
ATOM     14  H   UNL     1       0.813   4.091  20.305  0.00  0.00    +0.000 HD
ENDBRANCH  11  12
ENDBRANCH   1  11
TORSDOF 2
ENDMDL
MODEL 7
REMARK VINA RESULT:      -5.3      3.139      4.586
REMARK  Name = 
REMARK  2 active torsions:
REMARK  status: ('A' for Active; 'I' for Inactive)
REMARK    1  A    between atoms: N_1  and  C_2
REMARK    2  A    between atoms: C_2  and  C_3
REMARK                            x       y       z     vdW  Elec       q    Type
REMARK                         _______ _______ _______ _____ _____    ______ ____
ROOT
ATOM      1  C   UNL     1       3.940   3.124  18.240  0.00  0.00    +0.000 A 
ATOM      2  C   UNL     1       4.962   3.637  19.017  0.00  0.00    +0.000 A 
ATOM      3  N   UNL     1       5.430   4.733  18.343  0.00  0.00    +0.000 N 
ATOM      4  C   UNL     1       6.479   5.587  18.665  0.00  0.00    +0.000 A 
ATOM      5  C   UNL     1       6.777   6.591  17.826  0.00  0.00    +0.000 A 
ATOM      6 CL   UNL     1       8.072   7.676  18.141  0.00  0.00    +0.000 Cl
ATOM      7  C   UNL     1       5.990   6.766  16.612  0.00  0.00    +0.000 A 
ATOM      8  C   UNL     1       4.969   5.935  16.315  0.00  0.00    +0.000 A 
ATOM      9  C   UNL     1       4.657   4.860  17.193  0.00  0.00    +0.000 A 
ATOM     10  N   UNL     1       3.751   3.908  17.118  0.00  0.00    +0.000 NA
ENDROOT
BRANCH   1  11
ATOM     11  C   UNL     1       3.110   1.909  18.474  0.00  0.00    +0.000 C 
BRANCH  11  12
ATOM     12  N   UNL     1       3.966   0.727  18.421  0.00  0.00    +0.000 NA
ATOM     13  H   UNL     1       3.453  -0.023  17.962  0.00  0.00    +0.000 HD
ATOM     14  H   UNL     1       4.116   0.417  19.382  0.00  0.00    +0.000 HD
ENDBRANCH  11  12
ENDBRANCH   1  11
TORSDOF 2
ENDMDL
MODEL 8
REMARK VINA RESULT:      -5.3      1.582      2.168
REMARK  Name = 
REMARK  2 active torsions:
REMARK  status: ('A' for Active; 'I' for Inactive)
REMARK    1  A    between atoms: N_1  and  C_2
REMARK    2  A    between atoms: C_2  and  C_3
REMARK                            x       y       z     vdW  Elec       q    Type
REMARK                         _______ _______ _______ _____ _____    ______ ____
ROOT
ATOM      1  C   UNL     1       5.833   5.555  17.945  0.00  0.00    +0.000 A 
ATOM      2  C   UNL     1       4.505   5.624  17.572  0.00  0.00    +0.000 A 
ATOM      3  N   UNL     1       3.888   4.571  18.192  0.00  0.00    +0.000 N 
ATOM      4  C   UNL     1       2.562   4.157  18.122  0.00  0.00    +0.000 A 
ATOM      5  C   UNL     1       2.189   3.062  18.804  0.00  0.00    +0.000 A 
ATOM      6 CL   UNL     1       0.575   2.474  18.752  0.00  0.00    +0.000 Cl
ATOM      7  C   UNL     1       3.174   2.348  19.605  0.00  0.00    +0.000 A 
ATOM      8  C   UNL     1       4.456   2.764  19.671  0.00  0.00    +0.000 A 
ATOM      9  C   UNL     1       4.862   3.916  18.939  0.00  0.00    +0.000 A 
ATOM     10  N   UNL     1       6.036   4.498  18.810  0.00  0.00    +0.000 NA
ENDROOT
BRANCH   1  11
ATOM     11  C   UNL     1       6.966   6.429  17.526  0.00  0.00    +0.000 C 
BRANCH  11  12
ATOM     12  N   UNL     1       7.404   6.038  16.189  0.00  0.00    +0.000 NA
ATOM     13  H   UNL     1       8.418   6.119  16.145  0.00  0.00    +0.000 HD
ATOM     14  H   UNL     1       7.037   6.730  15.535  0.00  0.00    +0.000 HD
ENDBRANCH  11  12
ENDBRANCH   1  11
TORSDOF 2
ENDMDL
MODEL 9
REMARK VINA RESULT:      -5.3      1.359      1.414
REMARK  Name = 
REMARK  2 active torsions:
REMARK  status: ('A' for Active; 'I' for Inactive)
REMARK    1  A    between atoms: N_1  and  C_2
REMARK    2  A    between atoms: C_2  and  C_3
REMARK                            x       y       z     vdW  Elec       q    Type
REMARK                         _______ _______ _______ _____ _____    ______ ____
ROOT
ATOM      1  C   UNL     1       5.063   4.856  17.191  0.00  0.00    +0.000 A 
ATOM      2  C   UNL     1       4.768   5.052  18.527  0.00  0.00    +0.000 A 
ATOM      3  N   UNL     1       3.796   4.138  18.833  0.00  0.00    +0.000 N 
ATOM      4  C   UNL     1       3.118   3.936  20.030  0.00  0.00    +0.000 A 
ATOM      5  C   UNL     1       2.171   2.985  20.086  0.00  0.00    +0.000 A 
ATOM      6 CL   UNL     1       1.274   2.690  21.521  0.00  0.00    +0.000 Cl
ATOM      7  C   UNL     1       1.889   2.187  18.901  0.00  0.00    +0.000 A 
ATOM      8  C   UNL     1       2.560   2.388  17.746  0.00  0.00    +0.000 A 
ATOM      9  C   UNL     1       3.555   3.403  17.676  0.00  0.00    +0.000 A 
ATOM     10  N   UNL     1       4.313   3.814  16.681  0.00  0.00    +0.000 NA
ENDROOT
BRANCH   1  11
ATOM     11  C   UNL     1       6.018   5.606  16.327  0.00  0.00    +0.000 C 
BRANCH  11  12
ATOM     12  N   UNL     1       5.279   6.577  15.525  0.00  0.00    +0.000 NA
ATOM     13  H   UNL     1       5.342   6.304  14.547  0.00  0.00    +0.000 HD
ATOM     14  H   UNL     1       5.769   7.469  15.601  0.00  0.00    +0.000 HD
ENDBRANCH  11  12
ENDBRANCH   1  11
TORSDOF 2
ENDMDL
