MODEL 1
REMARK VINA RESULT:      -7.6      0.000      0.000
REMARK  Name = 
REMARK  4 active torsions:
REMARK  status: ('A' for Active; 'I' for Inactive)
REMARK    1  A    between atoms: C_1  and  C_2
REMARK    2  A    between atoms: C_6  and  N_7
REMARK    3  A    between atoms: C_10  and  C_11
REMARK    4  A    between atoms: C_11  and  C_12
REMARK                            x       y       z     vdW  Elec       q    Type
REMARK                         _______ _______ _______ _____ _____    ______ ____
ROOT
ATOM      1  C   UNL     1      -0.436  11.706  21.453  0.00  0.00    +0.000 C 
ATOM      2  C   UNL     1       0.203  10.410  21.057  0.00  0.00    +0.000 A 
ATOM      3  C   UNL     1       0.197   9.317  21.896  0.00  0.00    +0.000 A 
ATOM      4  C   UNL     1       0.836   8.158  21.465  0.00  0.00    +0.000 A 
ATOM      5  C   UNL     1       1.458   8.094  20.191  0.00  0.00    +0.000 A 
ATOM      6  C   UNL     1       2.161   6.969  19.653  0.00  0.00    +0.000 A 
ATOM      7  C   UNL     1       2.750   7.084  18.380  0.00  0.00    +0.000 A 
ATOM      8  C   UNL     1       2.596   8.288  17.715  0.00  0.00    +0.000 A 
ATOM      9  N   UNL     1       1.937   9.342  18.205  0.00  0.00    +0.000 NA
ATOM     10  C   UNL     1       1.388   9.265  19.406  0.00  0.00    +0.000 A 
ATOM     11  N   UNL     1       0.788  10.377  19.838  0.00  0.00    +0.000 NA
ENDROOT
BRANCH   6  12
ATOM     12  N   UNL     1       2.448   5.790  20.384  0.00  0.00    +0.000 NA
ATOM     13  N   UNL     1       1.618   4.863  20.320  0.00  0.00    +0.000 NA
ATOM     14  N   UNL     1       0.869   4.006  20.329  0.00  0.00    +0.000 NA
ENDBRANCH   6  12
BRANCH   7  15
ATOM     15  C   UNL     1       3.568   5.986  17.737  0.00  0.00    +0.000 C 
BRANCH  15  16
ATOM     16  C   UNL     1       5.063   6.073  17.965  0.00  0.00    +0.000 A 
ATOM     17  C   UNL     1       5.874   6.900  17.174  0.00  0.00    +0.000 A 
ATOM     18  C   UNL     1       7.240   7.027  17.441  0.00  0.00    +0.000 A 
ATOM     19  C   UNL     1       7.811   6.338  18.507  0.00  0.00    +0.000 A 
ATOM     20  C   UNL     1       7.018   5.512  19.302  0.00  0.00    +0.000 A 
ATOM     21  C   UNL     1       5.653   5.377  19.031  0.00  0.00    +0.000 A 
ENDBRANCH  15  16
ENDBRANCH   7  15
TORSDOF 3
ENDMDL
MODEL 2
REMARK VINA RESULT:      -7.5      3.191      6.936
REMARK  Name = 
REMARK  4 active torsions:
REMARK  status: ('A' for Active; 'I' for Inactive)
REMARK    1  A    between atoms: C_1  and  C_2
REMARK    2  A    between atoms: C_6  and  N_7
REMARK    3  A    between atoms: C_10  and  C_11
REMARK    4  A    between atoms: C_11  and  C_12
REMARK                            x       y       z     vdW  Elec       q    Type
REMARK                         _______ _______ _______ _____ _____    ______ ____
ROOT
ATOM      1  C   UNL     1       8.174   5.097  12.943  0.00  0.00    +0.000 C 
ATOM      2  C   UNL     1       7.123   4.897  13.992  0.00  0.00    +0.000 A 
ATOM      3  C   UNL     1       6.158   3.922  13.870  0.00  0.00    +0.000 A 
ATOM      4  C   UNL     1       5.201   3.819  14.875  0.00  0.00    +0.000 A 
ATOM      5  C   UNL     1       5.229   4.677  16.005  0.00  0.00    +0.000 A 
ATOM      6  C   UNL     1       4.288   4.679  17.084  0.00  0.00    +0.000 A 
ATOM      7  C   UNL     1       4.443   5.622  18.116  0.00  0.00    +0.000 A 
ATOM      8  C   UNL     1       5.518   6.490  18.028  0.00  0.00    +0.000 A 
ATOM      9  N   UNL     1       6.405   6.494  17.028  0.00  0.00    +0.000 NA
ATOM     10  C   UNL     1       6.272   5.627  16.038  0.00  0.00    +0.000 A 
ATOM     11  N   UNL     1       7.173   5.729  15.058  0.00  0.00    +0.000 NA
ENDROOT
BRANCH   6  12
ATOM     12  N   UNL     1       3.108   3.895  17.108  0.00  0.00    +0.000 NA
ATOM     13  N   UNL     1       3.174   2.782  17.663  0.00  0.00    +0.000 NA
ATOM     14  N   UNL     1       3.194   1.739  18.120  0.00  0.00    +0.000 NA
ENDBRANCH   6  12
BRANCH   7  15
ATOM     15  C   UNL     1       3.479   5.759  19.274  0.00  0.00    +0.000 C 
BRANCH  15  16
ATOM     16  C   UNL     1       2.592   6.986  19.238  0.00  0.00    +0.000 A 
ATOM     17  C   UNL     1       1.945   7.452  20.392  0.00  0.00    +0.000 A 
ATOM     18  C   UNL     1       1.189   8.627  20.361  0.00  0.00    +0.000 A 
ATOM     19  C   UNL     1       1.077   9.356  19.180  0.00  0.00    +0.000 A 
ATOM     20  C   UNL     1       1.714   8.905  18.026  0.00  0.00    +0.000 A 
ATOM     21  C   UNL     1       2.464   7.727  18.053  0.00  0.00    +0.000 A 
ENDBRANCH  15  16
ENDBRANCH   7  15
TORSDOF 3
ENDMDL
MODEL 3
REMARK VINA RESULT:      -7.4      0.113      1.058
REMARK  Name = 
REMARK  4 active torsions:
REMARK  status: ('A' for Active; 'I' for Inactive)
REMARK    1  A    between atoms: C_1  and  C_2
REMARK    2  A    between atoms: C_6  and  N_7
REMARK    3  A    between atoms: C_10  and  C_11
REMARK    4  A    between atoms: C_11  and  C_12
REMARK                            x       y       z     vdW  Elec       q    Type
REMARK                         _______ _______ _______ _____ _____    ______ ____
ROOT
ATOM      1  C   UNL     1      -0.592  11.652  21.563  0.00  0.00    +0.000 C 
ATOM      2  C   UNL     1       0.084  10.382  21.143  0.00  0.00    +0.000 A 
ATOM      3  C   UNL     1       0.120   9.278  21.967  0.00  0.00    +0.000 A 
ATOM      4  C   UNL     1       0.791   8.146  21.514  0.00  0.00    +0.000 A 
ATOM      5  C   UNL     1       1.401   8.118  20.233  0.00  0.00    +0.000 A 
ATOM      6  C   UNL     1       2.134   7.023  19.674  0.00  0.00    +0.000 A 
ATOM      7  C   UNL     1       2.706   7.173  18.397  0.00  0.00    +0.000 A 
ATOM      8  C   UNL     1       2.507   8.380  17.749  0.00  0.00    +0.000 A 
ATOM      9  N   UNL     1       1.820   9.406  18.259  0.00  0.00    +0.000 NA
ATOM     10  C   UNL     1       1.286   9.296  19.465  0.00  0.00    +0.000 A 
ATOM     11  N   UNL     1       0.657  10.383  19.918  0.00  0.00    +0.000 NA
ENDROOT
BRANCH   6  12
ATOM     12  N   UNL     1       2.465   5.844  20.386  0.00  0.00    +0.000 NA
ATOM     13  N   UNL     1       1.632   4.918  20.375  0.00  0.00    +0.000 NA
ATOM     14  N   UNL     1       0.885   4.061  20.431  0.00  0.00    +0.000 NA
ENDBRANCH   6  12
BRANCH   7  15
ATOM     15  C   UNL     1       3.551   6.110  17.731  0.00  0.00    +0.000 C 
BRANCH  15  16
ATOM     16  C   UNL     1       5.035   6.186  18.020  0.00  0.00    +0.000 A 
ATOM     17  C   UNL     1       5.612   5.455  19.070  0.00  0.00    +0.000 A 
ATOM     18  C   UNL     1       6.993   5.477  19.280  0.00  0.00    +0.000 A 
ATOM     19  C   UNL     1       7.817   6.222  18.440  0.00  0.00    +0.000 A 
ATOM     20  C   UNL     1       7.259   6.953  17.394  0.00  0.00    +0.000 A 
ATOM     21  C   UNL     1       5.877   6.938  17.186  0.00  0.00    +0.000 A 
ENDBRANCH  15  16
ENDBRANCH   7  15
TORSDOF 3
ENDMDL
MODEL 4
REMARK VINA RESULT:      -7.2      3.101      6.815
REMARK  Name = 
REMARK  4 active torsions:
REMARK  status: ('A' for Active; 'I' for Inactive)
REMARK    1  A    between atoms: C_1  and  C_2
REMARK    2  A    between atoms: C_6  and  N_7
REMARK    3  A    between atoms: C_10  and  C_11
REMARK    4  A    between atoms: C_11  and  C_12
REMARK                            x       y       z     vdW  Elec       q    Type
REMARK                         _______ _______ _______ _____ _____    ______ ____
ROOT
ATOM      1  C   UNL     1       7.977   5.195  12.961  0.00  0.00    +0.000 C 
ATOM      2  C   UNL     1       6.948   4.989  14.031  0.00  0.00    +0.000 A 
ATOM      3  C   UNL     1       6.121   3.887  14.035  0.00  0.00    +0.000 A 
ATOM      4  C   UNL     1       5.174   3.783  15.049  0.00  0.00    +0.000 A 
ATOM      5  C   UNL     1       5.074   4.770  16.064  0.00  0.00    +0.000 A 
ATOM      6  C   UNL     1       4.128   4.780  17.138  0.00  0.00    +0.000 A 
ATOM      7  C   UNL     1       4.144   5.856  18.045  0.00  0.00    +0.000 A 
ATOM      8  C   UNL     1       5.097   6.841  17.845  0.00  0.00    +0.000 A 
ATOM      9  N   UNL     1       5.988   6.839  16.849  0.00  0.00    +0.000 NA
ATOM     10  C   UNL     1       5.983   5.846  15.974  0.00  0.00    +0.000 A 
ATOM     11  N   UNL     1       6.875   5.945  14.986  0.00  0.00    +0.000 NA
ENDROOT
BRANCH   6  12
ATOM     12  N   UNL     1       3.061   3.857  17.263  0.00  0.00    +0.000 NA
ATOM     13  N   UNL     1       3.313   2.765  17.807  0.00  0.00    +0.000 NA
ATOM     14  N   UNL     1       3.503   1.736  18.256  0.00  0.00    +0.000 NA
ENDBRANCH   6  12
BRANCH   7  15
ATOM     15  C   UNL     1       3.157   6.006  19.180  0.00  0.00    +0.000 C 
BRANCH  15  16
ATOM     16  C   UNL     1       2.386   7.309  19.201  0.00  0.00    +0.000 A 
ATOM     17  C   UNL     1       2.170   8.047  18.028  0.00  0.00    +0.000 A 
ATOM     18  C   UNL     1       1.395   9.210  18.048  0.00  0.00    +0.000 A 
ATOM     19  C   UNL     1       0.817   9.645  19.238  0.00  0.00    +0.000 A 
ATOM     20  C   UNL     1       1.022   8.922  20.411  0.00  0.00    +0.000 A 
ATOM     21  C   UNL     1       1.803   7.763  20.395  0.00  0.00    +0.000 A 
ENDBRANCH  15  16
ENDBRANCH   7  15
TORSDOF 3
ENDMDL
MODEL 5
REMARK VINA RESULT:      -7.1      3.610      7.138
REMARK  Name = 
REMARK  4 active torsions:
REMARK  status: ('A' for Active; 'I' for Inactive)
REMARK    1  A    between atoms: C_1  and  C_2
REMARK    2  A    between atoms: C_6  and  N_7
REMARK    3  A    between atoms: C_10  and  C_11
REMARK    4  A    between atoms: C_11  and  C_12
REMARK                            x       y       z     vdW  Elec       q    Type
REMARK                         _______ _______ _______ _____ _____    ______ ____
ROOT
ATOM      1  C   UNL     1       8.010   5.504  12.514  0.00  0.00    +0.000 C 
ATOM      2  C   UNL     1       7.238   4.947  13.671  0.00  0.00    +0.000 A 
ATOM      3  C   UNL     1       6.253   4.000  13.492  0.00  0.00    +0.000 A 
ATOM      4  C   UNL     1       5.564   3.553  14.615  0.00  0.00    +0.000 A 
ATOM      5  C   UNL     1       5.878   4.040  15.911  0.00  0.00    +0.000 A 
ATOM      6  C   UNL     1       5.224   3.672  17.130  0.00  0.00    +0.000 A 
ATOM      7  C   UNL     1       5.640   4.276  18.331  0.00  0.00    +0.000 A 
ATOM      8  C   UNL     1       6.679   5.188  18.257  0.00  0.00    +0.000 A 
ATOM      9  N   UNL     1       7.300   5.535  17.126  0.00  0.00    +0.000 NA
ATOM     10  C   UNL     1       6.917   4.993  15.981  0.00  0.00    +0.000 A 
ATOM     11  N   UNL     1       7.558   5.428  14.894  0.00  0.00    +0.000 NA
ENDROOT
BRANCH   6  12
ATOM     12  N   UNL     1       4.069   2.854  17.194  0.00  0.00    +0.000 NA
ATOM     13  N   UNL     1       2.964   3.417  17.076  0.00  0.00    +0.000 NA
ATOM     14  N   UNL     1       1.930   3.890  17.019  0.00  0.00    +0.000 NA
ENDBRANCH   6  12
BRANCH   7  15
ATOM     15  C   UNL     1       4.984   4.012  19.669  0.00  0.00    +0.000 C 
BRANCH  15  16
ATOM     16  C   UNL     1       3.722   4.802  19.939  0.00  0.00    +0.000 A 
ATOM     17  C   UNL     1       3.571   6.117  19.473  0.00  0.00    +0.000 A 
ATOM     18  C   UNL     1       2.372   6.810  19.666  0.00  0.00    +0.000 A 
ATOM     19  C   UNL     1       1.306   6.195  20.317  0.00  0.00    +0.000 A 
ATOM     20  C   UNL     1       1.441   4.889  20.785  0.00  0.00    +0.000 A 
ATOM     21  C   UNL     1       2.641   4.198  20.600  0.00  0.00    +0.000 A 
ENDBRANCH  15  16
ENDBRANCH   7  15
TORSDOF 3
ENDMDL
MODEL 6
REMARK VINA RESULT:      -7.1      4.130      5.792
REMARK  Name = 
REMARK  4 active torsions:
REMARK  status: ('A' for Active; 'I' for Inactive)
REMARK    1  A    between atoms: C_1  and  C_2
REMARK    2  A    between atoms: C_6  and  N_7
REMARK    3  A    between atoms: C_10  and  C_11
REMARK    4  A    between atoms: C_11  and  C_12
REMARK                            x       y       z     vdW  Elec       q    Type
REMARK                         _______ _______ _______ _____ _____    ______ ____
ROOT
ATOM      1  C   UNL     1       1.129   2.633  21.349  0.00  0.00    +0.000 C 
ATOM      2  C   UNL     1       2.322   3.023  20.528  0.00  0.00    +0.000 A 
ATOM      3  C   UNL     1       3.585   2.562  20.827  0.00  0.00    +0.000 A 
ATOM      4  C   UNL     1       4.644   2.992  20.033  0.00  0.00    +0.000 A 
ATOM      5  C   UNL     1       4.428   3.861  18.931  0.00  0.00    +0.000 A 
ATOM      6  C   UNL     1       5.438   4.385  18.063  0.00  0.00    +0.000 A 
ATOM      7  C   UNL     1       5.056   5.265  17.033  0.00  0.00    +0.000 A 
ATOM      8  C   UNL     1       3.708   5.559  16.916  0.00  0.00    +0.000 A 
ATOM      9  N   UNL     1       2.757   5.072  17.718  0.00  0.00    +0.000 NA
ATOM     10  C   UNL     1       3.092   4.255  18.703  0.00  0.00    +0.000 A 
ATOM     11  N   UNL     1       2.088   3.851  19.485  0.00  0.00    +0.000 NA
ENDROOT
BRANCH   6  12
ATOM     12  N   UNL     1       6.829   4.206  18.264  0.00  0.00    +0.000 NA
ATOM     13  N   UNL     1       7.370   4.896  19.149  0.00  0.00    +0.000 NA
ATOM     14  N   UNL     1       7.919   5.535  19.915  0.00  0.00    +0.000 NA
ENDBRANCH   6  12
BRANCH   7  15
ATOM     15  C   UNL     1       6.039   5.927  16.093  0.00  0.00    +0.000 C 
BRANCH  15  16
ATOM     16  C   UNL     1       6.319   5.173  14.811  0.00  0.00    +0.000 A 
ATOM     17  C   UNL     1       5.425   4.208  14.323  0.00  0.00    +0.000 A 
ATOM     18  C   UNL     1       5.659   3.572  13.100  0.00  0.00    +0.000 A 
ATOM     19  C   UNL     1       6.782   3.898  12.346  0.00  0.00    +0.000 A 
ATOM     20  C   UNL     1       7.679   4.854  12.818  0.00  0.00    +0.000 A 
ATOM     21  C   UNL     1       7.452   5.486  14.043  0.00  0.00    +0.000 A 
ENDBRANCH  15  16
ENDBRANCH   7  15
TORSDOF 3
ENDMDL
MODEL 7
REMARK VINA RESULT:      -7.1      1.650      1.913
REMARK  Name = 
REMARK  4 active torsions:
REMARK  status: ('A' for Active; 'I' for Inactive)
REMARK    1  A    between atoms: C_1  and  C_2
REMARK    2  A    between atoms: C_6  and  N_7
REMARK    3  A    between atoms: C_10  and  C_11
REMARK    4  A    between atoms: C_11  and  C_12
REMARK                            x       y       z     vdW  Elec       q    Type
REMARK                         _______ _______ _______ _____ _____    ______ ____
ROOT
ATOM      1  C   UNL     1       0.244  11.020  20.188  0.00  0.00    +0.000 C 
ATOM      2  C   UNL     1       0.760   9.613  20.218  0.00  0.00    +0.000 A 
ATOM      3  C   UNL     1       0.511   8.776  21.283  0.00  0.00    +0.000 A 
ATOM      4  C   UNL     1       1.049   7.493  21.246  0.00  0.00    +0.000 A 
ATOM      5  C   UNL     1       1.813   7.049  20.136  0.00  0.00    +0.000 A 
ATOM      6  C   UNL     1       2.432   5.767  19.999  0.00  0.00    +0.000 A 
ATOM      7  C   UNL     1       3.187   5.498  18.841  0.00  0.00    +0.000 A 
ATOM      8  C   UNL     1       3.270   6.501  17.891  0.00  0.00    +0.000 A 
ATOM      9  N   UNL     1       2.692   7.700  18.006  0.00  0.00    +0.000 NA
ATOM     10  C   UNL     1       1.990   7.982  19.092  0.00  0.00    +0.000 A 
ATOM     11  N   UNL     1       1.485   9.218  19.147  0.00  0.00    +0.000 NA
ENDROOT
BRANCH   6  12
ATOM     12  N   UNL     1       2.474   4.792  21.026  0.00  0.00    +0.000 NA
ATOM     13  N   UNL     1       1.670   3.844  20.946  0.00  0.00    +0.000 NA
ATOM     14  N   UNL     1       0.925   2.983  20.942  0.00  0.00    +0.000 NA
ENDBRANCH   6  12
BRANCH   7  15
ATOM     15  C   UNL     1       3.935   4.203  18.613  0.00  0.00    +0.000 C 
BRANCH  15  16
ATOM     16  C   UNL     1       5.076   4.280  17.622  0.00  0.00    +0.000 A 
ATOM     17  C   UNL     1       4.873   4.035  16.256  0.00  0.00    +0.000 A 
ATOM     18  C   UNL     1       5.919   4.180  15.340  0.00  0.00    +0.000 A 
ATOM     19  C   UNL     1       7.178   4.582  15.776  0.00  0.00    +0.000 A 
ATOM     20  C   UNL     1       7.396   4.829  17.130  0.00  0.00    +0.000 A 
ATOM     21  C   UNL     1       6.354   4.677  18.048  0.00  0.00    +0.000 A 
ENDBRANCH  15  16
ENDBRANCH   7  15
TORSDOF 3
ENDMDL
MODEL 8
REMARK VINA RESULT:      -7.0      1.673      2.012
REMARK  Name = 
REMARK  4 active torsions:
REMARK  status: ('A' for Active; 'I' for Inactive)
REMARK    1  A    between atoms: C_1  and  C_2
REMARK    2  A    between atoms: C_6  and  N_7
REMARK    3  A    between atoms: C_10  and  C_11
REMARK    4  A    between atoms: C_11  and  C_12
REMARK                            x       y       z     vdW  Elec       q    Type
REMARK                         _______ _______ _______ _____ _____    ______ ____
ROOT
ATOM      1  C   UNL     1       0.115  11.071  20.213  0.00  0.00    +0.000 C 
ATOM      2  C   UNL     1       0.687   9.685  20.220  0.00  0.00    +0.000 A 
ATOM      3  C   UNL     1       0.441   8.809  21.255  0.00  0.00    +0.000 A 
ATOM      4  C   UNL     1       1.030   7.550  21.200  0.00  0.00    +0.000 A 
ATOM      5  C   UNL     1       1.844   7.168  20.101  0.00  0.00    +0.000 A 
ATOM      6  C   UNL     1       2.517   5.915  19.948  0.00  0.00    +0.000 A 
ATOM      7  C   UNL     1       3.315   5.709  18.806  0.00  0.00    +0.000 A 
ATOM      8  C   UNL     1       3.384   6.741  17.886  0.00  0.00    +0.000 A 
ATOM      9  N   UNL     1       2.756   7.912  18.016  0.00  0.00    +0.000 NA
ATOM     10  C   UNL     1       2.013   8.136  19.088  0.00  0.00    +0.000 A 
ATOM     11  N   UNL     1       1.457   9.348  19.161  0.00  0.00    +0.000 NA
ENDROOT
BRANCH   6  12
ATOM     12  N   UNL     1       2.568   4.914  20.949  0.00  0.00    +0.000 NA
ATOM     13  N   UNL     1       1.725   3.999  20.886  0.00  0.00    +0.000 NA
ATOM     14  N   UNL     1       0.949   3.167  20.896  0.00  0.00    +0.000 NA
ENDBRANCH   6  12
BRANCH   7  15
ATOM     15  C   UNL     1       4.120   4.451  18.566  0.00  0.00    +0.000 C 
BRANCH  15  16
ATOM     16  C   UNL     1       5.125   4.531  17.437  0.00  0.00    +0.000 A 
ATOM     17  C   UNL     1       6.481   4.793  17.684  0.00  0.00    +0.000 A 
ATOM     18  C   UNL     1       7.410   4.792  16.640  0.00  0.00    +0.000 A 
ATOM     19  C   UNL     1       6.999   4.519  15.338  0.00  0.00    +0.000 A 
ATOM     20  C   UNL     1       5.656   4.257  15.077  0.00  0.00    +0.000 A 
ATOM     21  C   UNL     1       4.724   4.266  16.118  0.00  0.00    +0.000 A 
ENDBRANCH  15  16
ENDBRANCH   7  15
TORSDOF 3
ENDMDL
MODEL 9
REMARK VINA RESULT:      -7.0      3.447      6.623
REMARK  Name = 
REMARK  4 active torsions:
REMARK  status: ('A' for Active; 'I' for Inactive)
REMARK    1  A    between atoms: C_1  and  C_2
REMARK    2  A    between atoms: C_6  and  N_7
REMARK    3  A    between atoms: C_10  and  C_11
REMARK    4  A    between atoms: C_11  and  C_12
REMARK                            x       y       z     vdW  Elec       q    Type
REMARK                         _______ _______ _______ _____ _____    ______ ____
ROOT
ATOM      1  C   UNL     1       7.668   5.315  13.504  0.00  0.00    +0.000 C 
ATOM      2  C   UNL     1       7.080   5.258  14.881  0.00  0.00    +0.000 A 
ATOM      3  C   UNL     1       7.643   4.487  15.875  0.00  0.00    +0.000 A 
ATOM      4  C   UNL     1       7.020   4.467  17.119  0.00  0.00    +0.000 A 
ATOM      5  C   UNL     1       5.853   5.236  17.368  0.00  0.00    +0.000 A 
ATOM      6  C   UNL     1       5.118   5.276  18.595  0.00  0.00    +0.000 A 
ATOM      7  C   UNL     1       3.958   6.070  18.664  0.00  0.00    +0.000 A 
ATOM      8  C   UNL     1       3.607   6.782  17.530  0.00  0.00    +0.000 A 
ATOM      9  N   UNL     1       4.289   6.756  16.381  0.00  0.00    +0.000 NA
ATOM     10  C   UNL     1       5.374   6.005  16.286  0.00  0.00    +0.000 A 
ATOM     11  N   UNL     1       5.969   6.001  15.090  0.00  0.00    +0.000 NA
ENDROOT
BRANCH   6  12
ATOM     12  N   UNL     1       5.386   4.442  19.708  0.00  0.00    +0.000 NA
ATOM     13  N   UNL     1       5.040   3.248  19.623  0.00  0.00    +0.000 NA
ATOM     14  N   UNL     1       4.702   2.161  19.610  0.00  0.00    +0.000 NA
ENDBRANCH   6  12
BRANCH   7  15
ATOM     15  C   UNL     1       3.068   6.144  19.886  0.00  0.00    +0.000 C 
BRANCH  15  16
ATOM     16  C   UNL     1       2.275   4.890  20.186  0.00  0.00    +0.000 A 
ATOM     17  C   UNL     1       1.546   4.231  19.185  0.00  0.00    +0.000 A 
ATOM     18  C   UNL     1       0.878   3.034  19.459  0.00  0.00    +0.000 A 
ATOM     19  C   UNL     1       0.937   2.476  20.733  0.00  0.00    +0.000 A 
ATOM     20  C   UNL     1       1.657   3.119  21.738  0.00  0.00    +0.000 A 
ATOM     21  C   UNL     1       2.320   4.320  21.468  0.00  0.00    +0.000 A 
ENDBRANCH  15  16
ENDBRANCH   7  15
TORSDOF 3
ENDMDL
