MODEL 1
REMARK VINA RESULT:      -8.3      0.000      0.000
REMARK  Name = 
REMARK  9 active torsions:
REMARK  status: ('A' for Active; 'I' for Inactive)
REMARK    1  A    between atoms: C_1  and  O_2
REMARK    2  A    between atoms: O_2  and  C_3
REMARK    3  A    between atoms: C_3  and  C_5
REMARK    4  A    between atoms: C_6  and  C_7
REMARK    5  A    between atoms: C_10  and  C_11
REMARK    6  A    between atoms: C_12  and  C_13
REMARK    7  A    between atoms: C_13  and  C_14
REMARK    8  A    between atoms: C_14  and  C_15
REMARK    9  A    between atoms: N_28  and  C_29
REMARK                            x       y       z     vdW  Elec       q    Type
REMARK                         _______ _______ _______ _____ _____    ______ ____
ROOT
ATOM      1  C   UNL     1       0.565   9.844  19.767  0.00  0.00    +0.000 A 
ATOM      2  C   UNL     1       0.978   9.827  18.413  0.00  0.00    +0.000 A 
ATOM      3  C   UNL     1       1.792   8.837  17.885  0.00  0.00    +0.000 A 
ATOM      4  C   UNL     1       2.225   7.818  18.708  0.00  0.00    +0.000 A 
ATOM      5  C   UNL     1       1.893   7.824  20.062  0.00  0.00    +0.000 A 
ATOM      6  C   UNL     1       1.067   8.833  20.592  0.00  0.00    +0.000 A 
ENDROOT
BRANCH   1   8
ATOM      7  C   UNL     1      -1.113  11.691  19.144  0.00  0.00    +0.000 C 
ATOM      8  C   UNL     1      -0.487  10.860  20.287  0.00  0.00    +0.000 C 
ATOM      9  C   UNL     1      -0.074  11.933  21.356  0.00  0.00    +0.000 C 
ATOM     10  C   UNL     1       0.766  13.106  20.788  0.00  0.00    +0.000 C 
ATOM     11  C   UNL     1       0.060  14.407  20.371  0.00  0.00    +0.000 C 
ATOM     12  C   UNL     1      -0.534  14.137  18.986  0.00  0.00    +0.000 C 
ATOM     13  C   UNL     1      -0.022  12.737  18.637  0.00  0.00    +0.000 C 
ATOM     14  N   UNL     1       1.211  12.628  19.489  0.00  0.00    +0.000 NA
ATOM     15  C   UNL     1       2.459  13.230  19.060  0.00  0.00    +0.000 C 
BRANCH   7  16
ATOM     16  C   UNL     1      -1.843  10.809  18.124  0.00  0.00    +0.000 C 
ATOM     17  O   UNL     1      -2.312   9.702  18.345  0.00  0.00    +0.000 OA
BRANCH  16  19
ATOM     18  C   UNL     1      -2.724  10.951  15.895  0.00  0.00    +0.000 C 
ATOM     19  O   UNL     1      -1.818  11.418  16.897  0.00  0.00    +0.000 OA
ENDBRANCH  16  19
ENDBRANCH   7  16
ENDBRANCH   1   8
BRANCH   4  20
ATOM     20  C   UNL     1       2.994   6.786  18.097  0.00  0.00    +0.000 C 
ATOM     21  C   UNL     1       3.633   5.861  17.712  0.00  0.00    +0.000 C 
BRANCH  21  22
ATOM     22  C   UNL     1       4.336   4.687  17.196  0.00  0.00    +0.000 C 
BRANCH  22  23
ATOM     23  C   UNL     1       3.339   3.533  17.168  0.00  0.00    +0.000 C 
BRANCH  23  24
ATOM     24  C   UNL     1       2.706   3.321  18.504  0.00  0.00    +0.000 A 
ATOM     25  C   UNL     1       1.330   3.500  18.674  0.00  0.00    +0.000 A 
ATOM     26  C   UNL     1       0.745   3.318  19.922  0.00  0.00    +0.000 A 
ATOM     27  C   UNL     1       1.543   2.961  21.014  0.00  0.00    +0.000 A 
ATOM     28  C   UNL     1       2.912   2.792  20.855  0.00  0.00    +0.000 A 
ATOM     29  C   UNL     1       3.502   2.973  19.605  0.00  0.00    +0.000 A 
ENDBRANCH  23  24
ENDBRANCH  22  23
ENDBRANCH  21  22
ENDBRANCH   4  20
TORSDOF 7
ENDMDL
MODEL 2
REMARK VINA RESULT:      -8.1      0.467      1.006
REMARK  Name = 
REMARK  9 active torsions:
REMARK  status: ('A' for Active; 'I' for Inactive)
REMARK    1  A    between atoms: C_1  and  O_2
REMARK    2  A    between atoms: O_2  and  C_3
REMARK    3  A    between atoms: C_3  and  C_5
REMARK    4  A    between atoms: C_6  and  C_7
REMARK    5  A    between atoms: C_10  and  C_11
REMARK    6  A    between atoms: C_12  and  C_13
REMARK    7  A    between atoms: C_13  and  C_14
REMARK    8  A    between atoms: C_14  and  C_15
REMARK    9  A    between atoms: N_28  and  C_29
REMARK                            x       y       z     vdW  Elec       q    Type
REMARK                         _______ _______ _______ _____ _____    ______ ____
ROOT
ATOM      1  C   UNL     1       0.442   9.819  19.527  0.00  0.00    +0.000 A 
ATOM      2  C   UNL     1       1.013   8.804  20.332  0.00  0.00    +0.000 A 
ATOM      3  C   UNL     1       1.889   7.851  19.837  0.00  0.00    +0.000 A 
ATOM      4  C   UNL     1       2.226   7.883  18.500  0.00  0.00    +0.000 A 
ATOM      5  C   UNL     1       1.644   8.826  17.655  0.00  0.00    +0.000 A 
ATOM      6  C   UNL     1       0.753   9.791  18.164  0.00  0.00    +0.000 A 
ENDROOT
BRANCH   1   8
ATOM      7  C   UNL     1      -1.049  11.861  19.057  0.00  0.00    +0.000 C 
ATOM      8  C   UNL     1      -0.391  10.976  20.139  0.00  0.00    +0.000 C 
ATOM      9  C   UNL     1       0.296  12.005  21.107  0.00  0.00    +0.000 C 
ATOM     10  C   UNL     1       1.199  13.043  20.393  0.00  0.00    +0.000 C 
ATOM     11  C   UNL     1       0.618  14.419  20.023  0.00  0.00    +0.000 C 
ATOM     12  C   UNL     1      -0.183  14.204  18.737  0.00  0.00    +0.000 C 
ATOM     13  C   UNL     1       0.092  12.742  18.375  0.00  0.00    +0.000 C 
ATOM     14  N   UNL     1       1.401  12.485  19.065  0.00  0.00    +0.000 NA
ATOM     15  C   UNL     1       2.649  12.907  18.458  0.00  0.00    +0.000 C 
BRANCH   7  16
ATOM     16  C   UNL     1      -2.017  11.064  18.172  0.00  0.00    +0.000 C 
ATOM     17  O   UNL     1      -2.652  10.080  18.518  0.00  0.00    +0.000 OA
BRANCH  16  19
ATOM     18  C   UNL     1      -2.698  10.868  15.879  0.00  0.00    +0.000 C 
ATOM     19  O   UNL     1      -1.996  11.577  16.902  0.00  0.00    +0.000 OA
ENDBRANCH  16  19
ENDBRANCH   7  16
ENDBRANCH   1   8
BRANCH   4  20
ATOM     20  C   UNL     1       3.189   6.930  18.060  0.00  0.00    +0.000 C 
ATOM     21  C   UNL     1       4.010   6.102  17.829  0.00  0.00    +0.000 C 
BRANCH  21  22
ATOM     22  C   UNL     1       4.945   5.021  17.518  0.00  0.00    +0.000 C 
BRANCH  22  23
ATOM     23  C   UNL     1       4.119   3.776  17.214  0.00  0.00    +0.000 C 
BRANCH  23  24
ATOM     24  C   UNL     1       3.199   3.438  18.341  0.00  0.00    +0.000 A 
ATOM     25  C   UNL     1       1.814   3.431  18.149  0.00  0.00    +0.000 A 
ATOM     26  C   UNL     1       0.959   3.131  19.203  0.00  0.00    +0.000 A 
ATOM     27  C   UNL     1       1.492   2.843  20.464  0.00  0.00    +0.000 A 
ATOM     28  C   UNL     1       2.866   2.857  20.664  0.00  0.00    +0.000 A 
ATOM     29  C   UNL     1       3.726   3.156  19.610  0.00  0.00    +0.000 A 
ENDBRANCH  23  24
ENDBRANCH  22  23
ENDBRANCH  21  22
ENDBRANCH   4  20
TORSDOF 7
ENDMDL
MODEL 3
REMARK VINA RESULT:      -8.1      5.766      9.672
REMARK  Name = 
REMARK  9 active torsions:
REMARK  status: ('A' for Active; 'I' for Inactive)
REMARK    1  A    between atoms: C_1  and  O_2
REMARK    2  A    between atoms: O_2  and  C_3
REMARK    3  A    between atoms: C_3  and  C_5
REMARK    4  A    between atoms: C_6  and  C_7
REMARK    5  A    between atoms: C_10  and  C_11
REMARK    6  A    between atoms: C_12  and  C_13
REMARK    7  A    between atoms: C_13  and  C_14
REMARK    8  A    between atoms: C_14  and  C_15
REMARK    9  A    between atoms: N_28  and  C_29
REMARK                            x       y       z     vdW  Elec       q    Type
REMARK                         _______ _______ _______ _____ _____    ______ ____
ROOT
ATOM      1  C   UNL     1       6.456   5.760  18.089  0.00  0.00    +0.000 A 
ATOM      2  C   UNL     1       6.086   6.890  17.320  0.00  0.00    +0.000 A 
ATOM      3  C   UNL     1       6.801   8.077  17.333  0.00  0.00    +0.000 A 
ATOM      4  C   UNL     1       7.925   8.173  18.127  0.00  0.00    +0.000 A 
ATOM      5  C   UNL     1       8.294   7.108  18.946  0.00  0.00    +0.000 A 
ATOM      6  C   UNL     1       7.563   5.905  18.931  0.00  0.00    +0.000 A 
ENDROOT
BRANCH   1   8
ATOM      7  C   UNL     1       4.655   4.427  16.827  0.00  0.00    +0.000 C 
ATOM      8  C   UNL     1       5.745   4.390  17.921  0.00  0.00    +0.000 C 
ATOM      9  C   UNL     1       5.028   3.727  19.151  0.00  0.00    +0.000 C 
ATOM     10  C   UNL     1       3.670   4.377  19.522  0.00  0.00    +0.000 C 
ATOM     11  C   UNL     1       2.369   3.771  18.971  0.00  0.00    +0.000 C 
ATOM     12  C   UNL     1       2.242   4.282  17.534  0.00  0.00    +0.000 C 
ATOM     13  C   UNL     1       3.415   5.256  17.389  0.00  0.00    +0.000 C 
ATOM     14  N   UNL     1       3.680   5.648  18.815  0.00  0.00    +0.000 NA
ATOM     15  C   UNL     1       2.871   6.663  19.463  0.00  0.00    +0.000 C 
BRANCH   7  16
ATOM     16  C   UNL     1       5.234   4.776  15.450  0.00  0.00    +0.000 C 
ATOM     17  O   UNL     1       5.070   5.830  14.854  0.00  0.00    +0.000 OA
BRANCH  16  19
ATOM     18  C   UNL     1       6.496   3.802  13.655  0.00  0.00    +0.000 C 
ATOM     19  O   UNL     1       5.899   3.688  14.948  0.00  0.00    +0.000 OA
ENDBRANCH  16  19
ENDBRANCH   7  16
ENDBRANCH   1   8
BRANCH   4  20
ATOM     20  C   UNL     1       8.666   9.387  18.043  0.00  0.00    +0.000 C 
ATOM     21  C   UNL     1       9.249  10.420  18.107  0.00  0.00    +0.000 C 
BRANCH  21  22
ATOM     22  C   UNL     1      10.053  11.639  18.196  0.00  0.00    +0.000 C 
BRANCH  22  23
ATOM     23  C   UNL     1      10.866  11.559  19.483  0.00  0.00    +0.000 C 
BRANCH  23  24
ATOM     24  C   UNL     1      10.246  12.367  20.576  0.00  0.00    +0.000 A 
ATOM     25  C   UNL     1       9.280  11.803  21.415  0.00  0.00    +0.000 A 
ATOM     26  C   UNL     1       8.692  12.561  22.421  0.00  0.00    +0.000 A 
ATOM     27  C   UNL     1       9.067  13.898  22.586  0.00  0.00    +0.000 A 
ATOM     28  C   UNL     1      10.018  14.468  21.751  0.00  0.00    +0.000 A 
ATOM     29  C   UNL     1      10.610  13.711  20.742  0.00  0.00    +0.000 A 
ENDBRANCH  23  24
ENDBRANCH  22  23
ENDBRANCH  21  22
ENDBRANCH   4  20
TORSDOF 7
ENDMDL
MODEL 4
REMARK VINA RESULT:      -8.0      0.728      1.538
REMARK  Name = 
REMARK  9 active torsions:
REMARK  status: ('A' for Active; 'I' for Inactive)
REMARK    1  A    between atoms: C_1  and  O_2
REMARK    2  A    between atoms: O_2  and  C_3
REMARK    3  A    between atoms: C_3  and  C_5
REMARK    4  A    between atoms: C_6  and  C_7
REMARK    5  A    between atoms: C_10  and  C_11
REMARK    6  A    between atoms: C_12  and  C_13
REMARK    7  A    between atoms: C_13  and  C_14
REMARK    8  A    between atoms: C_14  and  C_15
REMARK    9  A    between atoms: N_28  and  C_29
REMARK                            x       y       z     vdW  Elec       q    Type
REMARK                         _______ _______ _______ _____ _____    ______ ____
ROOT
ATOM      1  C   UNL     1       0.376   9.834  19.536  0.00  0.00    +0.000 A 
ATOM      2  C   UNL     1       1.031   8.865  20.334  0.00  0.00    +0.000 A 
ATOM      3  C   UNL     1       1.940   7.954  19.821  0.00  0.00    +0.000 A 
ATOM      4  C   UNL     1       2.228   7.984  18.472  0.00  0.00    +0.000 A 
ATOM      5  C   UNL     1       1.565   8.881  17.636  0.00  0.00    +0.000 A 
ATOM      6  C   UNL     1       0.641   9.803  18.163  0.00  0.00    +0.000 A 
ENDROOT
BRANCH   1   8
ATOM      7  C   UNL     1      -1.146  11.859  19.091  0.00  0.00    +0.000 C 
ATOM      8  C   UNL     1      -0.498  10.953  20.162  0.00  0.00    +0.000 C 
ATOM      9  C   UNL     1       0.140  11.964  21.181  0.00  0.00    +0.000 C 
ATOM     10  C   UNL     1       1.039  13.044  20.526  0.00  0.00    +0.000 C 
ATOM     11  C   UNL     1       0.439  14.418  20.185  0.00  0.00    +0.000 C 
ATOM     12  C   UNL     1      -0.323  14.229  18.871  0.00  0.00    +0.000 C 
ATOM     13  C   UNL     1      -0.007  12.785  18.470  0.00  0.00    +0.000 C 
ATOM     14  N   UNL     1       1.289  12.534  19.187  0.00  0.00    +0.000 NA
ATOM     15  C   UNL     1       2.543  13.001  18.629  0.00  0.00    +0.000 C 
BRANCH   7  16
ATOM     16  C   UNL     1      -2.072  11.072  18.155  0.00  0.00    +0.000 C 
ATOM     17  O   UNL     1      -2.747  10.103  18.470  0.00  0.00    +0.000 OA
BRANCH  16  19
ATOM     18  C   UNL     1      -2.782  10.998  15.863  0.00  0.00    +0.000 C 
ATOM     19  O   UNL     1      -1.962  11.571  16.884  0.00  0.00    +0.000 OA
ENDBRANCH  16  19
ENDBRANCH   7  16
ENDBRANCH   1   8
BRANCH   4  20
ATOM     20  C   UNL     1       3.227   7.079  18.011  0.00  0.00    +0.000 C 
ATOM     21  C   UNL     1       4.136   6.437  17.595  0.00  0.00    +0.000 C 
BRANCH  21  22
ATOM     22  C   UNL     1       5.283   5.630  17.180  0.00  0.00    +0.000 C 
BRANCH  22  23
ATOM     23  C   UNL     1       4.742   4.314  16.632  0.00  0.00    +0.000 C 
BRANCH  23  24
ATOM     24  C   UNL     1       3.882   3.614  17.634  0.00  0.00    +0.000 A 
ATOM     25  C   UNL     1       4.399   3.243  18.879  0.00  0.00    +0.000 A 
ATOM     26  C   UNL     1       3.602   2.578  19.803  0.00  0.00    +0.000 A 
ATOM     27  C   UNL     1       2.276   2.274  19.478  0.00  0.00    +0.000 A 
ATOM     28  C   UNL     1       1.758   2.630  18.241  0.00  0.00    +0.000 A 
ATOM     29  C   UNL     1       2.554   3.297  17.312  0.00  0.00    +0.000 A 
ENDBRANCH  23  24
ENDBRANCH  22  23
ENDBRANCH  21  22
ENDBRANCH   4  20
TORSDOF 7
ENDMDL
MODEL 5
REMARK VINA RESULT:      -7.9      3.476      8.737
REMARK  Name = 
REMARK  9 active torsions:
REMARK  status: ('A' for Active; 'I' for Inactive)
REMARK    1  A    between atoms: C_1  and  O_2
REMARK    2  A    between atoms: O_2  and  C_3
REMARK    3  A    between atoms: C_3  and  C_5
REMARK    4  A    between atoms: C_6  and  C_7
REMARK    5  A    between atoms: C_10  and  C_11
REMARK    6  A    between atoms: C_12  and  C_13
REMARK    7  A    between atoms: C_13  and  C_14
REMARK    8  A    between atoms: C_14  and  C_15
REMARK    9  A    between atoms: N_28  and  C_29
REMARK                            x       y       z     vdW  Elec       q    Type
REMARK                         _______ _______ _______ _____ _____    ______ ____
ROOT
ATOM      1  C   UNL     1       3.519   6.082  17.853  0.00  0.00    +0.000 A 
ATOM      2  C   UNL     1       2.931   5.890  19.127  0.00  0.00    +0.000 A 
ATOM      3  C   UNL     1       2.202   6.873  19.777  0.00  0.00    +0.000 A 
ATOM      4  C   UNL     1       2.037   8.099  19.165  0.00  0.00    +0.000 A 
ATOM      5  C   UNL     1       2.646   8.354  17.938  0.00  0.00    +0.000 A 
ATOM      6  C   UNL     1       3.387   7.352  17.283  0.00  0.00    +0.000 A 
ENDROOT
BRANCH   1   8
ATOM      7  C   UNL     1       5.193   4.132  17.932  0.00  0.00    +0.000 C 
ATOM      8  C   UNL     1       4.174   4.912  17.071  0.00  0.00    +0.000 C 
ATOM      9  C   UNL     1       4.946   5.201  15.735  0.00  0.00    +0.000 C 
ATOM     10  C   UNL     1       6.344   5.840  15.934  0.00  0.00    +0.000 C 
ATOM     11  C   UNL     1       7.588   4.937  15.965  0.00  0.00    +0.000 C 
ATOM     12  C   UNL     1       7.640   4.340  17.373  0.00  0.00    +0.000 C 
ATOM     13  C   UNL     1       6.491   5.039  18.107  0.00  0.00    +0.000 C 
ATOM     14  N   UNL     1       6.330   6.304  17.313  0.00  0.00    +0.000 NA
ATOM     15  C   UNL     1       7.210   7.434  17.540  0.00  0.00    +0.000 C 
BRANCH   7  16
ATOM     16  C   UNL     1       4.539   3.502  19.169  0.00  0.00    +0.000 C 
ATOM     17  O   UNL     1       4.994   3.523  20.303  0.00  0.00    +0.000 OA
BRANCH  16  19
ATOM     18  C   UNL     1       3.519   1.461  18.425  0.00  0.00    +0.000 C 
ATOM     19  O   UNL     1       3.403   2.837  18.792  0.00  0.00    +0.000 OA
ENDBRANCH  16  19
ENDBRANCH   7  16
ENDBRANCH   1   8
BRANCH   4  20
ATOM     20  C   UNL     1       1.215   9.046  19.841  0.00  0.00    +0.000 C 
ATOM     21  C   UNL     1       0.441   9.823  20.298  0.00  0.00    +0.000 C 
BRANCH  21  22
ATOM     22  C   UNL     1      -0.545  10.706  20.922  0.00  0.00    +0.000 C 
BRANCH  22  23
ATOM     23  C   UNL     1      -0.847  11.825  19.932  0.00  0.00    +0.000 C 
BRANCH  23  24
ATOM     24  C   UNL     1      -1.867  11.407  18.924  0.00  0.00    +0.000 A 
ATOM     25  C   UNL     1      -3.186  11.863  19.018  0.00  0.00    +0.000 A 
ATOM     26  C   UNL     1      -4.138  11.460  18.089  0.00  0.00    +0.000 A 
ATOM     27  C   UNL     1      -3.772  10.588  17.059  0.00  0.00    +0.000 A 
ATOM     28  C   UNL     1      -2.466  10.123  16.965  0.00  0.00    +0.000 A 
ATOM     29  C   UNL     1      -1.510  10.525  17.895  0.00  0.00    +0.000 A 
ENDBRANCH  23  24
ENDBRANCH  22  23
ENDBRANCH  21  22
ENDBRANCH   4  20
TORSDOF 7
ENDMDL
MODEL 6
REMARK VINA RESULT:      -7.9      0.864      1.372
REMARK  Name = 
REMARK  9 active torsions:
REMARK  status: ('A' for Active; 'I' for Inactive)
REMARK    1  A    between atoms: C_1  and  O_2
REMARK    2  A    between atoms: O_2  and  C_3
REMARK    3  A    between atoms: C_3  and  C_5
REMARK    4  A    between atoms: C_6  and  C_7
REMARK    5  A    between atoms: C_10  and  C_11
REMARK    6  A    between atoms: C_12  and  C_13
REMARK    7  A    between atoms: C_13  and  C_14
REMARK    8  A    between atoms: C_14  and  C_15
REMARK    9  A    between atoms: N_28  and  C_29
REMARK                            x       y       z     vdW  Elec       q    Type
REMARK                         _______ _______ _______ _____ _____    ______ ____
ROOT
ATOM      1  C   UNL     1       0.066  10.252  19.990  0.00  0.00    +0.000 A 
ATOM      2  C   UNL     1       0.408  10.157  18.619  0.00  0.00    +0.000 A 
ATOM      3  C   UNL     1       1.264   9.188  18.120  0.00  0.00    +0.000 A 
ATOM      4  C   UNL     1       1.814   8.269  18.990  0.00  0.00    +0.000 A 
ATOM      5  C   UNL     1       1.554   8.358  20.356  0.00  0.00    +0.000 A 
ATOM      6  C   UNL     1       0.685   9.346  20.857  0.00  0.00    +0.000 A 
ENDROOT
BRANCH   1   8
ATOM      7  C   UNL     1      -1.383  12.303  19.439  0.00  0.00    +0.000 C 
ATOM      8  C   UNL     1      -1.029  11.229  20.492  0.00  0.00    +0.000 C 
ATOM      9  C   UNL     1      -0.797  12.051  21.811  0.00  0.00    +0.000 C 
ATOM     10  C   UNL     1       0.183  13.242  21.653  0.00  0.00    +0.000 C 
ATOM     11  C   UNL     1      -0.377  14.647  21.376  0.00  0.00    +0.000 C 
ATOM     12  C   UNL     1      -0.693  14.685  19.879  0.00  0.00    +0.000 C 
ATOM     13  C   UNL     1      -0.175  13.340  19.362  0.00  0.00    +0.000 C 
ATOM     14  N   UNL     1       0.859  12.982  20.392  0.00  0.00    +0.000 NA
ATOM     15  C   UNL     1       2.189  13.557  20.333  0.00  0.00    +0.000 C 
BRANCH   7  16
ATOM     16  C   UNL     1      -1.929  11.683  18.146  0.00  0.00    +0.000 C 
ATOM     17  O   UNL     1      -1.565  11.962  17.014  0.00  0.00    +0.000 OA
BRANCH  16  19
ATOM     18  C   UNL     1      -3.176   9.711  17.584  0.00  0.00    +0.000 C 
ATOM     19  O   UNL     1      -2.951  10.824  18.452  0.00  0.00    +0.000 OA
ENDBRANCH  16  19
ENDBRANCH   7  16
ENDBRANCH   1   8
BRANCH   4  20
ATOM     20  C   UNL     1       2.624   7.248  18.413  0.00  0.00    +0.000 C 
ATOM     21  C   UNL     1       3.210   6.306  17.989  0.00  0.00    +0.000 C 
BRANCH  21  22
ATOM     22  C   UNL     1       3.887   5.164  17.376  0.00  0.00    +0.000 C 
BRANCH  22  23
ATOM     23  C   UNL     1       2.916   3.989  17.399  0.00  0.00    +0.000 C 
BRANCH  23  24
ATOM     24  C   UNL     1       2.554   3.603  18.797  0.00  0.00    +0.000 A 
ATOM     25  C   UNL     1       3.511   3.045  19.650  0.00  0.00    +0.000 A 
ATOM     26  C   UNL     1       3.169   2.671  20.944  0.00  0.00    +0.000 A 
ATOM     27  C   UNL     1       1.855   2.850  21.389  0.00  0.00    +0.000 A 
ATOM     28  C   UNL     1       0.897   3.395  20.545  0.00  0.00    +0.000 A 
ATOM     29  C   UNL     1       1.237   3.771  19.247  0.00  0.00    +0.000 A 
ENDBRANCH  23  24
ENDBRANCH  22  23
ENDBRANCH  21  22
ENDBRANCH   4  20
TORSDOF 7
ENDMDL
MODEL 7
REMARK VINA RESULT:      -7.9      3.724      9.011
REMARK  Name = 
REMARK  9 active torsions:
REMARK  status: ('A' for Active; 'I' for Inactive)
REMARK    1  A    between atoms: C_1  and  O_2
REMARK    2  A    between atoms: O_2  and  C_3
REMARK    3  A    between atoms: C_3  and  C_5
REMARK    4  A    between atoms: C_6  and  C_7
REMARK    5  A    between atoms: C_10  and  C_11
REMARK    6  A    between atoms: C_12  and  C_13
REMARK    7  A    between atoms: C_13  and  C_14
REMARK    8  A    between atoms: C_14  and  C_15
REMARK    9  A    between atoms: N_28  and  C_29
REMARK                            x       y       z     vdW  Elec       q    Type
REMARK                         _______ _______ _______ _____ _____    ______ ____
ROOT
ATOM      1  C   UNL     1       3.408   5.885  18.131  0.00  0.00    +0.000 A 
ATOM      2  C   UNL     1       3.099   5.446  19.441  0.00  0.00    +0.000 A 
ATOM      3  C   UNL     1       2.410   6.227  20.355  0.00  0.00    +0.000 A 
ATOM      4  C   UNL     1       2.002   7.491  19.982  0.00  0.00    +0.000 A 
ATOM      5  C   UNL     1       2.334   7.989  18.724  0.00  0.00    +0.000 A 
ATOM      6  C   UNL     1       3.036   7.192  17.800  0.00  0.00    +0.000 A 
ENDROOT
BRANCH   1   8
ATOM      7  C   UNL     1       5.068   3.973  17.684  0.00  0.00    +0.000 C 
ATOM      8  C   UNL     1       4.020   4.929  17.072  0.00  0.00    +0.000 C 
ATOM      9  C   UNL     1       4.737   5.521  15.807  0.00  0.00    +0.000 C 
ATOM     10  C   UNL     1       6.147   6.099  16.089  0.00  0.00    +0.000 C 
ATOM     11  C   UNL     1       7.384   5.216  15.856  0.00  0.00    +0.000 C 
ATOM     12  C   UNL     1       7.490   4.310  17.085  0.00  0.00    +0.000 C 
ATOM     13  C   UNL     1       6.380   4.817  18.009  0.00  0.00    +0.000 C 
ATOM     14  N   UNL     1       6.195   6.231  17.536  0.00  0.00    +0.000 NA
ATOM     15  C   UNL     1       7.093   7.280  17.980  0.00  0.00    +0.000 C 
BRANCH   7  16
ATOM     16  C   UNL     1       4.462   3.073  18.769  0.00  0.00    +0.000 C 
ATOM     17  O   UNL     1       4.889   2.941  19.906  0.00  0.00    +0.000 OA
BRANCH  16  19
ATOM     18  C   UNL     1       2.344   1.998  19.115  0.00  0.00    +0.000 C 
ATOM     19  O   UNL     1       3.411   2.370  18.240  0.00  0.00    +0.000 OA
ENDBRANCH  16  19
ENDBRANCH   7  16
ENDBRANCH   1   8
BRANCH   4  20
ATOM     20  C   UNL     1       1.230   8.221  20.933  0.00  0.00    +0.000 C 
ATOM     21  C   UNL     1       0.669   8.938  21.696  0.00  0.00    +0.000 C 
BRANCH  21  22
ATOM     22  C   UNL     1      -0.094   9.832  22.565  0.00  0.00    +0.000 C 
BRANCH  22  23
ATOM     23  C   UNL     1      -0.149  11.196  21.885  0.00  0.00    +0.000 C 
BRANCH  23  24
ATOM     24  C   UNL     1      -1.498  11.823  22.020  0.00  0.00    +0.000 A 
ATOM     25  C   UNL     1      -2.171  11.803  23.246  0.00  0.00    +0.000 A 
ATOM     26  C   UNL     1      -3.433  12.373  23.365  0.00  0.00    +0.000 A 
ATOM     27  C   UNL     1      -4.033  12.964  22.249  0.00  0.00    +0.000 A 
ATOM     28  C   UNL     1      -3.374  12.980  21.026  0.00  0.00    +0.000 A 
ATOM     29  C   UNL     1      -2.109  12.409  20.902  0.00  0.00    +0.000 A 
ENDBRANCH  23  24
ENDBRANCH  22  23
ENDBRANCH  21  22
ENDBRANCH   4  20
TORSDOF 7
ENDMDL
MODEL 8
REMARK VINA RESULT:      -7.9      1.701      3.063
REMARK  Name = 
REMARK  9 active torsions:
REMARK  status: ('A' for Active; 'I' for Inactive)
REMARK    1  A    between atoms: C_1  and  O_2
REMARK    2  A    between atoms: O_2  and  C_3
REMARK    3  A    between atoms: C_3  and  C_5
REMARK    4  A    between atoms: C_6  and  C_7
REMARK    5  A    between atoms: C_10  and  C_11
REMARK    6  A    between atoms: C_12  and  C_13
REMARK    7  A    between atoms: C_13  and  C_14
REMARK    8  A    between atoms: C_14  and  C_15
REMARK    9  A    between atoms: N_28  and  C_29
REMARK                            x       y       z     vdW  Elec       q    Type
REMARK                         _______ _______ _______ _____ _____    ______ ____
ROOT
ATOM      1  C   UNL     1       0.655   9.990  19.825  0.00  0.00    +0.000 A 
ATOM      2  C   UNL     1       1.013   9.916  18.457  0.00  0.00    +0.000 A 
ATOM      3  C   UNL     1       1.732   8.859  17.921  0.00  0.00    +0.000 A 
ATOM      4  C   UNL     1       2.123   7.827  18.750  0.00  0.00    +0.000 A 
ATOM      5  C   UNL     1       1.845   7.884  20.114  0.00  0.00    +0.000 A 
ATOM      6  C   UNL     1       1.115   8.961  20.653  0.00  0.00    +0.000 A 
ENDROOT
BRANCH   1   8
ATOM      7  C   UNL     1      -0.981  11.879  19.220  0.00  0.00    +0.000 C 
ATOM      8  C   UNL     1      -0.300  11.090  20.361  0.00  0.00    +0.000 C 
ATOM      9  C   UNL     1       0.253  12.204  21.319  0.00  0.00    +0.000 C 
ATOM     10  C   UNL     1       1.095  13.293  20.607  0.00  0.00    +0.000 C 
ATOM     11  C   UNL     1       0.418  14.601  20.164  0.00  0.00    +0.000 C 
ATOM     12  C   UNL     1      -0.304  14.277  18.854  0.00  0.00    +0.000 C 
ATOM     13  C   UNL     1       0.110  12.833  18.557  0.00  0.00    +0.000 C 
ATOM     14  N   UNL     1       1.404  12.713  19.310  0.00  0.00    +0.000 NA
ATOM     15  C   UNL     1       2.638  13.221  18.741  0.00  0.00    +0.000 C 
BRANCH   7  16
ATOM     16  C   UNL     1      -1.837  10.974  18.325  0.00  0.00    +0.000 C 
ATOM     17  O   UNL     1      -2.175   9.829  18.585  0.00  0.00    +0.000 OA
BRANCH  16  19
ATOM     18  C   UNL     1      -2.554  10.839  16.038  0.00  0.00    +0.000 C 
ATOM     19  O   UNL     1      -2.096  11.619  17.145  0.00  0.00    +0.000 OA
ENDBRANCH  16  19
ENDBRANCH   7  16
ENDBRANCH   1   8
BRANCH   4  20
ATOM     20  C   UNL     1       2.791   6.730  18.134  0.00  0.00    +0.000 C 
ATOM     21  C   UNL     1       3.383   5.774  17.749  0.00  0.00    +0.000 C 
BRANCH  21  22
ATOM     22  C   UNL     1       4.022   4.552  17.264  0.00  0.00    +0.000 C 
BRANCH  22  23
ATOM     23  C   UNL     1       5.205   4.967  16.397  0.00  0.00    +0.000 C 
BRANCH  23  24
ATOM     24  C   UNL     1       6.250   5.674  17.196  0.00  0.00    +0.000 A 
ATOM     25  C   UNL     1       6.847   5.050  18.296  0.00  0.00    +0.000 A 
ATOM     26  C   UNL     1       7.807   5.715  19.048  0.00  0.00    +0.000 A 
ATOM     27  C   UNL     1       8.172   7.021  18.703  0.00  0.00    +0.000 A 
ATOM     28  C   UNL     1       7.578   7.651  17.618  0.00  0.00    +0.000 A 
ATOM     29  C   UNL     1       6.614   6.987  16.861  0.00  0.00    +0.000 A 
ENDBRANCH  23  24
ENDBRANCH  22  23
ENDBRANCH  21  22
ENDBRANCH   4  20
TORSDOF 7
ENDMDL
MODEL 9
REMARK VINA RESULT:      -7.8      6.014     10.001
REMARK  Name = 
REMARK  9 active torsions:
REMARK  status: ('A' for Active; 'I' for Inactive)
REMARK    1  A    between atoms: C_1  and  O_2
REMARK    2  A    between atoms: O_2  and  C_3
REMARK    3  A    between atoms: C_3  and  C_5
REMARK    4  A    between atoms: C_6  and  C_7
REMARK    5  A    between atoms: C_10  and  C_11
REMARK    6  A    between atoms: C_12  and  C_13
REMARK    7  A    between atoms: C_13  and  C_14
REMARK    8  A    between atoms: C_14  and  C_15
REMARK    9  A    between atoms: N_28  and  C_29
REMARK                            x       y       z     vdW  Elec       q    Type
REMARK                         _______ _______ _______ _____ _____    ______ ____
ROOT
ATOM      1  C   UNL     1       6.784   5.704  18.273  0.00  0.00    +0.000 A 
ATOM      2  C   UNL     1       6.443   6.758  17.391  0.00  0.00    +0.000 A 
ATOM      3  C   UNL     1       7.085   7.986  17.399  0.00  0.00    +0.000 A 
ATOM      4  C   UNL     1       8.105   8.202  18.303  0.00  0.00    +0.000 A 
ATOM      5  C   UNL     1       8.438   7.215  19.229  0.00  0.00    +0.000 A 
ATOM      6  C   UNL     1       7.780   5.970  19.217  0.00  0.00    +0.000 A 
ENDROOT
BRANCH   1   8
ATOM      7  C   UNL     1       5.396   4.119  16.799  0.00  0.00    +0.000 C 
ATOM      8  C   UNL     1       6.174   4.285  18.124  0.00  0.00    +0.000 C 
ATOM      9  C   UNL     1       5.185   3.742  19.216  0.00  0.00    +0.000 C 
ATOM     10  C   UNL     1       3.762   4.353  19.146  0.00  0.00    +0.000 C 
ATOM     11  C   UNL     1       2.658   3.607  18.379  0.00  0.00    +0.000 C 
ATOM     12  C   UNL     1       2.888   3.923  16.899  0.00  0.00    +0.000 C 
ATOM     13  C   UNL     1       4.034   4.938  16.917  0.00  0.00    +0.000 C 
ATOM     14  N   UNL     1       3.919   5.523  18.296  0.00  0.00    +0.000 NA
ATOM     15  C   UNL     1       2.948   6.562  18.577  0.00  0.00    +0.000 C 
BRANCH   7  16
ATOM     16  C   UNL     1       6.296   4.324  15.573  0.00  0.00    +0.000 C 
ATOM     17  O   UNL     1       7.511   4.449  15.595  0.00  0.00    +0.000 OA
BRANCH  16  19
ATOM     18  C   UNL     1       5.987   3.818  13.248  0.00  0.00    +0.000 C 
ATOM     19  O   UNL     1       5.518   4.429  14.451  0.00  0.00    +0.000 OA
ENDBRANCH  16  19
ENDBRANCH   7  16
ENDBRANCH   1   8
BRANCH   4  20
ATOM     20  C   UNL     1       8.783   9.452  18.216  0.00  0.00    +0.000 C 
ATOM     21  C   UNL     1       9.386  10.456  18.014  0.00  0.00    +0.000 C 
BRANCH  21  22
ATOM     22  C   UNL     1      10.039  11.737  17.748  0.00  0.00    +0.000 C 
BRANCH  22  23
ATOM     23  C   UNL     1      11.089  11.950  18.833  0.00  0.00    +0.000 C 
BRANCH  23  24
ATOM     24  C   UNL     1      10.522  12.672  20.012  0.00  0.00    +0.000 A 
ATOM     25  C   UNL     1      10.692  14.054  20.147  0.00  0.00    +0.000 A 
ATOM     26  C   UNL     1      10.178  14.721  21.252  0.00  0.00    +0.000 A 
ATOM     27  C   UNL     1       9.493  14.002  22.237  0.00  0.00    +0.000 A 
ATOM     28  C   UNL     1       9.329  12.629  22.114  0.00  0.00    +0.000 A 
ATOM     29  C   UNL     1       9.843  11.956  21.008  0.00  0.00    +0.000 A 
ENDBRANCH  23  24
ENDBRANCH  22  23
ENDBRANCH  21  22
ENDBRANCH   4  20
TORSDOF 7
ENDMDL
