MODEL 1
REMARK VINA RESULT:      -9.0      0.000      0.000
REMARK  Name = 
REMARK  7 active torsions:
REMARK  status: ('A' for Active; 'I' for Inactive)
REMARK    1  A    between atoms: C_2  and  C_3
REMARK    2  A    between atoms: C_3  and  C_4
REMARK    3  A    between atoms: C_4  and  N_5
REMARK    4  A    between atoms: N_8  and  C_9
REMARK    5  A    between atoms: N_22  and  N_23
REMARK    6  A    between atoms: C_24  and  C_25
REMARK    7  A    between atoms: C_29  and  N_30
REMARK                            x       y       z     vdW  Elec       q    Type
REMARK                         _______ _______ _______ _____ _____    ______ ____
ROOT
ATOM      1  C   UNL     1       2.017   2.242  20.109  0.00  0.00    +0.000 C 
ENDROOT
BRANCH   1   2
ATOM      2  N   UNL     1       2.960   1.789  19.070  0.00  0.00    +0.000 NA
ATOM      3  C   UNL     1       2.729   2.515  17.785  0.00  0.00    +0.000 C 
ATOM      4  C   UNL     1       3.202   3.994  17.749  0.00  0.00    +0.000 C 
ATOM      5  N   UNL     1       4.610   4.041  18.170  0.00  0.00    +0.000 N 
ATOM      6  C   UNL     1       4.852   3.449  19.492  0.00  0.00    +0.000 C 
ATOM      7  C   UNL     1       4.375   1.977  19.465  0.00  0.00    +0.000 C 
BRANCH   5   8
ATOM      8  C   UNL     1       5.564   4.824  17.536  0.00  0.00    +0.000 A 
ATOM      9  C   UNL     1       6.243   5.822  18.242  0.00  0.00    +0.000 A 
ATOM     10  C   UNL     1       7.232   6.549  17.602  0.00  0.00    +0.000 A 
ATOM     11  N   UNL     1       7.599   6.354  16.323  0.00  0.00    +0.000 NA
ATOM     12  C   UNL     1       6.939   5.427  15.614  0.00  0.00    +0.000 A 
ATOM     13  C   UNL     1       7.304   5.226  14.289  0.00  0.00    +0.000 A 
ATOM     14  C   UNL     1       6.653   4.291  13.476  0.00  0.00    +0.000 A 
ATOM     15 CL   UNL     1       7.139   4.069  11.848  0.00  0.00    +0.000 Cl
ATOM     16  C   UNL     1       5.593   3.559  13.972  0.00  0.00    +0.000 A 
ATOM     17  C   UNL     1       5.197   3.779  15.280  0.00  0.00    +0.000 A 
ATOM     18  C   UNL     1       5.890   4.654  16.158  0.00  0.00    +0.000 A 
ENDBRANCH   5   8
ENDBRANCH   1   2
BRANCH   1  19
ATOM     19  C   UNL     1       2.545   3.460  20.875  0.00  0.00    +0.000 C 
BRANCH  19  21
ATOM     20  O   UNL     1       0.413   4.499  20.450  0.00  0.00    +0.000 OA
ATOM     21  C   UNL     1       1.594   4.626  20.781  0.00  0.00    +0.000 C 
ATOM     22  N   UNL     1       2.221   5.829  21.072  0.00  0.00    +0.000 N 
ATOM     23  H   UNL     1       3.194   5.854  21.358  0.00  0.00    +0.000 HD
BRANCH  22  24
ATOM     24  N   UNL     1       1.503   6.982  21.023  0.00  0.00    +0.000 NA
ATOM     25  C   UNL     1       1.845   7.829  20.110  0.00  0.00    +0.000 C 
BRANCH  25  26
ATOM     26  C   UNL     1       1.150   9.125  19.972  0.00  0.00    +0.000 A 
ATOM     27  C   UNL     1       1.199   9.826  18.762  0.00  0.00    +0.000 A 
ATOM     28  C   UNL     1       0.546  11.054  18.631  0.00  0.00    +0.000 A 
ATOM     29  C   UNL     1      -0.152  11.591  19.714  0.00  0.00    +0.000 A 
ATOM     30  C   UNL     1      -0.196  10.884  20.925  0.00  0.00    +0.000 A 
ATOM     31  C   UNL     1       0.447   9.645  21.062  0.00  0.00    +0.000 A 
BRANCH  30  32
ATOM     32  N   UNL     1      -0.915  11.457  22.070  0.00  0.00    +0.000 N 
ATOM     33  O   UNL     1      -1.842  12.243  21.838  0.00  0.00    +0.000 OA
ATOM     34  O   UNL     1      -0.542  11.121  23.204  0.00  0.00    +0.000 OA
ENDBRANCH  30  32
ENDBRANCH  25  26
ENDBRANCH  22  24
ENDBRANCH  19  21
ENDBRANCH   1  19
TORSDOF 7
ENDMDL
MODEL 2
REMARK VINA RESULT:      -8.7      1.306      1.697
REMARK  Name = 
REMARK  7 active torsions:
REMARK  status: ('A' for Active; 'I' for Inactive)
REMARK    1  A    between atoms: C_2  and  C_3
REMARK    2  A    between atoms: C_3  and  C_4
REMARK    3  A    between atoms: C_4  and  N_5
REMARK    4  A    between atoms: N_8  and  C_9
REMARK    5  A    between atoms: N_22  and  N_23
REMARK    6  A    between atoms: C_24  and  C_25
REMARK    7  A    between atoms: C_29  and  N_30
REMARK                            x       y       z     vdW  Elec       q    Type
REMARK                         _______ _______ _______ _____ _____    ______ ____
ROOT
ATOM      1  C   UNL     1       1.804   2.671  19.961  0.00  0.00    +0.000 C 
ENDROOT
BRANCH   1   2
ATOM      2  N   UNL     1       2.653   2.170  18.866  0.00  0.00    +0.000 NA
ATOM      3  C   UNL     1       2.458   2.977  17.625  0.00  0.00    +0.000 C 
ATOM      4  C   UNL     1       3.091   4.396  17.635  0.00  0.00    +0.000 C 
ATOM      5  N   UNL     1       4.509   4.269  18.000  0.00  0.00    +0.000 N 
ATOM      6  C   UNL     1       4.731   3.590  19.284  0.00  0.00    +0.000 C 
ATOM      7  C   UNL     1       4.093   2.182  19.211  0.00  0.00    +0.000 C 
BRANCH   5   8
ATOM      8  C   UNL     1       5.521   4.972  17.363  0.00  0.00    +0.000 A 
ATOM      9  C   UNL     1       6.240   5.956  18.050  0.00  0.00    +0.000 A 
ATOM     10  C   UNL     1       7.283   6.602  17.410  0.00  0.00    +0.000 A 
ATOM     11  N   UNL     1       7.668   6.340  16.149  0.00  0.00    +0.000 NA
ATOM     12  C   UNL     1       6.972   5.425  15.456  0.00  0.00    +0.000 A 
ATOM     13  C   UNL     1       7.356   5.156  14.149  0.00  0.00    +0.000 A 
ATOM     14  C   UNL     1       6.671   4.230  13.353  0.00  0.00    +0.000 A 
ATOM     15 CL   UNL     1       7.181   3.920  11.747  0.00  0.00    +0.000 Cl
ATOM     16  C   UNL     1       5.561   3.577  13.848  0.00  0.00    +0.000 A 
ATOM     17  C   UNL     1       5.147   3.867  15.137  0.00  0.00    +0.000 A 
ATOM     18  C   UNL     1       5.868   4.734  16.001  0.00  0.00    +0.000 A 
ENDBRANCH   5   8
ENDBRANCH   1   2
BRANCH   1  19
ATOM     19  C   UNL     1       2.443   3.860  20.689  0.00  0.00    +0.000 C 
BRANCH  19  21
ATOM     20  O   UNL     1       0.364   5.041  20.399  0.00  0.00    +0.000 OA
ATOM     21  C   UNL     1       1.579   5.091  20.600  0.00  0.00    +0.000 C 
ATOM     22  N   UNL     1       2.323   6.255  20.733  0.00  0.00    +0.000 N 
ATOM     23  H   UNL     1       3.320   6.218  20.918  0.00  0.00    +0.000 HD
BRANCH  22  24
ATOM     24  N   UNL     1       1.694   7.458  20.667  0.00  0.00    +0.000 NA
ATOM     25  C   UNL     1       0.980   7.786  21.691  0.00  0.00    +0.000 C 
BRANCH  25  26
ATOM     26  C   UNL     1       0.235   9.061  21.725  0.00  0.00    +0.000 A 
ATOM     27  C   UNL     1      -0.216   9.583  22.944  0.00  0.00    +0.000 A 
ATOM     28  C   UNL     1      -0.924  10.785  22.977  0.00  0.00    +0.000 A 
ATOM     29  C   UNL     1      -1.193  11.469  21.790  0.00  0.00    +0.000 A 
ATOM     30  C   UNL     1      -0.741  10.940  20.572  0.00  0.00    +0.000 A 
ATOM     31  C   UNL     1      -0.019   9.739  20.530  0.00  0.00    +0.000 A 
BRANCH  30  32
ATOM     32  N   UNL     1      -1.040  11.650  19.322  0.00  0.00    +0.000 N 
ATOM     33  O   UNL     1      -2.204  12.024  19.131  0.00  0.00    +0.000 OA
ATOM     34  O   UNL     1      -0.104  11.825  18.528  0.00  0.00    +0.000 OA
ENDBRANCH  30  32
ENDBRANCH  25  26
ENDBRANCH  22  24
ENDBRANCH  19  21
ENDBRANCH   1  19
TORSDOF 7
ENDMDL
MODEL 3
REMARK VINA RESULT:      -8.5      1.603      1.915
REMARK  Name = 
REMARK  7 active torsions:
REMARK  status: ('A' for Active; 'I' for Inactive)
REMARK    1  A    between atoms: C_2  and  C_3
REMARK    2  A    between atoms: C_3  and  C_4
REMARK    3  A    between atoms: C_4  and  N_5
REMARK    4  A    between atoms: N_8  and  C_9
REMARK    5  A    between atoms: N_22  and  N_23
REMARK    6  A    between atoms: C_24  and  C_25
REMARK    7  A    between atoms: C_29  and  N_30
REMARK                            x       y       z     vdW  Elec       q    Type
REMARK                         _______ _______ _______ _____ _____    ______ ____
ROOT
ATOM      1  C   UNL     1       1.714   2.040  19.496  0.00  0.00    +0.000 C 
ENDROOT
BRANCH   1   2
ATOM      2  N   UNL     1       2.738   1.654  18.510  0.00  0.00    +0.000 NA
ATOM      3  C   UNL     1       2.615   2.468  17.263  0.00  0.00    +0.000 C 
ATOM      4  C   UNL     1       3.091   3.943  17.369  0.00  0.00    +0.000 C 
ATOM      5  N   UNL     1       4.459   3.951  17.907  0.00  0.00    +0.000 N 
ATOM      6  C   UNL     1       4.591   3.267  19.200  0.00  0.00    +0.000 C 
ATOM      7  C   UNL     1       4.116   1.804  19.032  0.00  0.00    +0.000 C 
BRANCH   5   8
ATOM      8  C   UNL     1       5.463   4.770  17.410  0.00  0.00    +0.000 A 
ATOM      9  C   UNL     1       6.098   5.698  18.242  0.00  0.00    +0.000 A 
ATOM     10  C   UNL     1       7.136   6.460  17.737  0.00  0.00    +0.000 A 
ATOM     11  N   UNL     1       7.594   6.365  16.476  0.00  0.00    +0.000 NA
ATOM     12  C   UNL     1       6.978   5.507  15.647  0.00  0.00    +0.000 A 
ATOM     13  C   UNL     1       7.437   5.410  14.339  0.00  0.00    +0.000 A 
ATOM     14  C   UNL     1       6.839   4.554  13.408  0.00  0.00    +0.000 A 
ATOM     15 CL   UNL     1       7.440   4.458  11.806  0.00  0.00    +0.000 Cl
ATOM     16  C   UNL     1       5.741   3.799  13.765  0.00  0.00    +0.000 A 
ATOM     17  C   UNL     1       5.252   3.917  15.055  0.00  0.00    +0.000 A 
ATOM     18  C   UNL     1       5.887   4.708  16.049  0.00  0.00    +0.000 A 
ENDBRANCH   5   8
ENDBRANCH   1   2
BRANCH   1  19
ATOM     19  C   UNL     1       2.310   2.258  20.892  0.00  0.00    +0.000 C 
BRANCH  19  21
ATOM     20  O   UNL     1       2.301   4.003  22.552  0.00  0.00    +0.000 OA
ATOM     21  C   UNL     1       2.003   3.638  21.414  0.00  0.00    +0.000 C 
ATOM     22  N   UNL     1       1.325   4.405  20.477  0.00  0.00    +0.000 N 
ATOM     23  H   UNL     1       1.131   4.043  19.549  0.00  0.00    +0.000 HD
BRANCH  22  24
ATOM     24  N   UNL     1       0.963   5.677  20.794  0.00  0.00    +0.000 NA
ATOM     25  C   UNL     1       1.689   6.619  20.290  0.00  0.00    +0.000 C 
BRANCH  25  26
ATOM     26  C   UNL     1       1.404   8.039  20.580  0.00  0.00    +0.000 A 
ATOM     27  C   UNL     1       1.185   8.459  21.898  0.00  0.00    +0.000 A 
ATOM     28  C   UNL     1       0.912   9.800  22.174  0.00  0.00    +0.000 A 
ATOM     29  C   UNL     1       0.847  10.727  21.132  0.00  0.00    +0.000 A 
ATOM     30  C   UNL     1       1.066  10.299  19.814  0.00  0.00    +0.000 A 
ATOM     31  C   UNL     1       1.352   8.956  19.528  0.00  0.00    +0.000 A 
BRANCH  30  32
ATOM     32  N   UNL     1       0.980  11.271  18.716  0.00  0.00    +0.000 N 
ATOM     33  O   UNL     1      -0.134  11.496  18.227  0.00  0.00    +0.000 OA
ATOM     34  O   UNL     1       2.035  11.803  18.341  0.00  0.00    +0.000 OA
ENDBRANCH  30  32
ENDBRANCH  25  26
ENDBRANCH  22  24
ENDBRANCH  19  21
ENDBRANCH   1  19
TORSDOF 7
ENDMDL
MODEL 4
REMARK VINA RESULT:      -8.4      7.143     10.617
REMARK  Name = 
REMARK  7 active torsions:
REMARK  status: ('A' for Active; 'I' for Inactive)
REMARK    1  A    between atoms: C_2  and  C_3
REMARK    2  A    between atoms: C_3  and  C_4
REMARK    3  A    between atoms: C_4  and  N_5
REMARK    4  A    between atoms: N_8  and  C_9
REMARK    5  A    between atoms: N_22  and  N_23
REMARK    6  A    between atoms: C_24  and  C_25
REMARK    7  A    between atoms: C_29  and  N_30
REMARK                            x       y       z     vdW  Elec       q    Type
REMARK                         _______ _______ _______ _____ _____    ______ ____
ROOT
ATOM      1  C   UNL     1       8.666   9.873  18.850  0.00  0.00    +0.000 C 
ENDROOT
BRANCH   1   2
ATOM      2  N   UNL     1       9.972  10.556  18.863  0.00  0.00    +0.000 NA
ATOM      3  C   UNL     1      10.027  11.626  17.823  0.00  0.00    +0.000 C 
ATOM      4  C   UNL     1       9.210  12.911  18.132  0.00  0.00    +0.000 C 
ATOM      5  N   UNL     1       9.604  13.404  19.460  0.00  0.00    +0.000 N 
ATOM      6  C   UNL     1       9.440  12.413  20.531  0.00  0.00    +0.000 C 
ATOM      7  C   UNL     1      10.283  11.164  20.178  0.00  0.00    +0.000 C 
BRANCH   5   8
ATOM      8  C   UNL     1       9.822  14.746  19.736  0.00  0.00    +0.000 A 
ATOM      9  C   UNL     1      11.120  15.265  19.748  0.00  0.00    +0.000 A 
ATOM     10  C   UNL     1      11.306  16.619  19.967  0.00  0.00    +0.000 A 
ATOM     11  N   UNL     1      10.302  17.492  20.167  0.00  0.00    +0.000 NA
ATOM     12  C   UNL     1       9.049  17.013  20.195  0.00  0.00    +0.000 A 
ATOM     13  C   UNL     1       8.007  17.906  20.412  0.00  0.00    +0.000 A 
ATOM     14  C   UNL     1       6.674  17.485  20.474  0.00  0.00    +0.000 A 
ATOM     15 CL   UNL     1       5.417  18.619  20.736  0.00  0.00    +0.000 Cl
ATOM     16  C   UNL     1       6.363  16.146  20.352  0.00  0.00    +0.000 A 
ATOM     17  C   UNL     1       7.397  15.244  20.175  0.00  0.00    +0.000 A 
ATOM     18  C   UNL     1       8.751  15.644  20.019  0.00  0.00    +0.000 A 
ENDBRANCH   5   8
ENDBRANCH   1   2
BRANCH   1  19
ATOM     19  C   UNL     1       8.447   9.069  17.563  0.00  0.00    +0.000 C 
BRANCH  19  21
ATOM     20  O   UNL     1       8.137   6.952  18.669  0.00  0.00    +0.000 OA
ATOM     21  C   UNL     1       7.736   7.770  17.838  0.00  0.00    +0.000 C 
ATOM     22  N   UNL     1       6.622   7.607  17.026  0.00  0.00    +0.000 N 
ATOM     23  H   UNL     1       6.341   8.335  16.378  0.00  0.00    +0.000 HD
BRANCH  22  24
ATOM     24  N   UNL     1       5.873   6.479  17.142  0.00  0.00    +0.000 NA
ATOM     25  C   UNL     1       4.784   6.586  17.828  0.00  0.00    +0.000 C 
BRANCH  25  26
ATOM     26  C   UNL     1       3.898   5.423  18.039  0.00  0.00    +0.000 A 
ATOM     27  C   UNL     1       2.529   5.520  17.765  0.00  0.00    +0.000 A 
ATOM     28  C   UNL     1       1.689   4.424  17.968  0.00  0.00    +0.000 A 
ATOM     29  C   UNL     1       2.214   3.225  18.454  0.00  0.00    +0.000 A 
ATOM     30  C   UNL     1       3.587   3.133  18.728  0.00  0.00    +0.000 A 
ATOM     31  C   UNL     1       4.440   4.227  18.517  0.00  0.00    +0.000 A 
BRANCH  30  32
ATOM     32  N   UNL     1       4.136   1.878  19.256  0.00  0.00    +0.000 N 
ATOM     33  O   UNL     1       4.829   1.934  20.280  0.00  0.00    +0.000 OA
ATOM     34  O   UNL     1       3.874   0.836  18.638  0.00  0.00    +0.000 OA
ENDBRANCH  30  32
ENDBRANCH  25  26
ENDBRANCH  22  24
ENDBRANCH  19  21
ENDBRANCH   1  19
TORSDOF 7
ENDMDL
MODEL 5
REMARK VINA RESULT:      -8.3      7.438     10.633
REMARK  Name = 
REMARK  7 active torsions:
REMARK  status: ('A' for Active; 'I' for Inactive)
REMARK    1  A    between atoms: C_2  and  C_3
REMARK    2  A    between atoms: C_3  and  C_4
REMARK    3  A    between atoms: C_4  and  N_5
REMARK    4  A    between atoms: N_8  and  C_9
REMARK    5  A    between atoms: N_22  and  N_23
REMARK    6  A    between atoms: C_24  and  C_25
REMARK    7  A    between atoms: C_29  and  N_30
REMARK                            x       y       z     vdW  Elec       q    Type
REMARK                         _______ _______ _______ _____ _____    ______ ____
ROOT
ATOM      1  C   UNL     1       8.784   9.966  18.550  0.00  0.00    +0.000 C 
ENDROOT
BRANCH   1   2
ATOM      2  N   UNL     1       9.695  11.003  18.032  0.00  0.00    +0.000 NA
ATOM      3  C   UNL     1       9.005  12.324  17.939  0.00  0.00    +0.000 C 
ATOM      4  C   UNL     1       8.746  13.047  19.290  0.00  0.00    +0.000 C 
ATOM      5  N   UNL     1      10.018  13.133  20.022  0.00  0.00    +0.000 N 
ATOM      6  C   UNL     1      10.662  11.832  20.243  0.00  0.00    +0.000 C 
ATOM      7  C   UNL     1      10.907  11.165  18.868  0.00  0.00    +0.000 C 
BRANCH   5   8
ATOM      8  C   UNL     1      10.427  14.273  20.698  0.00  0.00    +0.000 A 
ATOM      9  C   UNL     1      11.374  15.132  20.131  0.00  0.00    +0.000 A 
ATOM     10  C   UNL     1      11.721  16.293  20.800  0.00  0.00    +0.000 A 
ATOM     11  N   UNL     1      11.194  16.666  21.979  0.00  0.00    +0.000 NA
ATOM     12  C   UNL     1      10.309  15.843  22.561  0.00  0.00    +0.000 A 
ATOM     13  C   UNL     1       9.768  16.215  23.785  0.00  0.00    +0.000 A 
ATOM     14  C   UNL     1       8.853  15.404  24.467  0.00  0.00    +0.000 A 
ATOM     15 CL   UNL     1       8.202  15.903  25.971  0.00  0.00    +0.000 Cl
ATOM     16  C   UNL     1       8.487  14.180  23.944  0.00  0.00    +0.000 A 
ATOM     17  C   UNL     1       9.050  13.783  22.744  0.00  0.00    +0.000 A 
ATOM     18  C   UNL     1       9.912  14.617  21.983  0.00  0.00    +0.000 A 
ENDBRANCH   5   8
ENDBRANCH   1   2
BRANCH   1  19
ATOM     19  C   UNL     1       8.237   9.068  17.434  0.00  0.00    +0.000 C 
BRANCH  19  21
ATOM     20  O   UNL     1       8.376   7.082  18.789  0.00  0.00    +0.000 OA
ATOM     21  C   UNL     1       7.737   7.755  17.977  0.00  0.00    +0.000 C 
ATOM     22  N   UNL     1       6.513   7.400  17.428  0.00  0.00    +0.000 N 
ATOM     23  H   UNL     1       6.036   8.016  16.779  0.00  0.00    +0.000 HD
BRANCH  22  24
ATOM     24  N   UNL     1       5.927   6.234  17.807  0.00  0.00    +0.000 NA
ATOM     25  C   UNL     1       4.676   6.102  17.512  0.00  0.00    +0.000 C 
BRANCH  25  26
ATOM     26  C   UNL     1       3.927   4.886  17.890  0.00  0.00    +0.000 A 
ATOM     27  C   UNL     1       3.738   3.857  16.960  0.00  0.00    +0.000 A 
ATOM     28  C   UNL     1       3.027   2.709  17.314  0.00  0.00    +0.000 A 
ATOM     29  C   UNL     1       2.494   2.588  18.599  0.00  0.00    +0.000 A 
ATOM     30  C   UNL     1       2.686   3.623  19.526  0.00  0.00    +0.000 A 
ATOM     31  C   UNL     1       3.409   4.775  19.182  0.00  0.00    +0.000 A 
BRANCH  30  32
ATOM     32  N   UNL     1       2.110   3.504  20.871  0.00  0.00    +0.000 N 
ATOM     33  O   UNL     1       2.237   4.462  21.643  0.00  0.00    +0.000 OA
ATOM     34  O   UNL     1       1.535   2.442  21.153  0.00  0.00    +0.000 OA
ENDBRANCH  30  32
ENDBRANCH  25  26
ENDBRANCH  22  24
ENDBRANCH  19  21
ENDBRANCH   1  19
TORSDOF 7
ENDMDL
MODEL 6
REMARK VINA RESULT:      -8.1      5.839      8.092
REMARK  Name = 
REMARK  7 active torsions:
REMARK  status: ('A' for Active; 'I' for Inactive)
REMARK    1  A    between atoms: C_2  and  C_3
REMARK    2  A    between atoms: C_3  and  C_4
REMARK    3  A    between atoms: C_4  and  N_5
REMARK    4  A    between atoms: N_8  and  C_9
REMARK    5  A    between atoms: N_22  and  N_23
REMARK    6  A    between atoms: C_24  and  C_25
REMARK    7  A    between atoms: C_29  and  N_30
REMARK                            x       y       z     vdW  Elec       q    Type
REMARK                         _______ _______ _______ _____ _____    ______ ____
ROOT
ATOM      1  C   UNL     1       1.289  11.534  19.754  0.00  0.00    +0.000 C 
ENDROOT
BRANCH   1   2
ATOM      2  N   UNL     1       0.442  10.409  19.320  0.00  0.00    +0.000 NA
ATOM      3  C   UNL     1       1.034   9.720  18.135  0.00  0.00    +0.000 C 
ATOM      4  C   UNL     1       2.280   8.836  18.419  0.00  0.00    +0.000 C 
ATOM      5  N   UNL     1       1.947   7.898  19.501  0.00  0.00    +0.000 N 
ATOM      6  C   UNL     1       1.482   8.554  20.730  0.00  0.00    +0.000 C 
ATOM      7  C   UNL     1       0.236   9.406  20.390  0.00  0.00    +0.000 C 
BRANCH   5   8
ATOM      8  C   UNL     1       2.313   6.561  19.482  0.00  0.00    +0.000 A 
ATOM      9  C   UNL     1       1.779   5.667  20.415  0.00  0.00    +0.000 A 
ATOM     10  C   UNL     1       2.114   4.326  20.338  0.00  0.00    +0.000 A 
ATOM     11  N   UNL     1       2.931   3.809  19.403  0.00  0.00    +0.000 NA
ATOM     12  C   UNL     1       3.485   4.651  18.517  0.00  0.00    +0.000 A 
ATOM     13  C   UNL     1       4.339   4.128  17.555  0.00  0.00    +0.000 A 
ATOM     14  C   UNL     1       4.971   4.940  16.607  0.00  0.00    +0.000 A 
ATOM     15 CL   UNL     1       6.011   4.254  15.431  0.00  0.00    +0.000 Cl
ATOM     16  C   UNL     1       4.784   6.307  16.629  0.00  0.00    +0.000 A 
ATOM     17  C   UNL     1       3.965   6.843  17.608  0.00  0.00    +0.000 A 
ATOM     18  C   UNL     1       3.239   6.042  18.529  0.00  0.00    +0.000 A 
ENDBRANCH   5   8
ENDBRANCH   1   2
BRANCH   1  19
ATOM     19  C   UNL     1       1.517  12.552  18.630  0.00  0.00    +0.000 C 
BRANCH  19  21
ATOM     20  O   UNL     1       2.875  13.874  20.118  0.00  0.00    +0.000 OA
ATOM     21  C   UNL     1       2.637  13.504  18.967  0.00  0.00    +0.000 C 
ATOM     22  N   UNL     1       3.319  13.922  17.832  0.00  0.00    +0.000 N 
ATOM     23  H   UNL     1       3.078  13.557  16.917  0.00  0.00    +0.000 HD
BRANCH  22  24
ATOM     24  N   UNL     1       4.355  14.792  17.961  0.00  0.00    +0.000 NA
ATOM     25  C   UNL     1       5.535  14.270  18.012  0.00  0.00    +0.000 C 
BRANCH  25  26
ATOM     26  C   UNL     1       6.736  15.116  18.171  0.00  0.00    +0.000 A 
ATOM     27  C   UNL     1       6.605  16.488  18.415  0.00  0.00    +0.000 A 
ATOM     28  C   UNL     1       7.739  17.289  18.562  0.00  0.00    +0.000 A 
ATOM     29  C   UNL     1       9.011  16.723  18.455  0.00  0.00    +0.000 A 
ATOM     30  C   UNL     1       9.135  15.348  18.209  0.00  0.00    +0.000 A 
ATOM     31  C   UNL     1       8.002  14.533  18.072  0.00  0.00    +0.000 A 
BRANCH  30  32
ATOM     32  N   UNL     1      10.473  14.755  18.080  0.00  0.00    +0.000 N 
ATOM     33  O   UNL     1      10.743  14.155  17.032  0.00  0.00    +0.000 OA
ATOM     34  O   UNL     1      11.251  14.889  19.036  0.00  0.00    +0.000 OA
ENDBRANCH  30  32
ENDBRANCH  25  26
ENDBRANCH  22  24
ENDBRANCH  19  21
ENDBRANCH   1  19
TORSDOF 7
ENDMDL
MODEL 7
REMARK VINA RESULT:      -8.0      5.055     10.197
REMARK  Name = 
REMARK  7 active torsions:
REMARK  status: ('A' for Active; 'I' for Inactive)
REMARK    1  A    between atoms: C_2  and  C_3
REMARK    2  A    between atoms: C_3  and  C_4
REMARK    3  A    between atoms: C_4  and  N_5
REMARK    4  A    between atoms: N_8  and  C_9
REMARK    5  A    between atoms: N_22  and  N_23
REMARK    6  A    between atoms: C_24  and  C_25
REMARK    7  A    between atoms: C_29  and  N_30
REMARK                            x       y       z     vdW  Elec       q    Type
REMARK                         _______ _______ _______ _____ _____    ______ ____
ROOT
ATOM      1  C   UNL     1      -0.915  11.890  19.552  0.00  0.00    +0.000 C 
ENDROOT
BRANCH   1   2
ATOM      2  N   UNL     1      -0.892  12.986  20.537  0.00  0.00    +0.000 NA
ATOM      3  C   UNL     1       0.385  12.982  21.313  0.00  0.00    +0.000 C 
ATOM      4  C   UNL     1       1.643  13.475  20.546  0.00  0.00    +0.000 C 
ATOM      5  N   UNL     1       1.346  14.794  19.968  0.00  0.00    +0.000 N 
ATOM      6  C   UNL     1       0.166  14.804  19.093  0.00  0.00    +0.000 C 
ATOM      7  C   UNL     1      -1.055  14.318  19.910  0.00  0.00    +0.000 C 
BRANCH   5   8
ATOM      8  C   UNL     1       2.244  15.851  19.993  0.00  0.00    +0.000 A 
ATOM      9  C   UNL     1       1.907  17.052  20.625  0.00  0.00    +0.000 A 
ATOM     10  C   UNL     1       2.843  18.069  20.688  0.00  0.00    +0.000 A 
ATOM     11  N   UNL     1       4.085  17.981  20.178  0.00  0.00    +0.000 NA
ATOM     12  C   UNL     1       4.421  16.852  19.536  0.00  0.00    +0.000 A 
ATOM     13  C   UNL     1       5.698  16.755  18.997  0.00  0.00    +0.000 A 
ATOM     14  C   UNL     1       6.121  15.620  18.296  0.00  0.00    +0.000 A 
ATOM     15 CL   UNL     1       7.706  15.538  17.654  0.00  0.00    +0.000 Cl
ATOM     16  C   UNL     1       5.253  14.567  18.093  0.00  0.00    +0.000 A 
ATOM     17  C   UNL     1       3.966  14.669  18.593  0.00  0.00    +0.000 A 
ATOM     18  C   UNL     1       3.531  15.766  19.383  0.00  0.00    +0.000 A 
ENDBRANCH   5   8
ENDBRANCH   1   2
BRANCH   1  19
ATOM     19  C   UNL     1      -0.277  10.608  20.100  0.00  0.00    +0.000 C 
BRANCH  19  21
ATOM     20  O   UNL     1      -0.050   9.815  17.836  0.00  0.00    +0.000 OA
ATOM     21  C   UNL     1       0.353   9.792  19.001  0.00  0.00    +0.000 C 
ATOM     22  N   UNL     1       1.396   9.006  19.473  0.00  0.00    +0.000 N 
ATOM     23  H   UNL     1       1.686   9.055  20.444  0.00  0.00    +0.000 HD
BRANCH  22  24
ATOM     24  N   UNL     1       2.067   8.201  18.609  0.00  0.00    +0.000 NA
ATOM     25  C   UNL     1       2.514   7.090  19.093  0.00  0.00    +0.000 C 
BRANCH  25  26
ATOM     26  C   UNL     1       3.276   6.144  18.253  0.00  0.00    +0.000 A 
ATOM     27  C   UNL     1       2.724   4.904  17.910  0.00  0.00    +0.000 A 
ATOM     28  C   UNL     1       3.443   4.006  17.120  0.00  0.00    +0.000 A 
ATOM     29  C   UNL     1       4.724   4.340  16.675  0.00  0.00    +0.000 A 
ATOM     30  C   UNL     1       5.272   5.583  17.023  0.00  0.00    +0.000 A 
ATOM     31  C   UNL     1       4.552   6.497  17.807  0.00  0.00    +0.000 A 
BRANCH  30  32
ATOM     32  N   UNL     1       6.626   5.928  16.570  0.00  0.00    +0.000 N 
ATOM     33  O   UNL     1       6.951   7.122  16.569  0.00  0.00    +0.000 OA
ATOM     34  O   UNL     1       7.361   4.997  16.210  0.00  0.00    +0.000 OA
ENDBRANCH  30  32
ENDBRANCH  25  26
ENDBRANCH  22  24
ENDBRANCH  19  21
ENDBRANCH   1  19
TORSDOF 7
ENDMDL
MODEL 8
REMARK VINA RESULT:      -8.0      5.594     11.999
REMARK  Name = 
REMARK  7 active torsions:
REMARK  status: ('A' for Active; 'I' for Inactive)
REMARK    1  A    between atoms: C_2  and  C_3
REMARK    2  A    between atoms: C_3  and  C_4
REMARK    3  A    between atoms: C_4  and  N_5
REMARK    4  A    between atoms: N_8  and  C_9
REMARK    5  A    between atoms: N_22  and  N_23
REMARK    6  A    between atoms: C_24  and  C_25
REMARK    7  A    between atoms: C_29  and  N_30
REMARK                            x       y       z     vdW  Elec       q    Type
REMARK                         _______ _______ _______ _____ _____    ______ ____
ROOT
ATOM      1  C   UNL     1      -0.357  10.178  19.694  0.00  0.00    +0.000 C 
ENDROOT
BRANCH   1   2
ATOM      2  N   UNL     1      -0.081  11.541  20.180  0.00  0.00    +0.000 NA
ATOM      3  C   UNL     1      -1.056  12.520  19.611  0.00  0.00    +0.000 C 
ATOM      4  C   UNL     1      -2.492  12.464  20.201  0.00  0.00    +0.000 C 
ATOM      5  N   UNL     1      -2.396  12.560  21.665  0.00  0.00    +0.000 N 
ATOM      6  C   UNL     1      -1.544  11.528  22.271  0.00  0.00    +0.000 C 
ATOM      7  C   UNL     1      -0.127  11.639  21.657  0.00  0.00    +0.000 C 
BRANCH   5   8
ATOM      8  C   UNL     1      -3.249  13.342  22.430  0.00  0.00    +0.000 A 
ATOM      9  C   UNL     1      -4.635  13.195  22.320  0.00  0.00    +0.000 A 
ATOM     10  C   UNL     1      -5.463  13.946  23.137  0.00  0.00    +0.000 A 
ATOM     11  N   UNL     1      -5.017  14.821  24.056  0.00  0.00    +0.000 NA
ATOM     12  C   UNL     1      -3.692  15.007  24.157  0.00  0.00    +0.000 A 
ATOM     13  C   UNL     1      -3.224  15.917  25.096  0.00  0.00    +0.000 A 
ATOM     14  C   UNL     1      -1.859  16.182  25.252  0.00  0.00    +0.000 A 
ATOM     15 CL   UNL     1      -1.322  17.306  26.427  0.00  0.00    +0.000 Cl
ATOM     16  C   UNL     1      -0.934  15.558  24.440  0.00  0.00    +0.000 A 
ATOM     17  C   UNL     1      -1.393  14.678  23.475  0.00  0.00    +0.000 A 
ATOM     18  C   UNL     1      -2.762  14.319  23.348  0.00  0.00    +0.000 A 
ENDBRANCH   5   8
ENDBRANCH   1   2
BRANCH   1  19
ATOM     19  C   UNL     1       0.027  10.002  18.220  0.00  0.00    +0.000 C 
BRANCH  19  21
ATOM     20  O   UNL     1       2.338  10.270  17.594  0.00  0.00    +0.000 OA
ATOM     21  C   UNL     1       1.458   9.552  18.072  0.00  0.00    +0.000 C 
ATOM     22  N   UNL     1       1.635   8.244  18.502  0.00  0.00    +0.000 N 
ATOM     23  H   UNL     1       0.866   7.720  18.905  0.00  0.00    +0.000 HD
BRANCH  22  24
ATOM     24  N   UNL     1       2.870   7.681  18.428  0.00  0.00    +0.000 NA
ATOM     25  C   UNL     1       2.948   6.556  17.800  0.00  0.00    +0.000 C 
BRANCH  25  26
ATOM     26  C   UNL     1       4.234   5.840  17.671  0.00  0.00    +0.000 A 
ATOM     27  C   UNL     1       4.367   4.788  16.757  0.00  0.00    +0.000 A 
ATOM     28  C   UNL     1       5.580   4.108  16.637  0.00  0.00    +0.000 A 
ATOM     29  C   UNL     1       6.665   4.471  17.438  0.00  0.00    +0.000 A 
ATOM     30  C   UNL     1       6.524   5.525  18.353  0.00  0.00    +0.000 A 
ATOM     31  C   UNL     1       5.313   6.222  18.472  0.00  0.00    +0.000 A 
BRANCH  30  32
ATOM     32  N   UNL     1       7.660   5.895  19.208  0.00  0.00    +0.000 N 
ATOM     33  O   UNL     1       7.818   5.271  20.264  0.00  0.00    +0.000 OA
ATOM     34  O   UNL     1       8.389   6.819  18.819  0.00  0.00    +0.000 OA
ENDBRANCH  30  32
ENDBRANCH  25  26
ENDBRANCH  22  24
ENDBRANCH  19  21
ENDBRANCH   1  19
TORSDOF 7
ENDMDL
MODEL 9
REMARK VINA RESULT:      -8.0      5.589     11.952
REMARK  Name = 
REMARK  7 active torsions:
REMARK  status: ('A' for Active; 'I' for Inactive)
REMARK    1  A    between atoms: C_2  and  C_3
REMARK    2  A    between atoms: C_3  and  C_4
REMARK    3  A    between atoms: C_4  and  N_5
REMARK    4  A    between atoms: N_8  and  C_9
REMARK    5  A    between atoms: N_22  and  N_23
REMARK    6  A    between atoms: C_24  and  C_25
REMARK    7  A    between atoms: C_29  and  N_30
REMARK                            x       y       z     vdW  Elec       q    Type
REMARK                         _______ _______ _______ _____ _____    ______ ____
ROOT
ATOM      1  C   UNL     1       0.817  10.231  20.449  0.00  0.00    +0.000 C 
ENDROOT
BRANCH   1   2
ATOM      2  N   UNL     1      -0.646  10.361  20.564  0.00  0.00    +0.000 NA
ATOM      3  C   UNL     1      -1.092  10.166  21.976  0.00  0.00    +0.000 C 
ATOM      4  C   UNL     1      -0.784  11.336  22.950  0.00  0.00    +0.000 C 
ATOM      5  N   UNL     1      -1.313  12.577  22.366  0.00  0.00    +0.000 N 
ATOM      6  C   UNL     1      -0.793  12.868  21.023  0.00  0.00    +0.000 C 
ATOM      7  C   UNL     1      -1.139  11.678  20.096  0.00  0.00    +0.000 C 
BRANCH   5   8
ATOM      8  C   UNL     1      -1.992  13.533  23.107  0.00  0.00    +0.000 A 
ATOM      9  C   UNL     1      -1.290  14.428  23.922  0.00  0.00    +0.000 A 
ATOM     10  C   UNL     1      -1.986  15.410  24.604  0.00  0.00    +0.000 A 
ATOM     11  N   UNL     1      -3.319  15.574  24.532  0.00  0.00    +0.000 NA
ATOM     12  C   UNL     1      -4.020  14.707  23.785  0.00  0.00    +0.000 A 
ATOM     13  C   UNL     1      -5.398  14.862  23.714  0.00  0.00    +0.000 A 
ATOM     14  C   UNL     1      -6.203  13.989  22.972  0.00  0.00    +0.000 A 
ATOM     15 CL   UNL     1      -7.899  14.219  22.903  0.00  0.00    +0.000 Cl
ATOM     16  C   UNL     1      -5.638  12.918  22.310  0.00  0.00    +0.000 A 
ATOM     17  C   UNL     1      -4.269  12.733  22.407  0.00  0.00    +0.000 A 
ATOM     18  C   UNL     1      -3.413  13.647  23.077  0.00  0.00    +0.000 A 
ENDBRANCH   5   8
ENDBRANCH   1   2
BRANCH   1  19
ATOM     19  C   UNL     1       1.323  10.617  19.054  0.00  0.00    +0.000 C 
BRANCH  19  21
ATOM     20  O   UNL     1       1.940   9.416  17.059  0.00  0.00    +0.000 OA
ATOM     21  C   UNL     1       1.788   9.410  18.282  0.00  0.00    +0.000 C 
ATOM     22  N   UNL     1       1.982   8.311  19.108  0.00  0.00    +0.000 N 
ATOM     23  H   UNL     1       1.857   8.386  20.112  0.00  0.00    +0.000 HD
BRANCH  22  24
ATOM     24  N   UNL     1       2.394   7.135  18.566  0.00  0.00    +0.000 NA
ATOM     25  C   UNL     1       3.561   7.139  18.012  0.00  0.00    +0.000 C 
BRANCH  25  26
ATOM     26  C   UNL     1       4.106   5.924  17.373  0.00  0.00    +0.000 A 
ATOM     27  C   UNL     1       3.610   4.662  17.719  0.00  0.00    +0.000 A 
ATOM     28  C   UNL     1       4.127   3.512  17.118  0.00  0.00    +0.000 A 
ATOM     29  C   UNL     1       5.150   3.619  16.175  0.00  0.00    +0.000 A 
ATOM     30  C   UNL     1       5.644   4.887  15.833  0.00  0.00    +0.000 A 
ATOM     31  C   UNL     1       5.123   6.048  16.423  0.00  0.00    +0.000 A 
BRANCH  30  32
ATOM     32  N   UNL     1       6.733   4.998  14.854  0.00  0.00    +0.000 N 
ATOM     33  O   UNL     1       7.727   5.666  15.165  0.00  0.00    +0.000 OA
ATOM     34  O   UNL     1       6.585   4.417  13.769  0.00  0.00    +0.000 OA
ENDBRANCH  30  32
ENDBRANCH  25  26
ENDBRANCH  22  24
ENDBRANCH  19  21
ENDBRANCH   1  19
TORSDOF 7
ENDMDL
