MODEL 1
REMARK VINA RESULT:      -8.1      0.000      0.000
REMARK  Name = 
REMARK  7 active torsions:
REMARK  status: ('A' for Active; 'I' for Inactive)
REMARK    1  A    between atoms: C_1  and  S_2
REMARK    2  A    between atoms: S_2  and  N_5
REMARK    3  A    between atoms: N_8  and  C_9
REMARK    4  A    between atoms: C_12  and  N_13
REMARK    5  A    between atoms: C_16  and  N_17
REMARK    6  A    between atoms: N_17  and  C_18
REMARK    7  A    between atoms: C_18  and  C_19
REMARK                            x       y       z     vdW  Elec       q    Type
REMARK                         _______ _______ _______ _____ _____    ______ ____
ROOT
ATOM      1  C   UNL     1       2.112   6.666  19.897  0.00  0.00    +0.000 A 
ATOM      2  C   UNL     1       1.801   5.589  20.734  0.00  0.00    +0.000 A 
ATOM      3  C   UNL     1       2.189   4.282  20.429  0.00  0.00    +0.000 A 
ATOM      4  C   UNL     1       2.912   4.017  19.257  0.00  0.00    +0.000 A 
ATOM      5  C   UNL     1       3.281   5.069  18.388  0.00  0.00    +0.000 A 
ATOM      6  C   UNL     1       2.866   6.368  18.753  0.00  0.00    +0.000 A 
ENDROOT
BRANCH   1  10
ATOM      7  N   UNL     1      -0.293  10.092  20.520  0.00  0.00    +0.000 NA
ATOM      8  C   UNL     1       0.270   9.782  19.157  0.00  0.00    +0.000 C 
ATOM      9  C   UNL     1       1.624   9.019  19.138  0.00  0.00    +0.000 C 
ATOM     10  N   UNL     1       1.682   7.951  20.159  0.00  0.00    +0.000 N 
ATOM     11  C   UNL     1       1.226   8.355  21.491  0.00  0.00    +0.000 C 
ATOM     12  C   UNL     1      -0.223   8.849  21.372  0.00  0.00    +0.000 C 
BRANCH   7  14
ATOM     13  C   UNL     1      -0.833  12.802  20.772  0.00  0.00    +0.000 C 
ATOM     14  S   UNL     1       0.182  11.474  21.377  0.00  0.00    +0.000 S 
ATOM     15  O   UNL     1       1.552  11.769  21.013  0.00  0.00    +0.000 OA
ATOM     16  O   UNL     1      -0.182  11.255  22.760  0.00  0.00    +0.000 OA
ENDBRANCH   7  14
ENDBRANCH   1  10
BRANCH   4  17
ATOM     17  N   UNL     1       3.278   2.619  18.984  0.00  0.00    +0.000 N 
ATOM     18  O   UNL     1       2.720   2.054  18.021  0.00  0.00    +0.000 OA
ATOM     19  O   UNL     1       4.103   2.057  19.717  0.00  0.00    +0.000 OA
ENDBRANCH   4  17
BRANCH   5  20
ATOM     20  N   UNL     1       3.943   4.876  17.180  0.00  0.00    +0.000 N 
ATOM     21  H   UNL     1       3.356   4.571  16.401  0.00  0.00    +0.000 HD
BRANCH  20  22
ATOM     22  C   UNL     1       5.324   4.420  17.098  0.00  0.00    +0.000 C 
BRANCH  22  23
ATOM     23  C   UNL     1       6.247   5.551  17.482  0.00  0.00    +0.000 A 
ATOM     24  C   UNL     1       7.208   5.382  18.491  0.00  0.00    +0.000 A 
ATOM     25  C   UNL     1       8.034   6.445  18.867  0.00  0.00    +0.000 A 
ATOM     26  C   UNL     1       7.906   7.678  18.233  0.00  0.00    +0.000 A 
ATOM     27 CL   UNL     1       8.908   8.993  18.712  0.00  0.00    +0.000 Cl
ATOM     28  C   UNL     1       6.971   7.857  17.218  0.00  0.00    +0.000 A 
ATOM     29  C   UNL     1       6.147   6.795  16.841  0.00  0.00    +0.000 A 
ENDBRANCH  22  23
ENDBRANCH  20  22
ENDBRANCH   5  20
TORSDOF 6
ENDMDL
MODEL 2
REMARK VINA RESULT:      -7.9      0.617      1.101
REMARK  Name = 
REMARK  7 active torsions:
REMARK  status: ('A' for Active; 'I' for Inactive)
REMARK    1  A    between atoms: C_1  and  S_2
REMARK    2  A    between atoms: S_2  and  N_5
REMARK    3  A    between atoms: N_8  and  C_9
REMARK    4  A    between atoms: C_12  and  N_13
REMARK    5  A    between atoms: C_16  and  N_17
REMARK    6  A    between atoms: N_17  and  C_18
REMARK    7  A    between atoms: C_18  and  C_19
REMARK                            x       y       z     vdW  Elec       q    Type
REMARK                         _______ _______ _______ _____ _____    ______ ____
ROOT
ATOM      1  C   UNL     1       2.215   6.753  19.667  0.00  0.00    +0.000 A 
ATOM      2  C   UNL     1       2.006   5.860  20.723  0.00  0.00    +0.000 A 
ATOM      3  C   UNL     1       2.360   4.511  20.629  0.00  0.00    +0.000 A 
ATOM      4  C   UNL     1       2.945   4.017  19.455  0.00  0.00    +0.000 A 
ATOM      5  C   UNL     1       3.209   4.878  18.366  0.00  0.00    +0.000 A 
ATOM      6  C   UNL     1       2.834   6.230  18.522  0.00  0.00    +0.000 A 
ENDROOT
BRANCH   1  10
ATOM      7  N   UNL     1      -0.113  10.286  19.762  0.00  0.00    +0.000 NA
ATOM      8  C   UNL     1       0.429   9.754  18.460  0.00  0.00    +0.000 C 
ATOM      9  C   UNL     1       1.768   8.968  18.551  0.00  0.00    +0.000 C 
ATOM     10  N   UNL     1       1.814   8.072  19.727  0.00  0.00    +0.000 N 
ATOM     11  C   UNL     1       1.380   8.690  20.982  0.00  0.00    +0.000 C 
ATOM     12  C   UNL     1      -0.060   9.191  20.797  0.00  0.00    +0.000 C 
BRANCH   7  14
ATOM     13  C   UNL     1      -0.795  12.974  19.843  0.00  0.00    +0.000 C 
ATOM     14  S   UNL     1       0.399  11.774  20.387  0.00  0.00    +0.000 S 
ATOM     15  O   UNL     1       1.665  12.102  19.766  0.00  0.00    +0.000 OA
ATOM     16  O   UNL     1       0.287  11.684  21.827  0.00  0.00    +0.000 OA
ENDBRANCH   7  14
ENDBRANCH   1  10
BRANCH   4  17
ATOM     17  N   UNL     1       3.281   2.585  19.413  0.00  0.00    +0.000 N 
ATOM     18  O   UNL     1       2.574   1.847  18.698  0.00  0.00    +0.000 OA
ATOM     19  O   UNL     1       4.231   2.168  20.091  0.00  0.00    +0.000 OA
ENDBRANCH   4  17
BRANCH   5  20
ATOM     20  N   UNL     1       3.729   4.447  17.150  0.00  0.00    +0.000 N 
ATOM     21  H   UNL     1       3.079   3.936  16.551  0.00  0.00    +0.000 HD
BRANCH  20  22
ATOM     22  C   UNL     1       5.124   4.066  16.976  0.00  0.00    +0.000 C 
BRANCH  22  23
ATOM     23  C   UNL     1       6.011   5.212  17.400  0.00  0.00    +0.000 A 
ATOM     24  C   UNL     1       5.992   6.430  16.702  0.00  0.00    +0.000 A 
ATOM     25  C   UNL     1       6.843   7.473  17.078  0.00  0.00    +0.000 A 
ATOM     26  C   UNL     1       7.711   7.305  18.154  0.00  0.00    +0.000 A 
ATOM     27 CL   UNL     1       8.774   8.582  18.601  0.00  0.00    +0.000 Cl
ATOM     28  C   UNL     1       7.729   6.110  18.867  0.00  0.00    +0.000 A 
ATOM     29  C   UNL     1       6.878   5.069  18.493  0.00  0.00    +0.000 A 
ENDBRANCH  22  23
ENDBRANCH  20  22
ENDBRANCH   5  20
TORSDOF 6
ENDMDL
MODEL 3
REMARK VINA RESULT:      -7.8      1.040      1.263
REMARK  Name = 
REMARK  7 active torsions:
REMARK  status: ('A' for Active; 'I' for Inactive)
REMARK    1  A    between atoms: C_1  and  S_2
REMARK    2  A    between atoms: S_2  and  N_5
REMARK    3  A    between atoms: N_8  and  C_9
REMARK    4  A    between atoms: C_12  and  N_13
REMARK    5  A    between atoms: C_16  and  N_17
REMARK    6  A    between atoms: N_17  and  C_18
REMARK    7  A    between atoms: C_18  and  C_19
REMARK                            x       y       z     vdW  Elec       q    Type
REMARK                         _______ _______ _______ _____ _____    ______ ____
ROOT
ATOM      1  C   UNL     1       2.201   6.799  19.587  0.00  0.00    +0.000 A 
ATOM      2  C   UNL     1       2.018   5.976  20.704  0.00  0.00    +0.000 A 
ATOM      3  C   UNL     1       2.329   4.614  20.675  0.00  0.00    +0.000 A 
ATOM      4  C   UNL     1       2.842   4.033  19.507  0.00  0.00    +0.000 A 
ATOM      5  C   UNL     1       3.078   4.821  18.357  0.00  0.00    +0.000 A 
ATOM      6  C   UNL     1       2.749   6.190  18.449  0.00  0.00    +0.000 A 
ENDROOT
BRANCH   1  10
ATOM      7  N   UNL     1      -0.015  10.403  19.492  0.00  0.00    +0.000 NA
ATOM      8  C   UNL     1       0.537   9.803  18.224  0.00  0.00    +0.000 C 
ATOM      9  C   UNL     1       1.848   8.980  18.376  0.00  0.00    +0.000 C 
ATOM     10  N   UNL     1       1.841   8.131  19.587  0.00  0.00    +0.000 N 
ATOM     11  C   UNL     1       1.401   8.812  20.807  0.00  0.00    +0.000 C 
ATOM     12  C   UNL     1      -0.019   9.349  20.570  0.00  0.00    +0.000 C 
BRANCH   7  14
ATOM     13  C   UNL     1       1.814  12.420  18.956  0.00  0.00    +0.000 C 
ATOM     14  S   UNL     1       0.530  11.898  20.070  0.00  0.00    +0.000 S 
ATOM     15  O   UNL     1       1.138  11.675  21.365  0.00  0.00    +0.000 OA
ATOM     16  O   UNL     1      -0.567  12.830  19.922  0.00  0.00    +0.000 OA
ENDBRANCH   7  14
ENDBRANCH   1  10
BRANCH   4  17
ATOM     17  N   UNL     1       3.135   2.592  19.535  0.00  0.00    +0.000 N 
ATOM     18  O   UNL     1       4.063   2.207  20.275  0.00  0.00    +0.000 OA
ATOM     19  O   UNL     1       2.470   1.827  18.824  0.00  0.00    +0.000 OA
ENDBRANCH   4  17
BRANCH   5  20
ATOM     20  N   UNL     1       3.525   4.303  17.145  0.00  0.00    +0.000 N 
ATOM     21  H   UNL     1       2.830   3.786  16.606  0.00  0.00    +0.000 HD
BRANCH  20  22
ATOM     22  C   UNL     1       4.896   3.859  16.933  0.00  0.00    +0.000 C 
BRANCH  22  23
ATOM     23  C   UNL     1       5.845   4.969  17.313  0.00  0.00    +0.000 A 
ATOM     24  C   UNL     1       6.717   4.826  18.405  0.00  0.00    +0.000 A 
ATOM     25  C   UNL     1       7.566   5.872  18.774  0.00  0.00    +0.000 A 
ATOM     26  C   UNL     1       7.553   7.062  18.051  0.00  0.00    +0.000 A 
ATOM     27 CL   UNL     1       8.584   8.358  18.521  0.00  0.00    +0.000 Cl
ATOM     28  C   UNL     1       6.709   7.214  16.955  0.00  0.00    +0.000 A 
ATOM     29  C   UNL     1       5.862   6.169  16.585  0.00  0.00    +0.000 A 
ENDBRANCH  22  23
ENDBRANCH  20  22
ENDBRANCH   5  20
TORSDOF 6
ENDMDL
MODEL 4
REMARK VINA RESULT:      -7.8      2.266      2.822
REMARK  Name = 
REMARK  7 active torsions:
REMARK  status: ('A' for Active; 'I' for Inactive)
REMARK    1  A    between atoms: C_1  and  S_2
REMARK    2  A    between atoms: S_2  and  N_5
REMARK    3  A    between atoms: N_8  and  C_9
REMARK    4  A    between atoms: C_12  and  N_13
REMARK    5  A    between atoms: C_16  and  N_17
REMARK    6  A    between atoms: N_17  and  C_18
REMARK    7  A    between atoms: C_18  and  C_19
REMARK                            x       y       z     vdW  Elec       q    Type
REMARK                         _______ _______ _______ _____ _____    ______ ____
ROOT
ATOM      1  C   UNL     1       2.182   6.899  19.904  0.00  0.00    +0.000 A 
ATOM      2  C   UNL     1       1.409   6.042  20.695  0.00  0.00    +0.000 A 
ATOM      3  C   UNL     1       1.751   4.700  20.878  0.00  0.00    +0.000 A 
ATOM      4  C   UNL     1       2.897   4.175  20.264  0.00  0.00    +0.000 A 
ATOM      5  C   UNL     1       3.734   5.000  19.479  0.00  0.00    +0.000 A 
ATOM      6  C   UNL     1       3.339   6.348  19.336  0.00  0.00    +0.000 A 
ENDROOT
BRANCH   1  10
ATOM      7  N   UNL     1      -0.023  10.412  19.064  0.00  0.00    +0.000 NA
ATOM      8  C   UNL     1       0.641   9.635  17.957  0.00  0.00    +0.000 C 
ATOM      9  C   UNL     1       1.935   8.866  18.348  0.00  0.00    +0.000 C 
ATOM     10  N   UNL     1       1.821   8.210  19.668  0.00  0.00    +0.000 N 
ATOM     11  C   UNL     1       1.272   9.061  20.727  0.00  0.00    +0.000 C 
ATOM     12  C   UNL     1      -0.122   9.534  20.287  0.00  0.00    +0.000 C 
BRANCH   7  14
ATOM     13  C   UNL     1      -0.492  13.069  18.419  0.00  0.00    +0.000 C 
ATOM     14  S   UNL     1       0.465  11.986  19.453  0.00  0.00    +0.000 S 
ATOM     15  O   UNL     1       1.853  12.125  19.067  0.00  0.00    +0.000 OA
ATOM     16  O   UNL     1       0.053  12.227  20.819  0.00  0.00    +0.000 OA
ENDBRANCH   7  14
ENDBRANCH   1  10
BRANCH   4  17
ATOM     17  N   UNL     1       3.194   2.750  20.483  0.00  0.00    +0.000 N 
ATOM     18  O   UNL     1       3.168   2.330  21.658  0.00  0.00    +0.000 OA
ATOM     19  O   UNL     1       3.469   2.035  19.510  0.00  0.00    +0.000 OA
ENDBRANCH   4  17
BRANCH   5  20
ATOM     20  N   UNL     1       4.850   4.536  18.791  0.00  0.00    +0.000 N 
ATOM     21  H   UNL     1       5.264   3.676  19.154  0.00  0.00    +0.000 HD
BRANCH  20  22
ATOM     22  C   UNL     1       5.801   5.423  18.136  0.00  0.00    +0.000 C 
BRANCH  22  23
ATOM     23  C   UNL     1       5.966   5.003  16.696  0.00  0.00    +0.000 A 
ATOM     24  C   UNL     1       4.970   4.254  16.048  0.00  0.00    +0.000 A 
ATOM     25  C   UNL     1       5.146   3.836  14.727  0.00  0.00    +0.000 A 
ATOM     26  C   UNL     1       6.314   4.170  14.045  0.00  0.00    +0.000 A 
ATOM     27 CL   UNL     1       6.539   3.636  12.424  0.00  0.00    +0.000 Cl
ATOM     28  C   UNL     1       7.303   4.928  14.666  0.00  0.00    +0.000 A 
ATOM     29  C   UNL     1       7.126   5.346  15.985  0.00  0.00    +0.000 A 
ENDBRANCH  22  23
ENDBRANCH  20  22
ENDBRANCH   5  20
TORSDOF 6
ENDMDL
MODEL 5
REMARK VINA RESULT:      -7.6      2.134      2.651
REMARK  Name = 
REMARK  7 active torsions:
REMARK  status: ('A' for Active; 'I' for Inactive)
REMARK    1  A    between atoms: C_1  and  S_2
REMARK    2  A    between atoms: S_2  and  N_5
REMARK    3  A    between atoms: N_8  and  C_9
REMARK    4  A    between atoms: C_12  and  N_13
REMARK    5  A    between atoms: C_16  and  N_17
REMARK    6  A    between atoms: N_17  and  C_18
REMARK    7  A    between atoms: C_18  and  C_19
REMARK                            x       y       z     vdW  Elec       q    Type
REMARK                         _______ _______ _______ _____ _____    ______ ____
ROOT
ATOM      1  C   UNL     1       1.995   6.830  20.116  0.00  0.00    +0.000 A 
ATOM      2  C   UNL     1       1.661   5.762  20.955  0.00  0.00    +0.000 A 
ATOM      3  C   UNL     1       2.068   4.453  20.681  0.00  0.00    +0.000 A 
ATOM      4  C   UNL     1       2.835   4.178  19.541  0.00  0.00    +0.000 A 
ATOM      5  C   UNL     1       3.230   5.221  18.672  0.00  0.00    +0.000 A 
ATOM      6  C   UNL     1       2.793   6.522  19.004  0.00  0.00    +0.000 A 
ENDROOT
BRANCH   1  10
ATOM      7  N   UNL     1      -0.457  10.227  20.708  0.00  0.00    +0.000 NA
ATOM      8  C   UNL     1       0.053   9.874  19.334  0.00  0.00    +0.000 C 
ATOM      9  C   UNL     1       1.422   9.139  19.286  0.00  0.00    +0.000 C 
ATOM     10  N   UNL     1       1.548   8.115  20.345  0.00  0.00    +0.000 N 
ATOM     11  C   UNL     1       1.142   8.564  21.679  0.00  0.00    +0.000 C 
ATOM     12  C   UNL     1      -0.322   9.022  21.604  0.00  0.00    +0.000 C 
BRANCH   7  14
ATOM     13  C   UNL     1      -0.995  12.947  20.817  0.00  0.00    +0.000 C 
ATOM     14  S   UNL     1       0.023  11.653  21.486  0.00  0.00    +0.000 S 
ATOM     15  O   UNL     1       1.391  11.927  21.100  0.00  0.00    +0.000 OA
ATOM     16  O   UNL     1      -0.333  11.508  22.882  0.00  0.00    +0.000 OA
ENDBRANCH   7  14
ENDBRANCH   1  10
BRANCH   4  17
ATOM     17  N   UNL     1       3.219   2.779  19.300  0.00  0.00    +0.000 N 
ATOM     18  O   UNL     1       2.716   2.204  18.313  0.00  0.00    +0.000 OA
ATOM     19  O   UNL     1       4.005   2.226  20.081  0.00  0.00    +0.000 OA
ENDBRANCH   4  17
BRANCH   5  20
ATOM     20  N   UNL     1       3.936   5.017  17.491  0.00  0.00    +0.000 N 
ATOM     21  H   UNL     1       3.515   4.357  16.836  0.00  0.00    +0.000 HD
BRANCH  20  22
ATOM     22  C   UNL     1       5.390   5.083  17.418  0.00  0.00    +0.000 C 
BRANCH  22  23
ATOM     23  C   UNL     1       5.829   4.833  15.996  0.00  0.00    +0.000 A 
ATOM     24  C   UNL     1       4.997   4.145  15.098  0.00  0.00    +0.000 A 
ATOM     25  C   UNL     1       5.426   3.885  13.794  0.00  0.00    +0.000 A 
ATOM     26  C   UNL     1       6.685   4.315  13.380  0.00  0.00    +0.000 A 
ATOM     27 CL   UNL     1       7.221   3.974  11.781  0.00  0.00    +0.000 Cl
ATOM     28  C   UNL     1       7.514   5.014  14.252  0.00  0.00    +0.000 A 
ATOM     29  C   UNL     1       7.085   5.276  15.553  0.00  0.00    +0.000 A 
ENDBRANCH  22  23
ENDBRANCH  20  22
ENDBRANCH   5  20
TORSDOF 6
ENDMDL
MODEL 6
REMARK VINA RESULT:      -7.6      2.150      2.694
REMARK  Name = 
REMARK  7 active torsions:
REMARK  status: ('A' for Active; 'I' for Inactive)
REMARK    1  A    between atoms: C_1  and  S_2
REMARK    2  A    between atoms: S_2  and  N_5
REMARK    3  A    between atoms: N_8  and  C_9
REMARK    4  A    between atoms: C_12  and  N_13
REMARK    5  A    between atoms: C_16  and  N_17
REMARK    6  A    between atoms: N_17  and  C_18
REMARK    7  A    between atoms: C_18  and  C_19
REMARK                            x       y       z     vdW  Elec       q    Type
REMARK                         _______ _______ _______ _____ _____    ______ ____
ROOT
ATOM      1  C   UNL     1       1.974   6.931  20.040  0.00  0.00    +0.000 A 
ATOM      2  C   UNL     1       1.607   5.798  20.775  0.00  0.00    +0.000 A 
ATOM      3  C   UNL     1       2.043   4.518  20.422  0.00  0.00    +0.000 A 
ATOM      4  C   UNL     1       2.873   4.339  19.307  0.00  0.00    +0.000 A 
ATOM      5  C   UNL     1       3.302   5.449  18.545  0.00  0.00    +0.000 A 
ATOM      6  C   UNL     1       2.833   6.717  18.953  0.00  0.00    +0.000 A 
ENDROOT
BRANCH   1  10
ATOM      7  N   UNL     1      -0.547  10.230  20.857  0.00  0.00    +0.000 NA
ATOM      8  C   UNL     1      -0.059   9.960  19.457  0.00  0.00    +0.000 C 
ATOM      9  C   UNL     1       1.326   9.263  19.342  0.00  0.00    +0.000 C 
ATOM     10  N   UNL     1       1.501   8.191  20.344  0.00  0.00    +0.000 N 
ATOM     11  C   UNL     1       1.112   8.561  21.708  0.00  0.00    +0.000 C 
ATOM     12  C   UNL     1      -0.364   8.985  21.687  0.00  0.00    +0.000 C 
BRANCH   7  14
ATOM     13  C   UNL     1      -1.171  12.919  21.142  0.00  0.00    +0.000 C 
ATOM     14  S   UNL     1      -0.085  11.626  21.697  0.00  0.00    +0.000 S 
ATOM     15  O   UNL     1       1.257  11.970  21.277  0.00  0.00    +0.000 OA
ATOM     16  O   UNL     1      -0.382  11.391  23.094  0.00  0.00    +0.000 OA
ENDBRANCH   7  14
ENDBRANCH   1  10
BRANCH   4  17
ATOM     17  N   UNL     1       3.285   2.965  18.978  0.00  0.00    +0.000 N 
ATOM     18  O   UNL     1       4.052   2.387  19.775  0.00  0.00    +0.000 OA
ATOM     19  O   UNL     1       2.873   2.445  17.932  0.00  0.00    +0.000 OA
ENDBRANCH   4  17
BRANCH   5  20
ATOM     20  N   UNL     1       4.073   5.343  17.392  0.00  0.00    +0.000 N 
ATOM     21  H   UNL     1       3.562   5.100  16.542  0.00  0.00    +0.000 HD
BRANCH  20  22
ATOM     22  C   UNL     1       5.457   4.887  17.405  0.00  0.00    +0.000 C 
BRANCH  22  23
ATOM     23  C   UNL     1       5.926   4.676  15.986  0.00  0.00    +0.000 A 
ATOM     24  C   UNL     1       7.156   5.196  15.552  0.00  0.00    +0.000 A 
ATOM     25  C   UNL     1       7.567   5.029  14.227  0.00  0.00    +0.000 A 
ATOM     26  C   UNL     1       6.754   4.337  13.332  0.00  0.00    +0.000 A 
ATOM     27 CL   UNL     1       7.251   4.150  11.695  0.00  0.00    +0.000 Cl
ATOM     28  C   UNL     1       5.540   3.799  13.751  0.00  0.00    +0.000 A 
ATOM     29  C   UNL     1       5.131   3.965  15.075  0.00  0.00    +0.000 A 
ENDBRANCH  22  23
ENDBRANCH  20  22
ENDBRANCH   5  20
TORSDOF 6
ENDMDL
MODEL 7
REMARK VINA RESULT:      -7.5      2.325      2.870
REMARK  Name = 
REMARK  7 active torsions:
REMARK  status: ('A' for Active; 'I' for Inactive)
REMARK    1  A    between atoms: C_1  and  S_2
REMARK    2  A    between atoms: S_2  and  N_5
REMARK    3  A    between atoms: N_8  and  C_9
REMARK    4  A    between atoms: C_12  and  N_13
REMARK    5  A    between atoms: C_16  and  N_17
REMARK    6  A    between atoms: N_17  and  C_18
REMARK    7  A    between atoms: C_18  and  C_19
REMARK                            x       y       z     vdW  Elec       q    Type
REMARK                         _______ _______ _______ _____ _____    ______ ____
ROOT
ATOM      1  C   UNL     1       2.159   6.940  19.896  0.00  0.00    +0.000 A 
ATOM      2  C   UNL     1       1.395   6.081  20.693  0.00  0.00    +0.000 A 
ATOM      3  C   UNL     1       1.757   4.747  20.895  0.00  0.00    +0.000 A 
ATOM      4  C   UNL     1       2.915   4.232  20.295  0.00  0.00    +0.000 A 
ATOM      5  C   UNL     1       3.743   5.061  19.505  0.00  0.00    +0.000 A 
ATOM      6  C   UNL     1       3.328   6.400  19.341  0.00  0.00    +0.000 A 
ENDROOT
BRANCH   1  10
ATOM      7  N   UNL     1      -0.103  10.412  19.036  0.00  0.00    +0.000 NA
ATOM      8  C   UNL     1       0.542   9.618  17.930  0.00  0.00    +0.000 C 
ATOM      9  C   UNL     1       1.853   8.870  18.305  0.00  0.00    +0.000 C 
ATOM     10  N   UNL     1       1.779   8.242  19.641  0.00  0.00    +0.000 N 
ATOM     11  C   UNL     1       1.247   9.110  20.694  0.00  0.00    +0.000 C 
ATOM     12  C   UNL     1      -0.162   9.560  20.279  0.00  0.00    +0.000 C 
BRANCH   7  14
ATOM     13  C   UNL     1      -0.048  12.287  21.080  0.00  0.00    +0.000 C 
ATOM     14  S   UNL     1       0.378  11.999  19.379  0.00  0.00    +0.000 S 
ATOM     15  O   UNL     1      -0.427  12.888  18.568  0.00  0.00    +0.000 OA
ATOM     16  O   UNL     1       1.822  12.027  19.291  0.00  0.00    +0.000 OA
ENDBRANCH   7  14
ENDBRANCH   1  10
BRANCH   4  17
ATOM     17  N   UNL     1       3.234   2.816  20.534  0.00  0.00    +0.000 N 
ATOM     18  O   UNL     1       3.584   2.130  19.553  0.00  0.00    +0.000 OA
ATOM     19  O   UNL     1       3.131   2.360  21.682  0.00  0.00    +0.000 OA
ENDBRANCH   4  17
BRANCH   5  20
ATOM     20  N   UNL     1       4.871   4.606  18.829  0.00  0.00    +0.000 N 
ATOM     21  H   UNL     1       5.317   3.778  19.227  0.00  0.00    +0.000 HD
BRANCH  20  22
ATOM     22  C   UNL     1       5.785   5.496  18.126  0.00  0.00    +0.000 C 
BRANCH  22  23
ATOM     23  C   UNL     1       5.971   5.005  16.711  0.00  0.00    +0.000 A 
ATOM     24  C   UNL     1       7.136   5.315  15.991  0.00  0.00    +0.000 A 
ATOM     25  C   UNL     1       7.284   4.889  14.668  0.00  0.00    +0.000 A 
ATOM     26  C   UNL     1       6.273   4.147  14.063  0.00  0.00    +0.000 A 
ATOM     27 CL   UNL     1       6.448   3.641  12.427  0.00  0.00    +0.000 Cl
ATOM     28  C   UNL     1       5.121   3.815  14.768  0.00  0.00    +0.000 A 
ATOM     29  C   UNL     1       4.973   4.239  16.089  0.00  0.00    +0.000 A 
ENDBRANCH  22  23
ENDBRANCH  20  22
ENDBRANCH   5  20
TORSDOF 6
ENDMDL
MODEL 8
REMARK VINA RESULT:      -7.5      2.115      2.527
REMARK  Name = 
REMARK  7 active torsions:
REMARK  status: ('A' for Active; 'I' for Inactive)
REMARK    1  A    between atoms: C_1  and  S_2
REMARK    2  A    between atoms: S_2  and  N_5
REMARK    3  A    between atoms: N_8  and  C_9
REMARK    4  A    between atoms: C_12  and  N_13
REMARK    5  A    between atoms: C_16  and  N_17
REMARK    6  A    between atoms: N_17  and  C_18
REMARK    7  A    between atoms: C_18  and  C_19
REMARK                            x       y       z     vdW  Elec       q    Type
REMARK                         _______ _______ _______ _____ _____    ______ ____
ROOT
ATOM      1  C   UNL     1       2.204   6.860  19.796  0.00  0.00    +0.000 A 
ATOM      2  C   UNL     1       1.569   6.076  20.765  0.00  0.00    +0.000 A 
ATOM      3  C   UNL     1       1.876   4.724  20.936  0.00  0.00    +0.000 A 
ATOM      4  C   UNL     1       2.845   4.113  20.127  0.00  0.00    +0.000 A 
ATOM      5  C   UNL     1       3.542   4.862  19.152  0.00  0.00    +0.000 A 
ATOM      6  C   UNL     1       3.192   6.224  19.030  0.00  0.00    +0.000 A 
ENDROOT
BRANCH   1  10
ATOM      7  N   UNL     1       0.053  10.429  19.055  0.00  0.00    +0.000 NA
ATOM      8  C   UNL     1       0.656   9.641  17.920  0.00  0.00    +0.000 C 
ATOM      9  C   UNL     1       1.944   8.839  18.257  0.00  0.00    +0.000 C 
ATOM     10  N   UNL     1       1.866   8.180  19.579  0.00  0.00    +0.000 N 
ATOM     11  C   UNL     1       1.379   9.040  20.661  0.00  0.00    +0.000 C 
ATOM     12  C   UNL     1      -0.019   9.548  20.277  0.00  0.00    +0.000 C 
BRANCH   7  14
ATOM     13  C   UNL     1      -0.390  13.101  18.453  0.00  0.00    +0.000 C 
ATOM     14  S   UNL     1       0.594  11.989  19.430  0.00  0.00    +0.000 S 
ATOM     15  O   UNL     1       1.964  12.102  18.974  0.00  0.00    +0.000 OA
ATOM     16  O   UNL     1       0.258  12.227  20.817  0.00  0.00    +0.000 OA
ENDBRANCH   7  14
ENDBRANCH   1  10
BRANCH   4  17
ATOM     17  N   UNL     1       3.111   2.683  20.346  0.00  0.00    +0.000 N 
ATOM     18  O   UNL     1       2.944   1.911  19.380  0.00  0.00    +0.000 OA
ATOM     19  O   UNL     1       3.474   2.302  21.467  0.00  0.00    +0.000 OA
ENDBRANCH   4  17
BRANCH   5  20
ATOM     20  N   UNL     1       4.469   4.312  18.273  0.00  0.00    +0.000 N 
ATOM     21  H   UNL     1       5.414   4.694  18.336  0.00  0.00    +0.000 HD
BRANCH  20  22
ATOM     22  C   UNL     1       4.111   3.824  16.948  0.00  0.00    +0.000 C 
BRANCH  22  23
ATOM     23  C   UNL     1       5.183   4.221  15.963  0.00  0.00    +0.000 A 
ATOM     24  C   UNL     1       6.175   5.149  16.318  0.00  0.00    +0.000 A 
ATOM     25  C   UNL     1       7.142   5.540  15.388  0.00  0.00    +0.000 A 
ATOM     26  C   UNL     1       7.126   5.002  14.104  0.00  0.00    +0.000 A 
ATOM     27 CL   UNL     1       8.304   5.501  12.954  0.00  0.00    +0.000 Cl
ATOM     28  C   UNL     1       6.161   4.067  13.742  0.00  0.00    +0.000 A 
ATOM     29  C   UNL     1       5.196   3.675  14.671  0.00  0.00    +0.000 A 
ENDBRANCH  22  23
ENDBRANCH  20  22
ENDBRANCH   5  20
TORSDOF 6
ENDMDL
MODEL 9
REMARK VINA RESULT:      -7.5      2.154      2.690
REMARK  Name = 
REMARK  7 active torsions:
REMARK  status: ('A' for Active; 'I' for Inactive)
REMARK    1  A    between atoms: C_1  and  S_2
REMARK    2  A    between atoms: S_2  and  N_5
REMARK    3  A    between atoms: N_8  and  C_9
REMARK    4  A    between atoms: C_12  and  N_13
REMARK    5  A    between atoms: C_16  and  N_17
REMARK    6  A    between atoms: N_17  and  C_18
REMARK    7  A    between atoms: C_18  and  C_19
REMARK                            x       y       z     vdW  Elec       q    Type
REMARK                         _______ _______ _______ _____ _____    ______ ____
ROOT
ATOM      1  C   UNL     1       2.186   6.588  20.176  0.00  0.00    +0.000 A 
ATOM      2  C   UNL     1       1.422   5.465  20.513  0.00  0.00    +0.000 A 
ATOM      3  C   UNL     1       1.905   4.166  20.338  0.00  0.00    +0.000 A 
ATOM      4  C   UNL     1       3.189   3.955  19.816  0.00  0.00    +0.000 A 
ATOM      5  C   UNL     1       4.019   5.051  19.487  0.00  0.00    +0.000 A 
ATOM      6  C   UNL     1       3.478   6.339  19.689  0.00  0.00    +0.000 A 
ENDROOT
BRANCH   1  10
ATOM      7  N   UNL     1      -0.368   9.959  20.308  0.00  0.00    +0.000 NA
ATOM      8  C   UNL     1       0.306   9.551  19.023  0.00  0.00    +0.000 C 
ATOM      9  C   UNL     1       1.682   8.843  19.172  0.00  0.00    +0.000 C 
ATOM     10  N   UNL     1       1.696   7.873  20.288  0.00  0.00    +0.000 N 
ATOM     11  C   UNL     1       1.128   8.376  21.541  0.00  0.00    +0.000 C 
ATOM     12  C   UNL     1      -0.323   8.800  21.272  0.00  0.00    +0.000 C 
BRANCH   7  14
ATOM     13  C   UNL     1      -0.803  11.375  22.654  0.00  0.00    +0.000 C 
ATOM     14  S   UNL     1      -0.005  11.428  21.067  0.00  0.00    +0.000 S 
ATOM     15  O   UNL     1      -0.627  12.487  20.299  0.00  0.00    +0.000 OA
ATOM     16  O   UNL     1       1.422  11.434  21.307  0.00  0.00    +0.000 OA
ENDBRANCH   7  14
ENDBRANCH   1  10
BRANCH   4  17
ATOM     17  N   UNL     1       3.633   2.563  19.642  0.00  0.00    +0.000 N 
ATOM     18  O   UNL     1       2.901   1.803  18.977  0.00  0.00    +0.000 OA
ATOM     19  O   UNL     1       4.696   2.200  20.166  0.00  0.00    +0.000 OA
ENDBRANCH   4  17
BRANCH   5  20
ATOM     20  N   UNL     1       5.277   4.920  18.907  0.00  0.00    +0.000 N 
ATOM     21  H   UNL     1       5.974   4.437  19.475  0.00  0.00    +0.000 HD
BRANCH  20  22
ATOM     22  C   UNL     1       5.834   5.908  17.994  0.00  0.00    +0.000 C 
BRANCH  22  23
ATOM     23  C   UNL     1       5.940   5.308  16.613  0.00  0.00    +0.000 A 
ATOM     24  C   UNL     1       4.905   4.513  16.094  0.00  0.00    +0.000 A 
ATOM     25  C   UNL     1       5.027   3.930  14.830  0.00  0.00    +0.000 A 
ATOM     26  C   UNL     1       6.179   4.144  14.077  0.00  0.00    +0.000 A 
ATOM     27 CL   UNL     1       6.337   3.407  12.530  0.00  0.00    +0.000 Cl
ATOM     28  C   UNL     1       7.206   4.944  14.569  0.00  0.00    +0.000 A 
ATOM     29  C   UNL     1       7.084   5.528  15.830  0.00  0.00    +0.000 A 
ENDBRANCH  22  23
ENDBRANCH  20  22
ENDBRANCH   5  20
TORSDOF 6
ENDMDL
