MODEL 1
REMARK VINA RESULT:      -6.1      0.000      0.000
REMARK  Name = 
REMARK  4 active torsions:
REMARK  status: ('A' for Active; 'I' for Inactive)
REMARK    1  A    between atoms: C_1  and  C_2
REMARK    2  A    between atoms: C_2  and  O_3
REMARK    3  A    between atoms: O_3  and  C_4
REMARK    4  A    between atoms: C_10  and  C_12
REMARK                            x       y       z     vdW  Elec       q    Type
REMARK                         _______ _______ _______ _____ _____    ______ ____
ROOT
ATOM      1  C   UNL     1       6.511   3.737  12.655  0.00  0.00    +0.000 C 
ATOM      2  O   UNL     1       7.384   4.156  11.906  0.00  0.00    +0.000 OA
ATOM      3  N   UNL     1       6.492   3.935  14.020  0.00  0.00    +0.000 N 
ATOM      4  C   UNL     1       7.524   4.761  14.661  0.00  0.00    +0.000 C 
ATOM      5  C   UNL     1       6.923   6.025  15.316  0.00  0.00    +0.000 C 
ATOM      6  N   UNL     1       5.728   5.702  16.124  0.00  0.00    +0.000 N 
ATOM      7  C   UNL     1       5.772   5.922  17.503  0.00  0.00    +0.000 C 
ATOM      8  O   UNL     1       6.747   6.472  18.016  0.00  0.00    +0.000 OA
ATOM      9  C   UNL     1       4.708   4.989  15.336  0.00  0.00    +0.000 C 
ATOM     10  C   UNL     1       5.307   3.659  14.841  0.00  0.00    +0.000 C 
ENDROOT
BRANCH   7  11
ATOM     11  C   UNL     1       4.644   5.491  18.394  0.00  0.00    +0.000 A 
ATOM     12  C   UNL     1       3.439   6.079  18.349  0.00  0.00    +0.000 A 
ATOM     13  N   UNL     1       2.345   5.779  19.117  0.00  0.00    +0.000 NA
ATOM     14  C   UNL     1       2.446   4.715  19.829  0.00  0.00    +0.000 A 
ATOM     15  N   UNL     1       3.542   3.912  19.880  0.00  0.00    +0.000 N 
ATOM     16  C   UNL     1       4.701   4.228  19.194  0.00  0.00    +0.000 A 
ATOM     17  O   UNL     1       5.690   3.507  19.237  0.00  0.00    +0.000 OA
ATOM     18  C   UNL     1       3.356   2.639  20.542  0.00  0.00    +0.000 C 
ATOM     19  C   UNL     1       2.077   2.665  21.365  0.00  0.00    +0.000 C 
ATOM     20  S   UNL     1       1.164   4.138  20.841  0.00  0.00    +0.000 S 
ENDBRANCH   7  11
BRANCH   1  21
ATOM     21  O   UNL     1       5.397   3.084  12.229  0.00  0.00    +0.000 OA
BRANCH  21  23
ATOM     22  C   UNL     1       3.491   2.891  10.817  0.00  0.00    +0.000 C 
ATOM     23  C   UNL     1       4.462   3.857  11.470  0.00  0.00    +0.000 C 
ENDBRANCH  21  23
ENDBRANCH   1  21
TORSDOF 3
ENDMDL
MODEL 2
REMARK VINA RESULT:      -6.0      4.242      7.569
REMARK  Name = 
REMARK  4 active torsions:
REMARK  status: ('A' for Active; 'I' for Inactive)
REMARK    1  A    between atoms: C_1  and  C_2
REMARK    2  A    between atoms: C_2  and  O_3
REMARK    3  A    between atoms: O_3  and  C_4
REMARK    4  A    between atoms: C_10  and  C_12
REMARK                            x       y       z     vdW  Elec       q    Type
REMARK                         _______ _______ _______ _____ _____    ______ ____
ROOT
ATOM      1  C   UNL     1       0.201   9.812  19.606  0.00  0.00    +0.000 C 
ATOM      2  O   UNL     1      -0.545   9.839  20.577  0.00  0.00    +0.000 OA
ATOM      3  N   UNL     1       1.373   9.087  19.544  0.00  0.00    +0.000 N 
ATOM      4  C   UNL     1       1.763   8.214  20.658  0.00  0.00    +0.000 C 
ATOM      5  C   UNL     1       1.809   6.728  20.235  0.00  0.00    +0.000 C 
ATOM      6  N   UNL     1       2.535   6.548  18.960  0.00  0.00    +0.000 N 
ATOM      7  C   UNL     1       3.719   5.808  18.962  0.00  0.00    +0.000 C 
ATOM      8  O   UNL     1       4.091   5.228  19.983  0.00  0.00    +0.000 OA
ATOM      9  C   UNL     1       1.968   7.379  17.884  0.00  0.00    +0.000 C 
ATOM     10  C   UNL     1       2.095   8.861  18.285  0.00  0.00    +0.000 C 
ENDROOT
BRANCH   7  11
ATOM     11  C   UNL     1       4.570   5.702  17.731  0.00  0.00    +0.000 A 
ATOM     12  C   UNL     1       5.680   6.439  17.568  0.00  0.00    +0.000 A 
ATOM     13  N   UNL     1       6.523   6.434  16.490  0.00  0.00    +0.000 NA
ATOM     14  C   UNL     1       6.313   5.504  15.628  0.00  0.00    +0.000 A 
ATOM     15  N   UNL     1       5.324   4.574  15.712  0.00  0.00    +0.000 N 
ATOM     16  C   UNL     1       4.393   4.599  16.735  0.00  0.00    +0.000 A 
ATOM     17  O   UNL     1       3.502   3.763  16.813  0.00  0.00    +0.000 OA
ATOM     18  C   UNL     1       5.421   3.473  14.778  0.00  0.00    +0.000 C 
ATOM     19  C   UNL     1       6.396   3.822  13.664  0.00  0.00    +0.000 C 
ATOM     20  S   UNL     1       7.289   5.298  14.213  0.00  0.00    +0.000 S 
ENDBRANCH   7  11
BRANCH   1  21
ATOM     21  O   UNL     1      -0.068  10.431  18.427  0.00  0.00    +0.000 OA
BRANCH  21  23
ATOM     22  C   UNL     1      -1.995  11.711  17.868  0.00  0.00    +0.000 C 
ATOM     23  C   UNL     1      -1.409  10.314  17.941  0.00  0.00    +0.000 C 
ENDBRANCH  21  23
ENDBRANCH   1  21
TORSDOF 3
ENDMDL
MODEL 3
REMARK VINA RESULT:      -5.9      5.323      8.697
REMARK  Name = 
REMARK  4 active torsions:
REMARK  status: ('A' for Active; 'I' for Inactive)
REMARK    1  A    between atoms: C_1  and  C_2
REMARK    2  A    between atoms: C_2  and  O_3
REMARK    3  A    between atoms: O_3  and  C_4
REMARK    4  A    between atoms: C_10  and  C_12
REMARK                            x       y       z     vdW  Elec       q    Type
REMARK                         _______ _______ _______ _____ _____    ______ ____
ROOT
ATOM      1  C   UNL     1      -1.009  11.560  20.988  0.00  0.00    +0.000 C 
ATOM      2  O   UNL     1      -1.123  12.671  20.485  0.00  0.00    +0.000 OA
ATOM      3  N   UNL     1      -0.562  10.442  20.315  0.00  0.00    +0.000 N 
ATOM      4  C   UNL     1      -0.107  10.549  18.922  0.00  0.00    +0.000 C 
ATOM      5  C   UNL     1       1.391  10.201  18.779  0.00  0.00    +0.000 C 
ATOM      6  N   UNL     1       1.731   8.955  19.498  0.00  0.00    +0.000 N 
ATOM      7  C   UNL     1       2.175   7.855  18.761  0.00  0.00    +0.000 C 
ATOM      8  O   UNL     1       2.380   7.957  17.551  0.00  0.00    +0.000 OA
ATOM      9  C   UNL     1       1.345   9.018  20.918  0.00  0.00    +0.000 C 
ATOM     10  C   UNL     1      -0.182   9.204  21.006  0.00  0.00    +0.000 C 
ENDROOT
BRANCH   7  11
ATOM     11  C   UNL     1       2.407   6.524  19.414  0.00  0.00    +0.000 A 
ATOM     12  C   UNL     1       1.460   5.918  20.147  0.00  0.00    +0.000 A 
ATOM     13  N   UNL     1       1.561   4.716  20.794  0.00  0.00    +0.000 NA
ATOM     14  C   UNL     1       2.616   4.031  20.526  0.00  0.00    +0.000 A 
ATOM     15  N   UNL     1       3.608   4.427  19.686  0.00  0.00    +0.000 N 
ATOM     16  C   UNL     1       3.591   5.673  19.084  0.00  0.00    +0.000 A 
ATOM     17  O   UNL     1       4.484   6.032  18.326  0.00  0.00    +0.000 OA
ATOM     18  C   UNL     1       4.571   3.407  19.330  0.00  0.00    +0.000 C 
ATOM     19  C   UNL     1       4.461   2.234  20.291  0.00  0.00    +0.000 C 
ATOM     20  S   UNL     1       2.918   2.469  21.209  0.00  0.00    +0.000 S 
ENDBRANCH   7  11
BRANCH   1  21
ATOM     21  O   UNL     1      -1.234  11.296  22.302  0.00  0.00    +0.000 OA
BRANCH  21  23
ATOM     22  C   UNL     1      -3.119  12.239  23.409  0.00  0.00    +0.000 C 
ATOM     23  C   UNL     1      -1.641  12.405  23.110  0.00  0.00    +0.000 C 
ENDBRANCH  21  23
ENDBRANCH   1  21
TORSDOF 3
ENDMDL
MODEL 4
REMARK VINA RESULT:      -5.8      3.762      4.979
REMARK  Name = 
REMARK  4 active torsions:
REMARK  status: ('A' for Active; 'I' for Inactive)
REMARK    1  A    between atoms: C_1  and  C_2
REMARK    2  A    between atoms: C_2  and  O_3
REMARK    3  A    between atoms: O_3  and  C_4
REMARK    4  A    between atoms: C_10  and  C_12
REMARK                            x       y       z     vdW  Elec       q    Type
REMARK                         _______ _______ _______ _____ _____    ______ ____
ROOT
ATOM      1  C   UNL     1       6.284   4.570  15.278  0.00  0.00    +0.000 C 
ATOM      2  O   UNL     1       6.721   3.427  15.330  0.00  0.00    +0.000 OA
ATOM      3  N   UNL     1       5.117   4.987  15.882  0.00  0.00    +0.000 N 
ATOM      4  C   UNL     1       4.345   4.059  16.719  0.00  0.00    +0.000 C 
ATOM      5  C   UNL     1       4.284   4.528  18.191  0.00  0.00    +0.000 C 
ATOM      6  N   UNL     1       3.938   5.962  18.290  0.00  0.00    +0.000 N 
ATOM      7  C   UNL     1       2.740   6.321  18.910  0.00  0.00    +0.000 C 
ATOM      8  O   UNL     1       2.040   5.468  19.456  0.00  0.00    +0.000 OA
ATOM      9  C   UNL     1       4.864   6.805  17.513  0.00  0.00    +0.000 C 
ATOM     10  C   UNL     1       4.766   6.405  16.028  0.00  0.00    +0.000 C 
ENDROOT
BRANCH   7  11
ATOM     11  C   UNL     1       2.269   7.746  18.924  0.00  0.00    +0.000 A 
ATOM     12  C   UNL     1       2.213   8.487  17.806  0.00  0.00    +0.000 A 
ATOM     13  N   UNL     1       1.813   9.792  17.700  0.00  0.00    +0.000 NA
ATOM     14  C   UNL     1       1.281  10.294  18.757  0.00  0.00    +0.000 A 
ATOM     15  N   UNL     1       1.118   9.635  19.935  0.00  0.00    +0.000 N 
ATOM     16  C   UNL     1       1.592   8.348  20.114  0.00  0.00    +0.000 A 
ATOM     17  O   UNL     1       1.447   7.752  21.174  0.00  0.00    +0.000 OA
ATOM     18  C   UNL     1       0.273  10.293  20.908  0.00  0.00    +0.000 C 
ATOM     19  C   UNL     1       0.081  11.752  20.525  0.00  0.00    +0.000 C 
ATOM     20  S   UNL     1       0.674  11.914  18.822  0.00  0.00    +0.000 S 
ENDBRANCH   7  11
BRANCH   1  21
ATOM     21  O   UNL     1       6.934   5.603  14.680  0.00  0.00    +0.000 OA
BRANCH  21  23
ATOM     22  C   UNL     1       7.093   4.789  12.449  0.00  0.00    +0.000 C 
ATOM     23  C   UNL     1       7.878   5.253  13.662  0.00  0.00    +0.000 C 
ENDBRANCH  21  23
ENDBRANCH   1  21
TORSDOF 3
ENDMDL
MODEL 5
REMARK VINA RESULT:      -5.7      3.435      5.639
REMARK  Name = 
REMARK  4 active torsions:
REMARK  status: ('A' for Active; 'I' for Inactive)
REMARK    1  A    between atoms: C_1  and  C_2
REMARK    2  A    between atoms: C_2  and  O_3
REMARK    3  A    between atoms: O_3  and  C_4
REMARK    4  A    between atoms: C_10  and  C_12
REMARK                            x       y       z     vdW  Elec       q    Type
REMARK                         _______ _______ _______ _____ _____    ______ ____
ROOT
ATOM      1  C   UNL     1       6.952   5.530  16.357  0.00  0.00    +0.000 C 
ATOM      2  O   UNL     1       7.450   4.460  16.029  0.00  0.00    +0.000 OA
ATOM      3  N   UNL     1       5.627   5.700  16.702  0.00  0.00    +0.000 N 
ATOM      4  C   UNL     1       4.726   4.541  16.770  0.00  0.00    +0.000 C 
ATOM      5  C   UNL     1       4.196   4.308  18.203  0.00  0.00    +0.000 C 
ATOM      6  N   UNL     1       3.716   5.565  18.816  0.00  0.00    +0.000 N 
ATOM      7  C   UNL     1       2.363   5.678  19.139  0.00  0.00    +0.000 C 
ATOM      8  O   UNL     1       1.609   4.712  19.015  0.00  0.00    +0.000 OA
ATOM      9  C   UNL     1       4.753   6.612  18.807  0.00  0.00    +0.000 C 
ATOM     10  C   UNL     1       5.130   6.922  17.346  0.00  0.00    +0.000 C 
ENDROOT
BRANCH   7  11
ATOM     11  C   UNL     1       1.789   6.972  19.638  0.00  0.00    +0.000 A 
ATOM     12  C   UNL     1       1.592   7.205  20.945  0.00  0.00    +0.000 A 
ATOM     13  N   UNL     1       1.068   8.336  21.512  0.00  0.00    +0.000 NA
ATOM     14  C   UNL     1       0.912   9.331  20.714  0.00  0.00    +0.000 A 
ATOM     15  N   UNL     1       1.204   9.319  19.387  0.00  0.00    +0.000 N 
ATOM     16  C   UNL     1       1.645   8.171  18.755  0.00  0.00    +0.000 A 
ATOM     17  O   UNL     1       1.910   8.157  17.559  0.00  0.00    +0.000 OA
ATOM     18  C   UNL     1       1.193  10.610  18.732  0.00  0.00    +0.000 C 
ATOM     19  C   UNL     1       0.477  11.628  19.606  0.00  0.00    +0.000 C 
ATOM     20  S   UNL     1       0.300  10.865  21.238  0.00  0.00    +0.000 S 
ENDBRANCH   7  11
BRANCH   1  21
ATOM     21  O   UNL     1       7.658   6.682  16.502  0.00  0.00    +0.000 OA
BRANCH  21  23
ATOM     22  C   UNL     1       8.149   8.573  17.862  0.00  0.00    +0.000 C 
ATOM     23  C   UNL     1       7.973   7.066  17.844  0.00  0.00    +0.000 C 
ENDBRANCH  21  23
ENDBRANCH   1  21
TORSDOF 3
ENDMDL
MODEL 6
REMARK VINA RESULT:      -5.7      1.553      1.979
REMARK  Name = 
REMARK  4 active torsions:
REMARK  status: ('A' for Active; 'I' for Inactive)
REMARK    1  A    between atoms: C_1  and  C_2
REMARK    2  A    between atoms: C_2  and  O_3
REMARK    3  A    between atoms: O_3  and  C_4
REMARK    4  A    between atoms: C_10  and  C_12
REMARK                            x       y       z     vdW  Elec       q    Type
REMARK                         _______ _______ _______ _____ _____    ______ ____
ROOT
ATOM      1  C   UNL     1       6.863   3.939  12.438  0.00  0.00    +0.000 C 
ATOM      2  O   UNL     1       7.361   4.707  11.626  0.00  0.00    +0.000 OA
ATOM      3  N   UNL     1       6.799   4.173  13.796  0.00  0.00    +0.000 N 
ATOM      4  C   UNL     1       7.278   5.447  14.350  0.00  0.00    +0.000 C 
ATOM      5  C   UNL     1       6.136   6.253  15.009  0.00  0.00    +0.000 C 
ATOM      6  N   UNL     1       5.314   5.405  15.898  0.00  0.00    +0.000 N 
ATOM      7  C   UNL     1       5.294   5.690  17.265  0.00  0.00    +0.000 C 
ATOM      8  O   UNL     1       5.862   6.692  17.702  0.00  0.00    +0.000 OA
ATOM      9  C   UNL     1       4.781   4.226  15.194  0.00  0.00    +0.000 C 
ATOM     10  C   UNL     1       5.963   3.371  14.698  0.00  0.00    +0.000 C 
ENDROOT
BRANCH   7  11
ATOM     11  C   UNL     1       4.589   4.789  18.236  0.00  0.00    +0.000 A 
ATOM     12  C   UNL     1       5.257   3.927  19.019  0.00  0.00    +0.000 A 
ATOM     13  N   UNL     1       4.723   3.054  19.928  0.00  0.00    +0.000 NA
ATOM     14  C   UNL     1       3.470   3.204  20.168  0.00  0.00    +0.000 A 
ATOM     15  N   UNL     1       2.669   4.131  19.576  0.00  0.00    +0.000 N 
ATOM     16  C   UNL     1       3.146   4.969  18.584  0.00  0.00    +0.000 A 
ATOM     17  O   UNL     1       2.427   5.805  18.050  0.00  0.00    +0.000 OA
ATOM     18  C   UNL     1       1.360   4.297  20.169  0.00  0.00    +0.000 C 
ATOM     19  C   UNL     1       1.050   3.117  21.078  0.00  0.00    +0.000 C 
ATOM     20  S   UNL     1       2.610   2.230  21.312  0.00  0.00    +0.000 S 
ENDBRANCH   7  11
BRANCH   1  21
ATOM     21  O   UNL     1       6.232   2.783  12.101  0.00  0.00    +0.000 OA
BRANCH  21  23
ATOM     22  C   UNL     1       6.151   0.611  11.131  0.00  0.00    +0.000 C 
ATOM     23  C   UNL     1       6.964   1.885  11.260  0.00  0.00    +0.000 C 
ENDBRANCH  21  23
ENDBRANCH   1  21
TORSDOF 3
ENDMDL
MODEL 7
REMARK VINA RESULT:      -5.7      4.609      6.692
REMARK  Name = 
REMARK  4 active torsions:
REMARK  status: ('A' for Active; 'I' for Inactive)
REMARK    1  A    between atoms: C_1  and  C_2
REMARK    2  A    between atoms: C_2  and  O_3
REMARK    3  A    between atoms: O_3  and  C_4
REMARK    4  A    between atoms: C_10  and  C_12
REMARK                            x       y       z     vdW  Elec       q    Type
REMARK                         _______ _______ _______ _____ _____    ______ ____
ROOT
ATOM      1  C   UNL     1       4.690   4.166  18.471  0.00  0.00    +0.000 C 
ATOM      2  O   UNL     1       5.301   3.778  17.484  0.00  0.00    +0.000 OA
ATOM      3  N   UNL     1       4.324   5.477  18.695  0.00  0.00    +0.000 N 
ATOM      4  C   UNL     1       4.593   6.504  17.680  0.00  0.00    +0.000 C 
ATOM      5  C   UNL     1       3.289   7.117  17.122  0.00  0.00    +0.000 C 
ATOM      6  N   UNL     1       2.352   7.480  18.206  0.00  0.00    +0.000 N 
ATOM      7  C   UNL     1       2.022   8.825  18.386  0.00  0.00    +0.000 C 
ATOM      8  O   UNL     1       2.421   9.676  17.589  0.00  0.00    +0.000 OA
ATOM      9  C   UNL     1       2.055   6.333  19.082  0.00  0.00    +0.000 C 
ATOM     10  C   UNL     1       3.367   5.862  19.740  0.00  0.00    +0.000 C 
ENDROOT
BRANCH   7  11
ATOM     11  C   UNL     1       1.185   9.271  19.548  0.00  0.00    +0.000 A 
ATOM     12  C   UNL     1       1.462   8.900  20.807  0.00  0.00    +0.000 A 
ATOM     13  N   UNL     1       0.767   9.235  21.939  0.00  0.00    +0.000 NA
ATOM     14  C   UNL     1      -0.140  10.132  21.784  0.00  0.00    +0.000 A 
ATOM     15  N   UNL     1      -0.452  10.729  20.602  0.00  0.00    +0.000 N 
ATOM     16  C   UNL     1       0.160  10.353  19.420  0.00  0.00    +0.000 A 
ATOM     17  O   UNL     1      -0.118  10.889  18.354  0.00  0.00    +0.000 OA
ATOM     18  C   UNL     1      -1.319  11.883  20.694  0.00  0.00    +0.000 C 
ATOM     19  C   UNL     1      -1.988  11.921  22.060  0.00  0.00    +0.000 C 
ATOM     20  S   UNL     1      -1.106  10.725  23.093  0.00  0.00    +0.000 S 
ENDBRANCH   7  11
BRANCH   1  21
ATOM     21  O   UNL     1       4.220   3.343  19.445  0.00  0.00    +0.000 OA
BRANCH  21  23
ATOM     22  C   UNL     1       2.145   2.309  18.904  0.00  0.00    +0.000 C 
ATOM     23  C   UNL     1       3.645   2.108  19.005  0.00  0.00    +0.000 C 
ENDBRANCH  21  23
ENDBRANCH   1  21
TORSDOF 3
ENDMDL
MODEL 8
REMARK VINA RESULT:      -5.7      9.788     11.329
REMARK  Name = 
REMARK  4 active torsions:
REMARK  status: ('A' for Active; 'I' for Inactive)
REMARK    1  A    between atoms: C_1  and  C_2
REMARK    2  A    between atoms: C_2  and  O_3
REMARK    3  A    between atoms: O_3  and  C_4
REMARK    4  A    between atoms: C_10  and  C_12
REMARK                            x       y       z     vdW  Elec       q    Type
REMARK                         _______ _______ _______ _____ _____    ______ ____
ROOT
ATOM      1  C   UNL     1      10.295  13.902  17.952  0.00  0.00    +0.000 C 
ATOM      2  O   UNL     1      11.395  14.413  17.786  0.00  0.00    +0.000 OA
ATOM      3  N   UNL     1       9.236  14.517  18.588  0.00  0.00    +0.000 N 
ATOM      4  C   UNL     1       9.358  15.906  19.052  0.00  0.00    +0.000 C 
ATOM      5  C   UNL     1       8.371  16.844  18.321  0.00  0.00    +0.000 C 
ATOM      6  N   UNL     1       7.009  16.272  18.276  0.00  0.00    +0.000 N 
ATOM      7  C   UNL     1       5.980  16.939  18.944  0.00  0.00    +0.000 C 
ATOM      8  O   UNL     1       6.183  18.035  19.466  0.00  0.00    +0.000 OA
ATOM      9  C   UNL     1       6.997  14.929  17.670  0.00  0.00    +0.000 C 
ATOM     10  C   UNL     1       7.867  13.992  18.530  0.00  0.00    +0.000 C 
ENDROOT
BRANCH   7  11
ATOM     11  C   UNL     1       4.607  16.342  19.049  0.00  0.00    +0.000 A 
ATOM     12  C   UNL     1       3.667  16.553  18.115  0.00  0.00    +0.000 A 
ATOM     13  N   UNL     1       2.385  16.072  18.111  0.00  0.00    +0.000 NA
ATOM     14  C   UNL     1       2.122  15.194  19.012  0.00  0.00    +0.000 A 
ATOM     15  N   UNL     1       3.003  14.749  19.947  0.00  0.00    +0.000 N 
ATOM     16  C   UNL     1       4.278  15.276  20.046  0.00  0.00    +0.000 A 
ATOM     17  O   UNL     1       5.075  14.878  20.887  0.00  0.00    +0.000 OA
ATOM     18  C   UNL     1       2.585  13.585  20.698  0.00  0.00    +0.000 C 
ATOM     19  C   UNL     1       1.089  13.369  20.527  0.00  0.00    +0.000 C 
ATOM     20  S   UNL     1       0.574  14.432  19.156  0.00  0.00    +0.000 S 
ENDBRANCH   7  11
BRANCH   1  21
ATOM     21  O   UNL     1       9.942  12.685  17.459  0.00  0.00    +0.000 OA
BRANCH  21  23
ATOM     22  C   UNL     1       9.982  10.964  19.103  0.00  0.00    +0.000 C 
ATOM     23  C   UNL     1      10.712  11.569  17.919  0.00  0.00    +0.000 C 
ENDBRANCH  21  23
ENDBRANCH   1  21
TORSDOF 3
ENDMDL
MODEL 9
REMARK VINA RESULT:      -5.7      6.416      8.878
REMARK  Name = 
REMARK  4 active torsions:
REMARK  status: ('A' for Active; 'I' for Inactive)
REMARK    1  A    between atoms: C_1  and  C_2
REMARK    2  A    between atoms: C_2  and  O_3
REMARK    3  A    between atoms: O_3  and  C_4
REMARK    4  A    between atoms: C_10  and  C_12
REMARK                            x       y       z     vdW  Elec       q    Type
REMARK                         _______ _______ _______ _____ _____    ______ ____
ROOT
ATOM      1  C   UNL     1       2.244   5.654  19.496  0.00  0.00    +0.000 C 
ATOM      2  O   UNL     1       2.616   4.937  18.576  0.00  0.00    +0.000 OA
ATOM      3  N   UNL     1       2.389   7.026  19.523  0.00  0.00    +0.000 N 
ATOM      4  C   UNL     1       2.953   7.733  18.365  0.00  0.00    +0.000 C 
ATOM      5  C   UNL     1       1.928   8.697  17.726  0.00  0.00    +0.000 C 
ATOM      6  N   UNL     1       1.248   9.523  18.747  0.00  0.00    +0.000 N 
ATOM      7  C   UNL     1       1.438  10.906  18.725  0.00  0.00    +0.000 C 
ATOM      8  O   UNL     1       2.070  11.434  17.810  0.00  0.00    +0.000 OA
ATOM      9  C   UNL     1       0.609   8.696  19.785  0.00  0.00    +0.000 C 
ATOM     10  C   UNL     1       1.697   7.874  20.501  0.00  0.00    +0.000 C 
ENDROOT
BRANCH   7  11
ATOM     11  C   UNL     1       0.886  11.783  19.810  0.00  0.00    +0.000 A 
ATOM     12  C   UNL     1       1.676  12.565  20.562  0.00  0.00    +0.000 A 
ATOM     13  N   UNL     1       1.288  13.394  21.581  0.00  0.00    +0.000 NA
ATOM     14  C   UNL     1       0.019  13.557  21.707  0.00  0.00    +0.000 A 
ATOM     15  N   UNL     1      -0.924  12.959  20.932  0.00  0.00    +0.000 N 
ATOM     16  C   UNL     1      -0.580  12.043  19.954  0.00  0.00    +0.000 A 
ATOM     17  O   UNL     1      -1.427  11.503  19.253  0.00  0.00    +0.000 OA
ATOM     18  C   UNL     1      -2.269  13.471  21.077  0.00  0.00    +0.000 C 
ATOM     19  C   UNL     1      -2.375  14.299  22.348  0.00  0.00    +0.000 C 
ATOM     20  S   UNL     1      -0.678  14.592  22.907  0.00  0.00    +0.000 S 
ENDBRANCH   7  11
BRANCH   1  21
ATOM     21  O   UNL     1       1.564   5.202  20.583  0.00  0.00    +0.000 OA
BRANCH  21  23
ATOM     22  C   UNL     1       1.201   2.937  21.218  0.00  0.00    +0.000 C 
ATOM     23  C   UNL     1       2.160   4.111  21.292  0.00  0.00    +0.000 C 
ENDBRANCH  21  23
ENDBRANCH   1  21
TORSDOF 3
ENDMDL
