MODEL 1
REMARK VINA RESULT:      -6.9      0.000      0.000
REMARK  Name = 
REMARK  7 active torsions:
REMARK  status: ('A' for Active; 'I' for Inactive)
REMARK    1  A    between atoms: C_1  and  C_2
REMARK    2  A    between atoms: C_2  and  C_3
REMARK    3  A    between atoms: C_2  and  O_4
REMARK    4  A    between atoms: C_2  and  C_5
REMARK    5  A    between atoms: C_5  and  N_6
REMARK    6  A    between atoms: C_10  and  C_12
REMARK    7  A    between atoms: C_12  and  N_13
REMARK                            x       y       z     vdW  Elec       q    Type
REMARK                         _______ _______ _______ _____ _____    ______ ____
ROOT
ATOM      1  N   UNL     1       2.915   3.635  18.179  0.00  0.00    +0.000 NA
ATOM      2  C   UNL     1       2.720   5.046  17.744  0.00  0.00    +0.000 C 
ATOM      3  C   UNL     1       3.955   5.961  17.945  0.00  0.00    +0.000 C 
ATOM      4  N   UNL     1       5.170   5.355  17.382  0.00  0.00    +0.000 N 
ATOM      5  C   UNL     1       5.721   5.892  16.227  0.00  0.00    +0.000 C 
ATOM      6  O   UNL     1       5.267   6.914  15.703  0.00  0.00    +0.000 OA
ATOM      7  C   UNL     1       5.398   3.972  17.825  0.00  0.00    +0.000 C 
ATOM      8  C   UNL     1       4.144   3.128  17.518  0.00  0.00    +0.000 C 
ENDROOT
BRANCH   1   9
ATOM      9  C   UNL     1       2.965   3.549  19.662  0.00  0.00    +0.000 C 
BRANCH   9  11
ATOM     10  C   UNL     1       1.308   5.140  20.777  0.00  0.00    +0.000 C 
ATOM     11  C   UNL     1       1.622   3.679  20.451  0.00  0.00    +0.000 C 
ATOM     12  C   UNL     1       1.707   2.854  21.742  0.00  0.00    +0.000 C 
BRANCH  11  13
ATOM     13  O   UNL     1       0.543   3.106  19.701  0.00  0.00    +0.000 OA
ATOM     14  H   UNL     1       0.145   2.400  20.242  0.00  0.00    +0.000 HD
ENDBRANCH  11  13
ENDBRANCH   9  11
ENDBRANCH   1   9
BRANCH   5  15
ATOM     15  C   UNL     1       6.954   5.215  15.608  0.00  0.00    +0.000 C 
BRANCH  15  16
ATOM     16  N   UNL     1       6.777   4.791  14.223  0.00  0.00    +0.000 N 
ATOM     17  C   UNL     1       5.714   3.880  13.885  0.00  0.00    +0.000 C 
ATOM     18  S   UNL     1       6.074   3.237  12.245  0.00  0.00    +0.000 S 
ATOM     19  C   UNL     1       7.323   4.495  11.899  0.00  0.00    +0.000 C 
ATOM     20  C   UNL     1       7.672   5.133  13.226  0.00  0.00    +0.000 C 
ATOM     21  O   UNL     1       8.628   5.878  13.380  0.00  0.00    +0.000 OA
ENDBRANCH  15  16
ENDBRANCH   5  15
TORSDOF 5
ENDMDL
MODEL 2
REMARK VINA RESULT:      -6.6      0.974      1.242
REMARK  Name = 
REMARK  7 active torsions:
REMARK  status: ('A' for Active; 'I' for Inactive)
REMARK    1  A    between atoms: C_1  and  C_2
REMARK    2  A    between atoms: C_2  and  C_3
REMARK    3  A    between atoms: C_2  and  O_4
REMARK    4  A    between atoms: C_2  and  C_5
REMARK    5  A    between atoms: C_5  and  N_6
REMARK    6  A    between atoms: C_10  and  C_12
REMARK    7  A    between atoms: C_12  and  N_13
REMARK                            x       y       z     vdW  Elec       q    Type
REMARK                         _______ _______ _______ _____ _____    ______ ____
ROOT
ATOM      1  N   UNL     1       2.882   4.245  18.497  0.00  0.00    +0.000 NA
ATOM      2  C   UNL     1       2.769   5.595  17.877  0.00  0.00    +0.000 C 
ATOM      3  C   UNL     1       4.071   6.435  17.915  0.00  0.00    +0.000 C 
ATOM      4  N   UNL     1       5.218   5.669  17.406  0.00  0.00    +0.000 N 
ATOM      5  C   UNL     1       5.760   6.003  16.172  0.00  0.00    +0.000 C 
ATOM      6  O   UNL     1       5.358   6.975  15.526  0.00  0.00    +0.000 OA
ATOM      7  C   UNL     1       5.367   4.347  18.029  0.00  0.00    +0.000 C 
ATOM      8  C   UNL     1       4.047   3.564  17.877  0.00  0.00    +0.000 C 
ENDROOT
BRANCH   1   9
ATOM      9  C   UNL     1       2.984   4.358  19.976  0.00  0.00    +0.000 C 
BRANCH   9  11
ATOM     10  C   UNL     1       3.788   2.120  20.907  0.00  0.00    +0.000 C 
ATOM     11  C   UNL     1       2.619   3.104  20.835  0.00  0.00    +0.000 C 
ATOM     12  C   UNL     1       1.385   2.417  20.236  0.00  0.00    +0.000 C 
BRANCH  11  13
ATOM     13  O   UNL     1       2.233   3.497  22.159  0.00  0.00    +0.000 OA
ATOM     14  H   UNL     1       1.393   3.984  22.092  0.00  0.00    +0.000 HD
ENDBRANCH  11  13
ENDBRANCH   9  11
ENDBRANCH   1   9
BRANCH   5  15
ATOM     15  C   UNL     1       6.918   5.160  15.617  0.00  0.00    +0.000 C 
BRANCH  15  16
ATOM     16  N   UNL     1       6.755   4.753  14.226  0.00  0.00    +0.000 N 
ATOM     17  C   UNL     1       5.701   3.838  13.868  0.00  0.00    +0.000 C 
ATOM     18  S   UNL     1       6.078   3.219  12.222  0.00  0.00    +0.000 S 
ATOM     19  C   UNL     1       7.320   4.492  11.902  0.00  0.00    +0.000 C 
ATOM     20  C   UNL     1       7.654   5.115  13.240  0.00  0.00    +0.000 C 
ATOM     21  O   UNL     1       8.603   5.865  13.411  0.00  0.00    +0.000 OA
ENDBRANCH  15  16
ENDBRANCH   5  15
TORSDOF 5
ENDMDL
MODEL 3
REMARK VINA RESULT:      -6.6      0.978      1.145
REMARK  Name = 
REMARK  7 active torsions:
REMARK  status: ('A' for Active; 'I' for Inactive)
REMARK    1  A    between atoms: C_1  and  C_2
REMARK    2  A    between atoms: C_2  and  C_3
REMARK    3  A    between atoms: C_2  and  O_4
REMARK    4  A    between atoms: C_2  and  C_5
REMARK    5  A    between atoms: C_5  and  N_6
REMARK    6  A    between atoms: C_10  and  C_12
REMARK    7  A    between atoms: C_12  and  N_13
REMARK                            x       y       z     vdW  Elec       q    Type
REMARK                         _______ _______ _______ _____ _____    ______ ____
ROOT
ATOM      1  N   UNL     1       2.594   4.524  18.120  0.00  0.00    +0.000 NA
ATOM      2  C   UNL     1       2.901   5.953  17.832  0.00  0.00    +0.000 C 
ATOM      3  C   UNL     1       4.352   6.383  18.166  0.00  0.00    +0.000 C 
ATOM      4  N   UNL     1       5.334   5.461  17.578  0.00  0.00    +0.000 N 
ATOM      5  C   UNL     1       6.103   5.887  16.504  0.00  0.00    +0.000 C 
ATOM      6  O   UNL     1       6.043   7.044  16.078  0.00  0.00    +0.000 OA
ATOM      7  C   UNL     1       5.068   4.048  17.879  0.00  0.00    +0.000 C 
ATOM      8  C   UNL     1       3.629   3.700  17.446  0.00  0.00    +0.000 C 
ENDROOT
BRANCH   1   9
ATOM      9  C   UNL     1       2.520   4.293  19.587  0.00  0.00    +0.000 C 
BRANCH   9  11
ATOM     10  C   UNL     1       1.080   2.231  19.140  0.00  0.00    +0.000 C 
ATOM     11  C   UNL     1       2.096   2.873  20.086  0.00  0.00    +0.000 C 
ATOM     12  C   UNL     1       1.509   2.984  21.499  0.00  0.00    +0.000 C 
BRANCH  11  13
ATOM     13  O   UNL     1       3.244   2.024  20.214  0.00  0.00    +0.000 OA
ATOM     14  H   UNL     1       2.992   1.134  19.911  0.00  0.00    +0.000 HD
ENDBRANCH  11  13
ENDBRANCH   9  11
ENDBRANCH   1   9
BRANCH   5  15
ATOM     15  C   UNL     1       7.083   4.898  15.854  0.00  0.00    +0.000 C 
BRANCH  15  16
ATOM     16  N   UNL     1       6.829   4.638  14.441  0.00  0.00    +0.000 N 
ATOM     17  C   UNL     1       5.755   3.757  14.058  0.00  0.00    +0.000 C 
ATOM     18  S   UNL     1       6.023   3.318  12.335  0.00  0.00    +0.000 S 
ATOM     19  C   UNL     1       7.240   4.627  12.070  0.00  0.00    +0.000 C 
ATOM     20  C   UNL     1       7.660   5.109  13.442  0.00  0.00    +0.000 C 
ATOM     21  O   UNL     1       8.617   5.845  13.629  0.00  0.00    +0.000 OA
ENDBRANCH  15  16
ENDBRANCH   5  15
TORSDOF 5
ENDMDL
MODEL 4
REMARK VINA RESULT:      -6.1      1.276      1.690
REMARK  Name = 
REMARK  7 active torsions:
REMARK  status: ('A' for Active; 'I' for Inactive)
REMARK    1  A    between atoms: C_1  and  C_2
REMARK    2  A    between atoms: C_2  and  C_3
REMARK    3  A    between atoms: C_2  and  O_4
REMARK    4  A    between atoms: C_2  and  C_5
REMARK    5  A    between atoms: C_5  and  N_6
REMARK    6  A    between atoms: C_10  and  C_12
REMARK    7  A    between atoms: C_12  and  N_13
REMARK                            x       y       z     vdW  Elec       q    Type
REMARK                         _______ _______ _______ _____ _____    ______ ____
ROOT
ATOM      1  N   UNL     1       3.872   5.155  19.404  0.00  0.00    +0.000 NA
ATOM      2  C   UNL     1       5.117   4.354  19.568  0.00  0.00    +0.000 C 
ATOM      3  C   UNL     1       5.545   3.560  18.308  0.00  0.00    +0.000 C 
ATOM      4  N   UNL     1       5.575   4.419  17.115  0.00  0.00    +0.000 N 
ATOM      5  C   UNL     1       6.800   4.771  16.565  0.00  0.00    +0.000 C 
ATOM      6  O   UNL     1       7.863   4.317  17.000  0.00  0.00    +0.000 OA
ATOM      7  C   UNL     1       4.342   5.193  16.918  0.00  0.00    +0.000 C 
ATOM      8  C   UNL     1       4.040   6.002  18.196  0.00  0.00    +0.000 C 
ENDROOT
BRANCH   1   9
ATOM      9  C   UNL     1       2.683   4.263  19.338  0.00  0.00    +0.000 C 
BRANCH   9  11
ATOM     10  C   UNL     1       1.414   5.800  20.935  0.00  0.00    +0.000 C 
ATOM     11  C   UNL     1       1.634   4.352  20.492  0.00  0.00    +0.000 C 
ATOM     12  C   UNL     1       2.107   3.501  21.678  0.00  0.00    +0.000 C 
BRANCH  11  13
ATOM     13  O   UNL     1       0.387   3.776  20.082  0.00  0.00    +0.000 OA
ATOM     14  H   UNL     1      -0.062   3.438  20.877  0.00  0.00    +0.000 HD
ENDBRANCH  11  13
ENDBRANCH   9  11
ENDBRANCH   1   9
BRANCH   5  15
ATOM     15  C   UNL     1       6.826   5.720  15.358  0.00  0.00    +0.000 C 
BRANCH  15  16
ATOM     16  N   UNL     1       6.731   5.053  14.064  0.00  0.00    +0.000 N 
ATOM     17  C   UNL     1       5.649   4.137  13.810  0.00  0.00    +0.000 C 
ATOM     18  S   UNL     1       6.096   3.186  12.350  0.00  0.00    +0.000 S 
ATOM     19  C   UNL     1       7.433   4.309  11.886  0.00  0.00    +0.000 C 
ATOM     20  C   UNL     1       7.715   5.169  13.099  0.00  0.00    +0.000 C 
ATOM     21  O   UNL     1       8.695   5.892  13.194  0.00  0.00    +0.000 OA
ENDBRANCH  15  16
ENDBRANCH   5  15
TORSDOF 5
ENDMDL
MODEL 5
REMARK VINA RESULT:      -5.9      2.593      6.723
REMARK  Name = 
REMARK  7 active torsions:
REMARK  status: ('A' for Active; 'I' for Inactive)
REMARK    1  A    between atoms: C_1  and  C_2
REMARK    2  A    between atoms: C_2  and  C_3
REMARK    3  A    between atoms: C_2  and  O_4
REMARK    4  A    between atoms: C_2  and  C_5
REMARK    5  A    between atoms: C_5  and  N_6
REMARK    6  A    between atoms: C_10  and  C_12
REMARK    7  A    between atoms: C_12  and  N_13
REMARK                            x       y       z     vdW  Elec       q    Type
REMARK                         _______ _______ _______ _____ _____    ______ ____
ROOT
ATOM      1  N   UNL     1       6.192   3.742  15.302  0.00  0.00    +0.000 NA
ATOM      2  C   UNL     1       7.241   4.302  16.200  0.00  0.00    +0.000 C 
ATOM      3  C   UNL     1       6.845   5.621  16.912  0.00  0.00    +0.000 C 
ATOM      4  N   UNL     1       5.535   5.505  17.569  0.00  0.00    +0.000 N 
ATOM      5  C   UNL     1       5.476   5.451  18.955  0.00  0.00    +0.000 C 
ATOM      6  O   UNL     1       6.485   5.579  19.655  0.00  0.00    +0.000 OA
ATOM      7  C   UNL     1       4.480   4.986  16.689  0.00  0.00    +0.000 C 
ATOM      8  C   UNL     1       4.937   3.641  16.087  0.00  0.00    +0.000 C 
ENDROOT
BRANCH   1   9
ATOM      9  C   UNL     1       6.056   4.576  14.078  0.00  0.00    +0.000 C 
BRANCH   9  11
ATOM     10  C   UNL     1       7.221   4.547  11.805  0.00  0.00    +0.000 C 
ATOM     11  C   UNL     1       6.174   3.867  12.690  0.00  0.00    +0.000 C 
ATOM     12  C   UNL     1       4.807   3.877  11.995  0.00  0.00    +0.000 C 
BRANCH  11  13
ATOM     13  O   UNL     1       6.507   2.483  12.860  0.00  0.00    +0.000 OA
ATOM     14  H   UNL     1       7.176   2.252  12.191  0.00  0.00    +0.000 HD
ENDBRANCH  11  13
ENDBRANCH   9  11
ENDBRANCH   1   9
BRANCH   5  15
ATOM     15  C   UNL     1       4.110   5.266  19.633  0.00  0.00    +0.000 C 
BRANCH  15  16
ATOM     16  N   UNL     1       3.554   3.923  19.513  0.00  0.00    +0.000 N 
ATOM     17  C   UNL     1       4.421   2.778  19.631  0.00  0.00    +0.000 C 
ATOM     18  S   UNL     1       3.515   1.364  18.988  0.00  0.00    +0.000 S 
ATOM     19  C   UNL     1       1.927   2.224  19.012  0.00  0.00    +0.000 C 
ATOM     20  C   UNL     1       2.236   3.697  19.164  0.00  0.00    +0.000 C 
ATOM     21  O   UNL     1       1.401   4.576  19.011  0.00  0.00    +0.000 OA
ENDBRANCH  15  16
ENDBRANCH   5  15
TORSDOF 5
ENDMDL
MODEL 6
REMARK VINA RESULT:      -5.8      1.538      2.015
REMARK  Name = 
REMARK  7 active torsions:
REMARK  status: ('A' for Active; 'I' for Inactive)
REMARK    1  A    between atoms: C_1  and  C_2
REMARK    2  A    between atoms: C_2  and  C_3
REMARK    3  A    between atoms: C_2  and  O_4
REMARK    4  A    between atoms: C_2  and  C_5
REMARK    5  A    between atoms: C_5  and  N_6
REMARK    6  A    between atoms: C_10  and  C_12
REMARK    7  A    between atoms: C_12  and  N_13
REMARK                            x       y       z     vdW  Elec       q    Type
REMARK                         _______ _______ _______ _____ _____    ______ ____
ROOT
ATOM      1  N   UNL     1       3.972   5.465  19.280  0.00  0.00    +0.000 NA
ATOM      2  C   UNL     1       5.163   4.597  19.495  0.00  0.00    +0.000 C 
ATOM      3  C   UNL     1       5.569   3.740  18.269  0.00  0.00    +0.000 C 
ATOM      4  N   UNL     1       5.675   4.560  17.053  0.00  0.00    +0.000 N 
ATOM      5  C   UNL     1       6.929   4.820  16.520  0.00  0.00    +0.000 C 
ATOM      6  O   UNL     1       7.954   4.318  16.992  0.00  0.00    +0.000 OA
ATOM      7  C   UNL     1       4.495   5.399  16.805  0.00  0.00    +0.000 C 
ATOM      8  C   UNL     1       4.215   6.263  18.052  0.00  0.00    +0.000 C 
ENDROOT
BRANCH   1   9
ATOM      9  C   UNL     1       2.734   4.644  19.213  0.00  0.00    +0.000 C 
BRANCH   9  11
ATOM     10  C   UNL     1       2.825   2.743  20.916  0.00  0.00    +0.000 C 
ATOM     11  C   UNL     1       2.160   4.071  20.549  0.00  0.00    +0.000 C 
ATOM     12  C   UNL     1       0.643   3.886  20.415  0.00  0.00    +0.000 C 
BRANCH  11  13
ATOM     13  O   UNL     1       2.336   5.013  21.616  0.00  0.00    +0.000 OA
ATOM     14  H   UNL     1       2.750   4.545  22.362  0.00  0.00    +0.000 HD
ENDBRANCH  11  13
ENDBRANCH   9  11
ENDBRANCH   1   9
BRANCH   5  15
ATOM     15  C   UNL     1       7.038   5.729  15.287  0.00  0.00    +0.000 C 
BRANCH  15  16
ATOM     16  N   UNL     1       6.877   5.038  14.012  0.00  0.00    +0.000 N 
ATOM     17  C   UNL     1       5.818   4.075  13.850  0.00  0.00    +0.000 C 
ATOM     18  S   UNL     1       6.196   3.118  12.375  0.00  0.00    +0.000 S 
ATOM     19  C   UNL     1       7.449   4.286  11.799  0.00  0.00    +0.000 C 
ATOM     20  C   UNL     1       7.783   5.177  12.977  0.00  0.00    +0.000 C 
ATOM     21  O   UNL     1       8.736   5.940  12.990  0.00  0.00    +0.000 OA
ENDBRANCH  15  16
ENDBRANCH   5  15
TORSDOF 5
ENDMDL
MODEL 7
REMARK VINA RESULT:      -5.8      2.958      4.445
REMARK  Name = 
REMARK  7 active torsions:
REMARK  status: ('A' for Active; 'I' for Inactive)
REMARK    1  A    between atoms: C_1  and  C_2
REMARK    2  A    between atoms: C_2  and  C_3
REMARK    3  A    between atoms: C_2  and  O_4
REMARK    4  A    between atoms: C_2  and  C_5
REMARK    5  A    between atoms: C_5  and  N_6
REMARK    6  A    between atoms: C_10  and  C_12
REMARK    7  A    between atoms: C_12  and  N_13
REMARK                            x       y       z     vdW  Elec       q    Type
REMARK                         _______ _______ _______ _____ _____    ______ ____
ROOT
ATOM      1  N   UNL     1       2.249   6.144  20.659  0.00  0.00    +0.000 NA
ATOM      2  C   UNL     1       2.040   4.669  20.648  0.00  0.00    +0.000 C 
ATOM      3  C   UNL     1       1.592   4.089  19.283  0.00  0.00    +0.000 C 
ATOM      4  N   UNL     1       2.465   4.548  18.192  0.00  0.00    +0.000 N 
ATOM      5  C   UNL     1       3.339   3.647  17.600  0.00  0.00    +0.000 C 
ATOM      6  O   UNL     1       3.349   2.452  17.908  0.00  0.00    +0.000 OA
ATOM      7  C   UNL     1       2.656   6.005  18.165  0.00  0.00    +0.000 C 
ATOM      8  C   UNL     1       3.169   6.474  19.542  0.00  0.00    +0.000 C 
ENDROOT
BRANCH   1   9
ATOM      9  C   UNL     1       0.945   6.855  20.578  0.00  0.00    +0.000 C 
BRANCH   9  11
ATOM     10  C   UNL     1      -0.461   8.549  21.873  0.00  0.00    +0.000 C 
ATOM     11  C   UNL     1       0.864   8.308  21.147  0.00  0.00    +0.000 C 
ATOM     12  C   UNL     1       1.031   9.314  20.002  0.00  0.00    +0.000 C 
BRANCH  11  13
ATOM     13  O   UNL     1       1.959   8.559  22.039  0.00  0.00    +0.000 OA
ATOM     14  H   UNL     1       1.609   9.029  22.816  0.00  0.00    +0.000 HD
ENDBRANCH  11  13
ENDBRANCH   9  11
ENDBRANCH   1   9
BRANCH   5  15
ATOM     15  C   UNL     1       4.292   4.148  16.504  0.00  0.00    +0.000 C 
BRANCH  15  16
ATOM     16  N   UNL     1       5.474   4.843  17.004  0.00  0.00    +0.000 N 
ATOM     17  C   UNL     1       6.102   4.398  18.222  0.00  0.00    +0.000 C 
ATOM     18  S   UNL     1       7.197   5.719  18.762  0.00  0.00    +0.000 S 
ATOM     19  C   UNL     1       7.127   6.582  17.176  0.00  0.00    +0.000 C 
ATOM     20  C   UNL     1       5.952   6.000  16.420  0.00  0.00    +0.000 C 
ATOM     21  O   UNL     1       5.501   6.498  15.400  0.00  0.00    +0.000 OA
ENDBRANCH  15  16
ENDBRANCH   5  15
TORSDOF 5
ENDMDL
MODEL 8
REMARK VINA RESULT:      -5.8      2.863      6.664
REMARK  Name = 
REMARK  7 active torsions:
REMARK  status: ('A' for Active; 'I' for Inactive)
REMARK    1  A    between atoms: C_1  and  C_2
REMARK    2  A    between atoms: C_2  and  C_3
REMARK    3  A    between atoms: C_2  and  O_4
REMARK    4  A    between atoms: C_2  and  C_5
REMARK    5  A    between atoms: C_5  and  N_6
REMARK    6  A    between atoms: C_10  and  C_12
REMARK    7  A    between atoms: C_12  and  N_13
REMARK                            x       y       z     vdW  Elec       q    Type
REMARK                         _______ _______ _______ _____ _____    ______ ____
ROOT
ATOM      1  N   UNL     1       6.119   3.721  15.294  0.00  0.00    +0.000 NA
ATOM      2  C   UNL     1       7.189   4.173  16.226  0.00  0.00    +0.000 C 
ATOM      3  C   UNL     1       6.900   5.517  16.940  0.00  0.00    +0.000 C 
ATOM      4  N   UNL     1       5.567   5.520  17.561  0.00  0.00    +0.000 N 
ATOM      5  C   UNL     1       5.465   5.462  18.944  0.00  0.00    +0.000 C 
ATOM      6  O   UNL     1       6.461   5.489  19.672  0.00  0.00    +0.000 OA
ATOM      7  C   UNL     1       4.492   5.109  16.647  0.00  0.00    +0.000 C 
ATOM      8  C   UNL     1       4.838   3.733  16.044  0.00  0.00    +0.000 C 
ENDROOT
BRANCH   1   9
ATOM      9  C   UNL     1       6.096   4.573  14.075  0.00  0.00    +0.000 C 
BRANCH   9  11
ATOM     10  C   UNL     1       7.223   4.552  11.784  0.00  0.00    +0.000 C 
ATOM     11  C   UNL     1       6.192   3.868  12.684  0.00  0.00    +0.000 C 
ATOM     12  C   UNL     1       4.814   3.876  12.012  0.00  0.00    +0.000 C 
BRANCH  11  13
ATOM     13  O   UNL     1       6.531   2.484  12.846  0.00  0.00    +0.000 OA
ATOM     14  H   UNL     1       7.498   2.423  12.940  0.00  0.00    +0.000 HD
ENDBRANCH  11  13
ENDBRANCH   9  11
ENDBRANCH   1   9
BRANCH   5  15
ATOM     15  C   UNL     1       4.069   5.401  19.583  0.00  0.00    +0.000 C 
BRANCH  15  16
ATOM     16  N   UNL     1       3.303   4.206  19.246  0.00  0.00    +0.000 N 
ATOM     17  C   UNL     1       1.957   4.336  18.752  0.00  0.00    +0.000 C 
ATOM     18  S   UNL     1       1.188   2.715  18.885  0.00  0.00    +0.000 S 
ATOM     19  C   UNL     1       2.760   1.864  19.151  0.00  0.00    +0.000 C 
ATOM     20  C   UNL     1       3.774   2.931  19.500  0.00  0.00    +0.000 C 
ATOM     21  O   UNL     1       4.887   2.679  19.938  0.00  0.00    +0.000 OA
ENDBRANCH  15  16
ENDBRANCH   5  15
TORSDOF 5
ENDMDL
MODEL 9
REMARK VINA RESULT:      -5.7      2.983      6.923
REMARK  Name = 
REMARK  7 active torsions:
REMARK  status: ('A' for Active; 'I' for Inactive)
REMARK    1  A    between atoms: C_1  and  C_2
REMARK    2  A    between atoms: C_2  and  C_3
REMARK    3  A    between atoms: C_2  and  O_4
REMARK    4  A    between atoms: C_2  and  C_5
REMARK    5  A    between atoms: C_5  and  N_6
REMARK    6  A    between atoms: C_10  and  C_12
REMARK    7  A    between atoms: C_12  and  N_13
REMARK                            x       y       z     vdW  Elec       q    Type
REMARK                         _______ _______ _______ _____ _____    ______ ____
ROOT
ATOM      1  N   UNL     1       6.378   4.020  14.397  0.00  0.00    +0.000 NA
ATOM      2  C   UNL     1       6.461   5.487  14.641  0.00  0.00    +0.000 C 
ATOM      3  C   UNL     1       5.313   6.065  15.507  0.00  0.00    +0.000 C 
ATOM      4  N   UNL     1       5.132   5.292  16.744  0.00  0.00    +0.000 N 
ATOM      5  C   UNL     1       5.511   5.856  17.955  0.00  0.00    +0.000 C 
ATOM      6  O   UNL     1       5.920   7.018  18.032  0.00  0.00    +0.000 OA
ATOM      7  C   UNL     1       5.014   3.845  16.522  0.00  0.00    +0.000 C 
ATOM      8  C   UNL     1       6.235   3.355  15.716  0.00  0.00    +0.000 C 
ENDROOT
BRANCH   1   9
ATOM      9  C   UNL     1       5.268   3.710  13.457  0.00  0.00    +0.000 C 
BRANCH   9  11
ATOM     10  C   UNL     1       6.879   3.883  11.483  0.00  0.00    +0.000 C 
ATOM     11  C   UNL     1       5.636   3.180  12.034  0.00  0.00    +0.000 C 
ATOM     12  C   UNL     1       4.447   3.388  11.089  0.00  0.00    +0.000 C 
BRANCH  11  13
ATOM     13  O   UNL     1       5.855   1.763  12.068  0.00  0.00    +0.000 OA
ATOM     14  H   UNL     1       6.444   1.534  11.327  0.00  0.00    +0.000 HD
ENDBRANCH  11  13
ENDBRANCH   9  11
ENDBRANCH   1   9
BRANCH   5  15
ATOM     15  C   UNL     1       5.378   5.019  19.236  0.00  0.00    +0.000 C 
BRANCH  15  16
ATOM     16  N   UNL     1       4.010   4.640  19.571  0.00  0.00    +0.000 N 
ATOM     17  C   UNL     1       2.996   5.656  19.690  0.00  0.00    +0.000 C 
ATOM     18  S   UNL     1       1.597   4.908  20.538  0.00  0.00    +0.000 S 
ATOM     19  C   UNL     1       2.208   3.224  20.302  0.00  0.00    +0.000 C 
ATOM     20  C   UNL     1       3.662   3.344  19.903  0.00  0.00    +0.000 C 
ATOM     21  O   UNL     1       4.427   2.392  19.866  0.00  0.00    +0.000 OA
ENDBRANCH  15  16
ENDBRANCH   5  15
TORSDOF 5
ENDMDL
