MODEL 1
REMARK VINA RESULT:      -8.7      0.000      0.000
REMARK  Name = 
REMARK  7 active torsions:
REMARK  status: ('A' for Active; 'I' for Inactive)
REMARK    1  A    between atoms: C_1  and  C_2
REMARK    2  A    between atoms: C_3  and  C_4
REMARK    3  A    between atoms: C_4  and  O_5
REMARK    4  A    between atoms: O_5  and  C_6
REMARK    5  A    between atoms: C_10  and  O_11
REMARK    6  A    between atoms: O_11  and  C_12
REMARK    7  A    between atoms: C_12  and  C_13
REMARK                            x       y       z     vdW  Elec       q    Type
REMARK                         _______ _______ _______ _____ _____    ______ ____
ROOT
ATOM      1  O   UNL     1       6.222   4.706  16.194  0.00  0.00    +0.000 OA
ENDROOT
BRANCH   1   2
ATOM      2  C   UNL     1       6.956   5.387  17.125  0.00  0.00    +0.000 A 
ATOM      3  C   UNL     1       7.333   4.863  18.353  0.00  0.00    +0.000 A 
ATOM      4  C   UNL     1       8.007   5.690  19.248  0.00  0.00    +0.000 A 
ATOM      5  C   UNL     1       8.276   7.011  18.895  0.00  0.00    +0.000 A 
ATOM      6  C   UNL     1       7.862   7.463  17.650  0.00  0.00    +0.000 A 
ATOM      7  N   UNL     1       7.208   6.666  16.774  0.00  0.00    +0.000 NA
BRANCH   6   8
ATOM      8  O   UNL     1       8.049   8.732  17.174  0.00  0.00    +0.000 OA
BRANCH   8   9
ATOM      9  C   UNL     1       7.836   9.824  18.069  0.00  0.00    +0.000 C 
BRANCH   9  10
ATOM     10  C   UNL     1       9.115  10.676  18.131  0.00  0.00    +0.000 C 
ATOM     11  C   UNL     1       9.758  10.628  19.525  0.00  0.00    +0.000 C 
ATOM     12  C   UNL     1      10.942  11.583  19.613  0.00  0.00    +0.000 C 
ATOM     13  O   UNL     1      10.544  12.911  19.270  0.00  0.00    +0.000 OA
ATOM     14  C   UNL     1      10.076  12.997  17.925  0.00  0.00    +0.000 C 
ATOM     15  C   UNL     1       8.835  12.132  17.735  0.00  0.00    +0.000 C 
ENDBRANCH   9  10
ENDBRANCH   8   9
ENDBRANCH   6   8
ENDBRANCH   1   2
BRANCH   1  16
ATOM     16  C   UNL     1       4.936   5.257  15.871  0.00  0.00    +0.000 C 
BRANCH  16  19
ATOM     17  C   UNL     1       3.895   7.708  17.489  0.00  0.00    +0.000 C 
ATOM     18  C   UNL     1       3.586   6.267  17.769  0.00  0.00    +0.000 A 
ATOM     19  C   UNL     1       4.041   5.174  17.111  0.00  0.00    +0.000 A 
ATOM     20  N   UNL     1       3.714   3.888  17.518  0.00  0.00    +0.000 N 
ATOM     21  C   UNL     1       2.797   3.629  18.541  0.00  0.00    +0.000 A 
ATOM     22  C   UNL     1       2.450   2.322  18.892  0.00  0.00    +0.000 A 
ATOM     23  C   UNL     1       1.576   2.080  19.957  0.00  0.00    +0.000 A 
ATOM     24  C   UNL     1       1.047   3.142  20.690  0.00  0.00    +0.000 A 
ATOM     25  C   UNL     1       1.395   4.450  20.362  0.00  0.00    +0.000 A 
ATOM     26  C   UNL     1       2.273   4.684  19.296  0.00  0.00    +0.000 A 
ATOM     27  C   UNL     1       2.663   6.065  18.938  0.00  0.00    +0.000 A 
ATOM     28  O   UNL     1       2.230   7.020  19.577  0.00  0.00    +0.000 OA
ATOM     29  H   UNL     1       3.926   3.144  16.855  0.00  0.00    +0.000 HD
ENDBRANCH  16  19
ENDBRANCH   1  16
TORSDOF 6
ENDMDL
MODEL 2
REMARK VINA RESULT:      -8.7      3.546      6.440
REMARK  Name = 
REMARK  7 active torsions:
REMARK  status: ('A' for Active; 'I' for Inactive)
REMARK    1  A    between atoms: C_1  and  C_2
REMARK    2  A    between atoms: C_3  and  C_4
REMARK    3  A    between atoms: C_4  and  O_5
REMARK    4  A    between atoms: O_5  and  C_6
REMARK    5  A    between atoms: C_10  and  O_11
REMARK    6  A    between atoms: O_11  and  C_12
REMARK    7  A    between atoms: C_12  and  C_13
REMARK                            x       y       z     vdW  Elec       q    Type
REMARK                         _______ _______ _______ _____ _____    ______ ____
ROOT
ATOM      1  O   UNL     1       1.671   5.423  20.370  0.00  0.00    +0.000 OA
ENDROOT
BRANCH   1   2
ATOM      2  C   UNL     1       1.798   4.329  19.560  0.00  0.00    +0.000 A 
ATOM      3  C   UNL     1       0.970   3.217  19.621  0.00  0.00    +0.000 A 
ATOM      4  C   UNL     1       1.257   2.131  18.797  0.00  0.00    +0.000 A 
ATOM      5  C   UNL     1       2.361   2.185  17.948  0.00  0.00    +0.000 A 
ATOM      6  C   UNL     1       3.144   3.330  17.948  0.00  0.00    +0.000 A 
ATOM      7  N   UNL     1       2.872   4.390  18.743  0.00  0.00    +0.000 NA
BRANCH   6   8
ATOM      8  O   UNL     1       4.257   3.520  17.177  0.00  0.00    +0.000 OA
BRANCH   8   9
ATOM      9  C   UNL     1       4.435   4.793  16.555  0.00  0.00    +0.000 C 
BRANCH   9  10
ATOM     10  C   UNL     1       5.865   5.288  16.831  0.00  0.00    +0.000 C 
ATOM     11  C   UNL     1       6.480   4.584  18.051  0.00  0.00    +0.000 C 
ATOM     12  C   UNL     1       7.838   5.179  18.398  0.00  0.00    +0.000 C 
ATOM     13  O   UNL     1       7.731   6.587  18.611  0.00  0.00    +0.000 OA
ATOM     14  C   UNL     1       7.295   7.273  17.439  0.00  0.00    +0.000 C 
ATOM     15  C   UNL     1       5.901   6.809  17.036  0.00  0.00    +0.000 C 
ENDBRANCH   9  10
ENDBRANCH   8   9
ENDBRANCH   6   8
ENDBRANCH   1   2
BRANCH   1  16
ATOM     16  C   UNL     1       2.578   6.509  20.118  0.00  0.00    +0.000 C 
BRANCH  16  19
ATOM     17  C   UNL     1       2.159   8.508  17.766  0.00  0.00    +0.000 C 
ATOM     18  C   UNL     1       1.619   8.654  19.157  0.00  0.00    +0.000 A 
ATOM     19  C   UNL     1       1.803   7.826  20.213  0.00  0.00    +0.000 A 
ATOM     20  N   UNL     1       1.285   8.117  21.468  0.00  0.00    +0.000 N 
ATOM     21  C   UNL     1       0.436   9.203  21.702  0.00  0.00    +0.000 A 
ATOM     22  C   UNL     1      -0.109   9.439  22.967  0.00  0.00    +0.000 A 
ATOM     23  C   UNL     1      -0.910  10.563  23.197  0.00  0.00    +0.000 A 
ATOM     24  C   UNL     1      -1.164  11.470  22.169  0.00  0.00    +0.000 A 
ATOM     25  C   UNL     1      -0.615  11.257  20.907  0.00  0.00    +0.000 A 
ATOM     26  C   UNL     1       0.187  10.130  20.684  0.00  0.00    +0.000 A 
ATOM     27  C   UNL     1       0.789   9.891  19.355  0.00  0.00    +0.000 A 
ATOM     28  O   UNL     1       0.599  10.682  18.435  0.00  0.00    +0.000 OA
ATOM     29  H   UNL     1       1.295   7.352  22.141  0.00  0.00    +0.000 HD
ENDBRANCH  16  19
ENDBRANCH   1  16
TORSDOF 6
ENDMDL
MODEL 3
REMARK VINA RESULT:      -8.7      3.902      6.930
REMARK  Name = 
REMARK  7 active torsions:
REMARK  status: ('A' for Active; 'I' for Inactive)
REMARK    1  A    between atoms: C_1  and  C_2
REMARK    2  A    between atoms: C_3  and  C_4
REMARK    3  A    between atoms: C_4  and  O_5
REMARK    4  A    between atoms: O_5  and  C_6
REMARK    5  A    between atoms: C_10  and  O_11
REMARK    6  A    between atoms: O_11  and  C_12
REMARK    7  A    between atoms: C_12  and  C_13
REMARK                            x       y       z     vdW  Elec       q    Type
REMARK                         _______ _______ _______ _____ _____    ______ ____
ROOT
ATOM      1  O   UNL     1       1.668   6.005  20.730  0.00  0.00    +0.000 OA
ENDROOT
BRANCH   1   2
ATOM      2  C   UNL     1       2.222   4.758  20.663  0.00  0.00    +0.000 A 
ATOM      3  C   UNL     1       1.973   3.747  21.580  0.00  0.00    +0.000 A 
ATOM      4  C   UNL     1       2.667   2.546  21.448  0.00  0.00    +0.000 A 
ATOM      5  C   UNL     1       3.590   2.395  20.414  0.00  0.00    +0.000 A 
ATOM      6  C   UNL     1       3.787   3.455  19.540  0.00  0.00    +0.000 A 
ATOM      7  N   UNL     1       3.117   4.623  19.660  0.00  0.00    +0.000 NA
BRANCH   6   8
ATOM      8  O   UNL     1       4.663   3.452  18.489  0.00  0.00    +0.000 OA
BRANCH   8   9
ATOM      9  C   UNL     1       4.129   3.573  17.170  0.00  0.00    +0.000 C 
BRANCH   9  10
ATOM     10  C   UNL     1       4.979   4.581  16.378  0.00  0.00    +0.000 C 
ATOM     11  C   UNL     1       6.010   3.873  15.486  0.00  0.00    +0.000 C 
ATOM     12  C   UNL     1       6.936   4.879  14.816  0.00  0.00    +0.000 C 
ATOM     13  O   UNL     1       7.574   5.704  15.791  0.00  0.00    +0.000 OA
ATOM     14  C   UNL     1       6.633   6.477  16.534  0.00  0.00    +0.000 C 
ATOM     15  C   UNL     1       5.691   5.568  17.314  0.00  0.00    +0.000 C 
ENDBRANCH   9  10
ENDBRANCH   8   9
ENDBRANCH   6   8
ENDBRANCH   1   2
BRANCH   1  16
ATOM     16  C   UNL     1       2.282   7.018  19.916  0.00  0.00    +0.000 C 
BRANCH  16  19
ATOM     17  C   UNL     1       1.946   9.219  17.737  0.00  0.00    +0.000 C 
ATOM     18  C   UNL     1       1.369   9.249  19.121  0.00  0.00    +0.000 A 
ATOM     19  C   UNL     1       1.516   8.330  20.105  0.00  0.00    +0.000 A 
ATOM     20  N   UNL     1       0.966   8.516  21.366  0.00  0.00    +0.000 N 
ATOM     21  C   UNL     1       0.120   9.587  21.671  0.00  0.00    +0.000 A 
ATOM     22  C   UNL     1      -0.459   9.717  22.936  0.00  0.00    +0.000 A 
ATOM     23  C   UNL     1      -1.255  10.825  23.243  0.00  0.00    +0.000 A 
ATOM     24  C   UNL     1      -1.474  11.822  22.290  0.00  0.00    +0.000 A 
ATOM     25  C   UNL     1      -0.891  11.714  21.030  0.00  0.00    +0.000 A 
ATOM     26  C   UNL     1      -0.092  10.602  20.732  0.00  0.00    +0.000 A 
ATOM     27  C   UNL     1       0.544  10.473  19.404  0.00  0.00    +0.000 A 
ATOM     28  O   UNL     1       0.387  11.343  18.551  0.00  0.00    +0.000 OA
ATOM     29  H   UNL     1       0.950   7.696  21.970  0.00  0.00    +0.000 HD
ENDBRANCH  16  19
ENDBRANCH   1  16
TORSDOF 6
ENDMDL
MODEL 4
REMARK VINA RESULT:      -8.6      3.587      6.860
REMARK  Name = 
REMARK  7 active torsions:
REMARK  status: ('A' for Active; 'I' for Inactive)
REMARK    1  A    between atoms: C_1  and  C_2
REMARK    2  A    between atoms: C_3  and  C_4
REMARK    3  A    between atoms: C_4  and  O_5
REMARK    4  A    between atoms: O_5  and  C_6
REMARK    5  A    between atoms: C_10  and  O_11
REMARK    6  A    between atoms: O_11  and  C_12
REMARK    7  A    between atoms: C_12  and  C_13
REMARK                            x       y       z     vdW  Elec       q    Type
REMARK                         _______ _______ _______ _____ _____    ______ ____
ROOT
ATOM      1  O   UNL     1       1.872   5.565  20.655  0.00  0.00    +0.000 OA
ENDROOT
BRANCH   1   2
ATOM      2  C   UNL     1       1.703   4.382  19.991  0.00  0.00    +0.000 A 
ATOM      3  C   UNL     1       0.762   3.424  20.339  0.00  0.00    +0.000 A 
ATOM      4  C   UNL     1       0.747   2.223  19.633  0.00  0.00    +0.000 A 
ATOM      5  C   UNL     1       1.673   2.013  18.614  0.00  0.00    +0.000 A 
ATOM      6  C   UNL     1       2.587   3.017  18.328  0.00  0.00    +0.000 A 
ATOM      7  N   UNL     1       2.607   4.188  19.007  0.00  0.00    +0.000 NA
BRANCH   6   8
ATOM      8  O   UNL     1       3.555   2.948  17.365  0.00  0.00    +0.000 OA
BRANCH   8   9
ATOM      9  C   UNL     1       3.798   4.111  16.571  0.00  0.00    +0.000 C 
BRANCH   9  10
ATOM     10  C   UNL     1       5.224   4.615  16.849  0.00  0.00    +0.000 C 
ATOM     11  C   UNL     1       5.256   6.138  17.048  0.00  0.00    +0.000 C 
ATOM     12  C   UNL     1       6.687   6.641  17.182  0.00  0.00    +0.000 C 
ATOM     13  O   UNL     1       7.467   6.249  16.052  0.00  0.00    +0.000 OA
ATOM     14  C   UNL     1       7.564   4.830  15.938  0.00  0.00    +0.000 C 
ATOM     15  C   UNL     1       6.186   4.216  15.721  0.00  0.00    +0.000 C 
ENDBRANCH   9  10
ENDBRANCH   8   9
ENDBRANCH   6   8
ENDBRANCH   1   2
BRANCH   1  16
ATOM     16  C   UNL     1       2.579   6.596  19.947  0.00  0.00    +0.000 C 
BRANCH  16  19
ATOM     17  C   UNL     1       2.194   8.721  17.702  0.00  0.00    +0.000 C 
ATOM     18  C   UNL     1       1.645   8.798  19.095  0.00  0.00    +0.000 A 
ATOM     19  C   UNL     1       1.814   7.913  20.107  0.00  0.00    +0.000 A 
ATOM     20  N   UNL     1       1.290   8.141  21.373  0.00  0.00    +0.000 N 
ATOM     21  C   UNL     1       0.448   9.221  21.658  0.00  0.00    +0.000 A 
ATOM     22  C   UNL     1      -0.104   9.393  22.930  0.00  0.00    +0.000 A 
ATOM     23  C   UNL     1      -0.897  10.510  23.215  0.00  0.00    +0.000 A 
ATOM     24  C   UNL     1      -1.137  11.474  22.234  0.00  0.00    +0.000 A 
ATOM     25  C   UNL     1      -0.580  11.323  20.966  0.00  0.00    +0.000 A 
ATOM     26  C   UNL     1       0.215  10.203  20.689  0.00  0.00    +0.000 A 
ATOM     27  C   UNL     1       0.823  10.029  19.353  0.00  0.00    +0.000 A 
ATOM     28  O   UNL     1       0.647  10.870  18.475  0.00  0.00    +0.000 OA
ATOM     29  H   UNL     1       1.289   7.342  22.004  0.00  0.00    +0.000 HD
ENDBRANCH  16  19
ENDBRANCH   1  16
TORSDOF 6
ENDMDL
MODEL 5
REMARK VINA RESULT:      -8.3      1.006      1.060
REMARK  Name = 
REMARK  7 active torsions:
REMARK  status: ('A' for Active; 'I' for Inactive)
REMARK    1  A    between atoms: C_1  and  C_2
REMARK    2  A    between atoms: C_3  and  C_4
REMARK    3  A    between atoms: C_4  and  O_5
REMARK    4  A    between atoms: O_5  and  C_6
REMARK    5  A    between atoms: C_10  and  O_11
REMARK    6  A    between atoms: O_11  and  C_12
REMARK    7  A    between atoms: C_12  and  C_13
REMARK                            x       y       z     vdW  Elec       q    Type
REMARK                         _______ _______ _______ _____ _____    ______ ____
ROOT
ATOM      1  O   UNL     1       5.881   5.750  16.196  0.00  0.00    +0.000 OA
ENDROOT
BRANCH   1   2
ATOM      2  C   UNL     1       6.781   6.199  17.122  0.00  0.00    +0.000 A 
ATOM      3  C   UNL     1       7.260   5.432  18.174  0.00  0.00    +0.000 A 
ATOM      4  C   UNL     1       8.109   6.034  19.100  0.00  0.00    +0.000 A 
ATOM      5  C   UNL     1       8.444   7.379  18.953  0.00  0.00    +0.000 A 
ATOM      6  C   UNL     1       7.919   8.081  17.878  0.00  0.00    +0.000 A 
ATOM      7  N   UNL     1       7.096   7.504  16.973  0.00  0.00    +0.000 NA
BRANCH   6   8
ATOM      8  O   UNL     1       8.153   9.402  17.613  0.00  0.00    +0.000 OA
BRANCH   8   9
ATOM      9  C   UNL     1       8.664  10.219  18.668  0.00  0.00    +0.000 C 
BRANCH   9  10
ATOM     10  C   UNL     1       9.782  11.114  18.109  0.00  0.00    +0.000 C 
ATOM     11  C   UNL     1      10.941  11.258  19.108  0.00  0.00    +0.000 C 
ATOM     12  C   UNL     1      11.976  12.255  18.603  0.00  0.00    +0.000 C 
ATOM     13  O   UNL     1      11.367  13.518  18.329  0.00  0.00    +0.000 OA
ATOM     14  C   UNL     1      10.385  13.423  17.299  0.00  0.00    +0.000 C 
ATOM     15  C   UNL     1       9.249  12.501  17.727  0.00  0.00    +0.000 C 
ENDBRANCH   9  10
ENDBRANCH   8   9
ENDBRANCH   6   8
ENDBRANCH   1   2
BRANCH   1  16
ATOM     16  C   UNL     1       4.600   6.400  16.187  0.00  0.00    +0.000 C 
BRANCH  16  19
ATOM     17  C   UNL     1       2.887   8.460  17.776  0.00  0.00    +0.000 C 
ATOM     18  C   UNL     1       3.137   7.033  18.163  0.00  0.00    +0.000 A 
ATOM     19  C   UNL     1       3.897   6.116  17.518  0.00  0.00    +0.000 A 
ATOM     20  N   UNL     1       4.085   4.837  18.024  0.00  0.00    +0.000 N 
ATOM     21  C   UNL     1       3.407   4.363  19.151  0.00  0.00    +0.000 A 
ATOM     22  C   UNL     1       3.581   3.053  19.605  0.00  0.00    +0.000 A 
ATOM     23  C   UNL     1       2.940   2.613  20.768  0.00  0.00    +0.000 A 
ATOM     24  C   UNL     1       2.127   3.482  21.497  0.00  0.00    +0.000 A 
ATOM     25  C   UNL     1       1.957   4.795  21.066  0.00  0.00    +0.000 A 
ATOM     26  C   UNL     1       2.604   5.229  19.902  0.00  0.00    +0.000 A 
ATOM     27  C   UNL     1       2.445   6.622  19.432  0.00  0.00    +0.000 A 
ATOM     28  O   UNL     1       1.753   7.416  20.063  0.00  0.00    +0.000 OA
ATOM     29  H   UNL     1       4.495   4.160  17.382  0.00  0.00    +0.000 HD
ENDBRANCH  16  19
ENDBRANCH   1  16
TORSDOF 6
ENDMDL
MODEL 6
REMARK VINA RESULT:      -8.1      4.996      8.665
REMARK  Name = 
REMARK  7 active torsions:
REMARK  status: ('A' for Active; 'I' for Inactive)
REMARK    1  A    between atoms: C_1  and  C_2
REMARK    2  A    between atoms: C_3  and  C_4
REMARK    3  A    between atoms: C_4  and  O_5
REMARK    4  A    between atoms: O_5  and  C_6
REMARK    5  A    between atoms: C_10  and  O_11
REMARK    6  A    between atoms: O_11  and  C_12
REMARK    7  A    between atoms: C_12  and  C_13
REMARK                            x       y       z     vdW  Elec       q    Type
REMARK                         _______ _______ _______ _____ _____    ______ ____
ROOT
ATOM      1  O   UNL     1       2.001   7.913  20.348  0.00  0.00    +0.000 OA
ENDROOT
BRANCH   1   2
ATOM      2  C   UNL     1       1.183   8.825  20.955  0.00  0.00    +0.000 A 
ATOM      3  C   UNL     1       0.957   8.876  22.322  0.00  0.00    +0.000 A 
ATOM      4  C   UNL     1       0.034   9.800  22.808  0.00  0.00    +0.000 A 
ATOM      5  C   UNL     1      -0.636  10.635  21.917  0.00  0.00    +0.000 A 
ATOM      6  C   UNL     1      -0.359  10.521  20.562  0.00  0.00    +0.000 A 
ATOM      7  N   UNL     1       0.536   9.628  20.082  0.00  0.00    +0.000 NA
BRANCH   6   8
ATOM      8  O   UNL     1      -0.944  11.266  19.575  0.00  0.00    +0.000 OA
BRANCH   8   9
ATOM      9  C   UNL     1      -0.949  10.738  18.248  0.00  0.00    +0.000 C 
BRANCH   9  10
ATOM     10  C   UNL     1      -2.152  11.318  17.485  0.00  0.00    +0.000 C 
ATOM     11  C   UNL     1      -3.419  11.331  18.355  0.00  0.00    +0.000 C 
ATOM     12  C   UNL     1      -4.631  11.776  17.547  0.00  0.00    +0.000 C 
ATOM     13  O   UNL     1      -4.801  10.948  16.396  0.00  0.00    +0.000 OA
ATOM     14  C   UNL     1      -3.689  11.036  15.507  0.00  0.00    +0.000 C 
ATOM     15  C   UNL     1      -2.419  10.540  16.189  0.00  0.00    +0.000 C 
ENDBRANCH   9  10
ENDBRANCH   8   9
ENDBRANCH   6   8
ENDBRANCH   1   2
BRANCH   1  16
ATOM     16  C   UNL     1       1.706   6.530  20.600  0.00  0.00    +0.000 C 
BRANCH  16  19
ATOM     17  C   UNL     1       1.065   3.539  20.010  0.00  0.00    +0.000 C 
ATOM     18  C   UNL     1       2.065   4.388  19.285  0.00  0.00    +0.000 A 
ATOM     19  C   UNL     1       2.396   5.679  19.529  0.00  0.00    +0.000 A 
ATOM     20  N   UNL     1       3.388   6.329  18.807  0.00  0.00    +0.000 N 
ATOM     21  C   UNL     1       4.021   5.750  17.703  0.00  0.00    +0.000 A 
ATOM     22  C   UNL     1       4.981   6.450  16.967  0.00  0.00    +0.000 A 
ATOM     23  C   UNL     1       5.646   5.835  15.901  0.00  0.00    +0.000 A 
ATOM     24  C   UNL     1       5.368   4.509  15.566  0.00  0.00    +0.000 A 
ATOM     25  C   UNL     1       4.425   3.794  16.300  0.00  0.00    +0.000 A 
ATOM     26  C   UNL     1       3.765   4.415  17.368  0.00  0.00    +0.000 A 
ATOM     27  C   UNL     1       2.768   3.671  18.167  0.00  0.00    +0.000 A 
ATOM     28  O   UNL     1       2.516   2.496  17.909  0.00  0.00    +0.000 OA
ATOM     29  H   UNL     1       3.427   7.341  18.916  0.00  0.00    +0.000 HD
ENDBRANCH  16  19
ENDBRANCH   1  16
TORSDOF 6
ENDMDL
MODEL 7
REMARK VINA RESULT:      -7.9      0.917      1.218
REMARK  Name = 
REMARK  7 active torsions:
REMARK  status: ('A' for Active; 'I' for Inactive)
REMARK    1  A    between atoms: C_1  and  C_2
REMARK    2  A    between atoms: C_3  and  C_4
REMARK    3  A    between atoms: C_4  and  O_5
REMARK    4  A    between atoms: O_5  and  C_6
REMARK    5  A    between atoms: C_10  and  O_11
REMARK    6  A    between atoms: O_11  and  C_12
REMARK    7  A    between atoms: C_12  and  C_13
REMARK                            x       y       z     vdW  Elec       q    Type
REMARK                         _______ _______ _______ _____ _____    ______ ____
ROOT
ATOM      1  O   UNL     1       6.327   5.743  15.896  0.00  0.00    +0.000 OA
ENDROOT
BRANCH   1   2
ATOM      2  C   UNL     1       7.068   6.197  16.951  0.00  0.00    +0.000 A 
ATOM      3  C   UNL     1       7.306   5.465  18.105  0.00  0.00    +0.000 A 
ATOM      4  C   UNL     1       8.005   6.074  19.144  0.00  0.00    +0.000 A 
ATOM      5  C   UNL     1       8.436   7.392  19.004  0.00  0.00    +0.000 A 
ATOM      6  C   UNL     1       8.155   8.060  17.820  0.00  0.00    +0.000 A 
ATOM      7  N   UNL     1       7.477   7.476  16.806  0.00  0.00    +0.000 NA
BRANCH   6   8
ATOM      8  O   UNL     1       8.507   9.353  17.546  0.00  0.00    +0.000 OA
BRANCH   8   9
ATOM      9  C   UNL     1       8.088  10.371  18.456  0.00  0.00    +0.000 C 
BRANCH   9  10
ATOM     10  C   UNL     1       9.276  11.305  18.741  0.00  0.00    +0.000 C 
ATOM     11  C   UNL     1      10.421  11.082  17.741  0.00  0.00    +0.000 C 
ATOM     12  C   UNL     1      11.643  11.911  18.116  0.00  0.00    +0.000 C 
ATOM     13  O   UNL     1      12.057  11.622  19.452  0.00  0.00    +0.000 OA
ATOM     14  C   UNL     1      11.052  11.958  20.406  0.00  0.00    +0.000 C 
ATOM     15  C   UNL     1       9.795  11.128  20.175  0.00  0.00    +0.000 C 
ENDBRANCH   9  10
ENDBRANCH   8   9
ENDBRANCH   6   8
ENDBRANCH   1   2
BRANCH   1  16
ATOM     16  C   UNL     1       5.021   6.322  15.740  0.00  0.00    +0.000 C 
BRANCH  16  19
ATOM     17  C   UNL     1       3.576   8.151  17.806  0.00  0.00    +0.000 C 
ATOM     18  C   UNL     1       3.490   6.656  17.737  0.00  0.00    +0.000 A 
ATOM     19  C   UNL     1       4.125   5.824  16.877  0.00  0.00    +0.000 A 
ATOM     20  N   UNL     1       3.994   4.444  16.964  0.00  0.00    +0.000 N 
ATOM     21  C   UNL     1       3.107   3.823  17.850  0.00  0.00    +0.000 A 
ATOM     22  C   UNL     1       2.962   2.434  17.877  0.00  0.00    +0.000 A 
ATOM     23  C   UNL     1       2.114   1.826  18.809  0.00  0.00    +0.000 A 
ATOM     24  C   UNL     1       1.410   2.601  19.732  0.00  0.00    +0.000 A 
ATOM     25  C   UNL     1       1.556   3.986  19.727  0.00  0.00    +0.000 A 
ATOM     26  C   UNL     1       2.409   4.587  18.792  0.00  0.00    +0.000 A 
ATOM     27  C   UNL     1       2.586   6.054  18.777  0.00  0.00    +0.000 A 
ATOM     28  O   UNL     1       1.995   6.761  19.589  0.00  0.00    +0.000 OA
ATOM     29  H   UNL     1       4.335   3.913  16.164  0.00  0.00    +0.000 HD
ENDBRANCH  16  19
ENDBRANCH   1  16
TORSDOF 6
ENDMDL
MODEL 8
REMARK VINA RESULT:      -7.9      3.912      6.957
REMARK  Name = 
REMARK  7 active torsions:
REMARK  status: ('A' for Active; 'I' for Inactive)
REMARK    1  A    between atoms: C_1  and  C_2
REMARK    2  A    between atoms: C_3  and  C_4
REMARK    3  A    between atoms: C_4  and  O_5
REMARK    4  A    between atoms: O_5  and  C_6
REMARK    5  A    between atoms: C_10  and  O_11
REMARK    6  A    between atoms: O_11  and  C_12
REMARK    7  A    between atoms: C_12  and  C_13
REMARK                            x       y       z     vdW  Elec       q    Type
REMARK                         _______ _______ _______ _____ _____    ______ ____
ROOT
ATOM      1  O   UNL     1       2.833   4.016  17.557  0.00  0.00    +0.000 OA
ENDROOT
BRANCH   1   2
ATOM      2  C   UNL     1       2.568   4.964  18.505  0.00  0.00    +0.000 A 
ATOM      3  C   UNL     1       2.098   4.678  19.779  0.00  0.00    +0.000 A 
ATOM      4  C   UNL     1       1.786   5.740  20.624  0.00  0.00    +0.000 A 
ATOM      5  C   UNL     1       1.943   7.049  20.171  0.00  0.00    +0.000 A 
ATOM      6  C   UNL     1       2.413   7.254  18.882  0.00  0.00    +0.000 A 
ATOM      7  N   UNL     1       2.720   6.228  18.055  0.00  0.00    +0.000 NA
BRANCH   6   8
ATOM      8  O   UNL     1       2.609   8.477  18.303  0.00  0.00    +0.000 OA
BRANCH   8   9
ATOM      9  C   UNL     1       1.460   9.202  17.860  0.00  0.00    +0.000 C 
BRANCH   9  10
ATOM     10  C   UNL     1       1.047  10.199  18.956  0.00  0.00    +0.000 C 
ATOM     11  C   UNL     1      -0.477  10.228  19.147  0.00  0.00    +0.000 C 
ATOM     12  C   UNL     1      -0.884  11.316  20.133  0.00  0.00    +0.000 C 
ATOM     13  O   UNL     1      -0.389  12.588  19.712  0.00  0.00    +0.000 OA
ATOM     14  C   UNL     1       1.036  12.617  19.667  0.00  0.00    +0.000 C 
ATOM     15  C   UNL     1       1.560  11.613  18.648  0.00  0.00    +0.000 C 
ENDBRANCH   9  10
ENDBRANCH   8   9
ENDBRANCH   6   8
ENDBRANCH   1   2
BRANCH   1  16
ATOM     16  C   UNL     1       4.103   3.353  17.658  0.00  0.00    +0.000 C 
BRANCH  16  19
ATOM     17  C   UNL     1       6.162   5.557  18.438  0.00  0.00    +0.000 C 
ATOM     18  C   UNL     1       5.985   4.955  17.076  0.00  0.00    +0.000 A 
ATOM     19  C   UNL     1       5.084   4.020  16.689  0.00  0.00    +0.000 A 
ATOM     20  N   UNL     1       4.995   3.592  15.372  0.00  0.00    +0.000 N 
ATOM     21  C   UNL     1       5.903   3.989  14.385  0.00  0.00    +0.000 A 
ATOM     22  C   UNL     1       5.816   3.499  13.079  0.00  0.00    +0.000 A 
ATOM     23  C   UNL     1       6.696   3.952  12.091  0.00  0.00    +0.000 A 
ATOM     24  C   UNL     1       7.666   4.908  12.394  0.00  0.00    +0.000 A 
ATOM     25  C   UNL     1       7.755   5.417  13.687  0.00  0.00    +0.000 A 
ATOM     26  C   UNL     1       6.868   4.961  14.671  0.00  0.00    +0.000 A 
ATOM     27  C   UNL     1       6.938   5.496  16.048  0.00  0.00    +0.000 A 
ATOM     28  O   UNL     1       7.768   6.352  16.341  0.00  0.00    +0.000 OA
ATOM     29  H   UNL     1       4.440   2.752  15.213  0.00  0.00    +0.000 HD
ENDBRANCH  16  19
ENDBRANCH   1  16
TORSDOF 6
ENDMDL
MODEL 9
REMARK VINA RESULT:      -7.9      4.213      7.647
REMARK  Name = 
REMARK  7 active torsions:
REMARK  status: ('A' for Active; 'I' for Inactive)
REMARK    1  A    between atoms: C_1  and  C_2
REMARK    2  A    between atoms: C_3  and  C_4
REMARK    3  A    between atoms: C_4  and  O_5
REMARK    4  A    between atoms: O_5  and  C_6
REMARK    5  A    between atoms: C_10  and  O_11
REMARK    6  A    between atoms: O_11  and  C_12
REMARK    7  A    between atoms: C_12  and  C_13
REMARK                            x       y       z     vdW  Elec       q    Type
REMARK                         _______ _______ _______ _____ _____    ______ ____
ROOT
ATOM      1  O   UNL     1       3.759   7.231  18.427  0.00  0.00    +0.000 OA
ENDROOT
BRANCH   1   2
ATOM      2  C   UNL     1       4.259   6.294  17.567  0.00  0.00    +0.000 A 
ATOM      3  C   UNL     1       5.039   6.595  16.459  0.00  0.00    +0.000 A 
ATOM      4  C   UNL     1       5.415   5.555  15.612  0.00  0.00    +0.000 A 
ATOM      5  C   UNL     1       4.996   4.255  15.890  0.00  0.00    +0.000 A 
ATOM      6  C   UNL     1       4.213   4.036  17.014  0.00  0.00    +0.000 A 
ATOM      7  N   UNL     1       3.844   5.039  17.843  0.00  0.00    +0.000 NA
BRANCH   6   8
ATOM      8  O   UNL     1       3.724   2.820  17.405  0.00  0.00    +0.000 OA
BRANCH   8   9
ATOM      9  C   UNL     1       2.346   2.735  17.769  0.00  0.00    +0.000 C 
BRANCH   9  10
ATOM     10  C   UNL     1       2.244   2.292  19.238  0.00  0.00    +0.000 C 
ATOM     11  C   UNL     1       1.229   3.143  20.016  0.00  0.00    +0.000 C 
ATOM     12  C   UNL     1       1.239   2.788  21.497  0.00  0.00    +0.000 C 
ATOM     13  O   UNL     1       2.553   2.924  22.039  0.00  0.00    +0.000 OA
ATOM     14  C   UNL     1       3.480   2.034  21.420  0.00  0.00    +0.000 C 
ATOM     15  C   UNL     1       3.611   2.347  19.934  0.00  0.00    +0.000 C 
ENDBRANCH   9  10
ENDBRANCH   8   9
ENDBRANCH   6   8
ENDBRANCH   1   2
BRANCH   1  16
ATOM     16  C   UNL     1       2.666   6.811  19.259  0.00  0.00    +0.000 C 
BRANCH  16  19
ATOM     17  C   UNL     1       1.944   9.190  17.382  0.00  0.00    +0.000 C 
ATOM     18  C   UNL     1       1.546   9.047  18.820  0.00  0.00    +0.000 A 
ATOM     19  C   UNL     1       1.864   8.047  19.677  0.00  0.00    +0.000 A 
ATOM     20  N   UNL     1       1.470   8.072  21.008  0.00  0.00    +0.000 N 
ATOM     21  C   UNL     1       0.616   9.052  21.525  0.00  0.00    +0.000 A 
ATOM     22  C   UNL     1       0.198   9.020  22.858  0.00  0.00    +0.000 A 
ATOM     23  C   UNL     1      -0.609  10.040  23.373  0.00  0.00    +0.000 A 
ATOM     24  C   UNL     1      -0.997  11.110  22.565  0.00  0.00    +0.000 A 
ATOM     25  C   UNL     1      -0.575  11.163  21.239  0.00  0.00    +0.000 A 
ATOM     26  C   UNL     1       0.235  10.139  20.731  0.00  0.00    +0.000 A 
ATOM     27  C   UNL     1       0.703  10.182  19.329  0.00  0.00    +0.000 A 
ATOM     28  O   UNL     1       0.394  11.120  18.598  0.00  0.00    +0.000 OA
ATOM     29  H   UNL     1       1.574   7.198  21.520  0.00  0.00    +0.000 HD
ENDBRANCH  16  19
ENDBRANCH   1  16
TORSDOF 6
ENDMDL
