MODEL 1
REMARK VINA RESULT:      -9.0      0.000      0.000
REMARK  Name = 
REMARK  6 active torsions:
REMARK  status: ('A' for Active; 'I' for Inactive)
REMARK    1  A    between atoms: C_5  and  N_6
REMARK    2  A    between atoms: C_10  and  C_11
REMARK    3  A    between atoms: C_11  and  N_12
REMARK    4  A    between atoms: N_12  and  C_13
REMARK    5  A    between atoms: C_16  and  C_17
REMARK    6  A    between atoms: N_21  and  C_22
REMARK                            x       y       z     vdW  Elec       q    Type
REMARK                         _______ _______ _______ _____ _____    ______ ____
ROOT
ATOM      1  C   UNL     1       3.316   6.119  18.345  0.00  0.00    +0.000 A 
ATOM      2  C   UNL     1       2.863   5.796  19.625  0.00  0.00    +0.000 A 
ATOM      3  C   UNL     1       2.150   6.718  20.396  0.00  0.00    +0.000 A 
ATOM      4  C   UNL     1       1.874   8.005  19.912  0.00  0.00    +0.000 A 
ATOM      5  C   UNL     1       2.295   8.327  18.620  0.00  0.00    +0.000 A 
ATOM      6  C   UNL     1       2.990   7.385  17.843  0.00  0.00    +0.000 A 
ENDROOT
BRANCH   4   7
ATOM      7  C   UNL     1       1.178   8.938  20.787  0.00  0.00    +0.000 A 
ATOM      8  N   UNL     1       1.284   9.053  22.094  0.00  0.00    +0.000 NA
ATOM      9  N   UNL     1       0.470  10.092  22.452  0.00  0.00    +0.000 NA
ATOM     10  C   UNL     1      -0.081  10.557  21.350  0.00  0.00    +0.000 A 
ATOM     11  N   UNL     1      -0.942  11.576  21.161  0.00  0.00    +0.000 N 
ATOM     12  O   UNL     1       0.318   9.860  20.237  0.00  0.00    +0.000 OA
ATOM     13  H   UNL     1      -1.270  11.762  20.223  0.00  0.00    +0.000 HD
BRANCH  11  14
ATOM     14  C   UNL     1      -1.424  12.469  22.136  0.00  0.00    +0.000 A 
ATOM     15  C   UNL     1      -0.715  13.592  22.592  0.00  0.00    +0.000 A 
ATOM     16  C   UNL     1      -1.236  14.433  23.581  0.00  0.00    +0.000 A 
ATOM     17  C   UNL     1      -2.482  14.158  24.132  0.00  0.00    +0.000 A 
ATOM     18 CL   UNL     1      -3.120  15.189  25.351  0.00  0.00    +0.000 Cl
ATOM     19  C   UNL     1      -3.207  13.052  23.698  0.00  0.00    +0.000 A 
ATOM     20  C   UNL     1      -2.678  12.216  22.709  0.00  0.00    +0.000 A 
ENDBRANCH  11  14
ENDBRANCH   4   7
BRANCH   1  21
ATOM     21  N   UNL     1       4.014   5.169  17.633  0.00  0.00    +0.000 N 
ATOM     22  H   UNL     1       3.550   4.702  16.863  0.00  0.00    +0.000 HD
BRANCH  21  23
ATOM     23  C   UNL     1       5.437   4.896  17.796  0.00  0.00    +0.000 C 
BRANCH  23  28
ATOM     24  N   UNL     1       8.568   8.237  18.929  0.00  0.00    +0.000 N 
ATOM     25  C   UNL     1       7.765   7.567  18.081  0.00  0.00    +0.000 A 
ATOM     26  N   UNL     1       7.371   7.806  16.845  0.00  0.00    +0.000 NA
ATOM     27  N   UNL     1       6.460   6.828  16.512  0.00  0.00    +0.000 NA
ATOM     28  C   UNL     1       6.352   6.058  17.572  0.00  0.00    +0.000 A 
ATOM     29  O   UNL     1       7.176   6.444  18.599  0.00  0.00    +0.000 OA
ATOM     30  H   UNL     1       8.656   7.839  19.855  0.00  0.00    +0.000 HD
BRANCH  24  35
ATOM     31 CL   UNL     1       9.830  14.046  18.903  0.00  0.00    +0.000 Cl
ATOM     32  C   UNL     1       9.498  12.359  18.874  0.00  0.00    +0.000 A 
ATOM     33  C   UNL     1       9.912  11.553  19.930  0.00  0.00    +0.000 A 
ATOM     34  C   UNL     1       9.621  10.185  19.914  0.00  0.00    +0.000 A 
ATOM     35  C   UNL     1       8.895   9.606  18.857  0.00  0.00    +0.000 A 
ATOM     36  C   UNL     1       8.523  10.437  17.790  0.00  0.00    +0.000 A 
ATOM     37  C   UNL     1       8.815  11.805  17.798  0.00  0.00    +0.000 A 
ENDBRANCH  24  35
ENDBRANCH  23  28
ENDBRANCH  21  23
ENDBRANCH   1  21
TORSDOF 6
ENDMDL
MODEL 2
REMARK VINA RESULT:      -9.0      0.952      1.343
REMARK  Name = 
REMARK  6 active torsions:
REMARK  status: ('A' for Active; 'I' for Inactive)
REMARK    1  A    between atoms: C_5  and  N_6
REMARK    2  A    between atoms: C_10  and  C_11
REMARK    3  A    between atoms: C_11  and  N_12
REMARK    4  A    between atoms: N_12  and  C_13
REMARK    5  A    between atoms: C_16  and  C_17
REMARK    6  A    between atoms: N_21  and  C_22
REMARK                            x       y       z     vdW  Elec       q    Type
REMARK                         _______ _______ _______ _____ _____    ______ ____
ROOT
ATOM      1  C   UNL     1       3.803   5.981  18.203  0.00  0.00    +0.000 A 
ATOM      2  C   UNL     1       3.192   5.917  19.457  0.00  0.00    +0.000 A 
ATOM      3  C   UNL     1       2.359   6.943  19.910  0.00  0.00    +0.000 A 
ATOM      4  C   UNL     1       2.115   8.077  19.122  0.00  0.00    +0.000 A 
ATOM      5  C   UNL     1       2.696   8.136  17.854  0.00  0.00    +0.000 A 
ATOM      6  C   UNL     1       3.514   7.088  17.397  0.00  0.00    +0.000 A 
ENDROOT
BRANCH   4   7
ATOM      7  C   UNL     1       1.284   9.137  19.675  0.00  0.00    +0.000 A 
ATOM      8  N   UNL     1       0.598  10.051  19.021  0.00  0.00    +0.000 NA
ATOM      9  N   UNL     1      -0.053  10.791  19.970  0.00  0.00    +0.000 NA
ATOM     10  C   UNL     1       0.264  10.288  21.145  0.00  0.00    +0.000 A 
ATOM     11  N   UNL     1      -0.122  10.645  22.386  0.00  0.00    +0.000 N 
ATOM     12  O   UNL     1       1.128   9.226  21.039  0.00  0.00    +0.000 OA
ATOM     13  H   UNL     1       0.259  10.137  23.173  0.00  0.00    +0.000 HD
BRANCH  11  14
ATOM     14  C   UNL     1      -1.051  11.644  22.729  0.00  0.00    +0.000 A 
ATOM     15  C   UNL     1      -2.307  11.386  23.301  0.00  0.00    +0.000 A 
ATOM     16  C   UNL     1      -3.199  12.420  23.601  0.00  0.00    +0.000 A 
ATOM     17  C   UNL     1      -2.845  13.736  23.328  0.00  0.00    +0.000 A 
ATOM     18 CL   UNL     1      -3.945  15.007  23.691  0.00  0.00    +0.000 Cl
ATOM     19  C   UNL     1      -1.607  14.021  22.761  0.00  0.00    +0.000 A 
ATOM     20  C   UNL     1      -0.720  12.981  22.464  0.00  0.00    +0.000 A 
ENDBRANCH  11  14
ENDBRANCH   4   7
BRANCH   1  21
ATOM     21  N   UNL     1       4.616   4.940  17.812  0.00  0.00    +0.000 N 
ATOM     22  H   UNL     1       4.239   4.242  17.181  0.00  0.00    +0.000 HD
BRANCH  21  23
ATOM     23  C   UNL     1       6.041   4.849  18.107  0.00  0.00    +0.000 C 
BRANCH  23  28
ATOM     24  N   UNL     1       8.890   8.462  19.145  0.00  0.00    +0.000 N 
ATOM     25  C   UNL     1       8.123   7.722  18.323  0.00  0.00    +0.000 A 
ATOM     26  N   UNL     1       7.664   7.926  17.104  0.00  0.00    +0.000 NA
ATOM     27  N   UNL     1       6.836   6.869  16.797  0.00  0.00    +0.000 NA
ATOM     28  C   UNL     1       6.836   6.091  17.856  0.00  0.00    +0.000 A 
ATOM     29  O   UNL     1       7.658   6.549  18.855  0.00  0.00    +0.000 OA
ATOM     30  H   UNL     1       9.047   8.072  20.066  0.00  0.00    +0.000 HD
BRANCH  24  35
ATOM     31 CL   UNL     1       9.507  14.373  19.036  0.00  0.00    +0.000 Cl
ATOM     32  C   UNL     1       9.374  12.659  19.046  0.00  0.00    +0.000 A 
ATOM     33  C   UNL     1       9.447  11.965  20.250  0.00  0.00    +0.000 A 
ATOM     34  C   UNL     1       9.315  10.572  20.258  0.00  0.00    +0.000 A 
ATOM     35  C   UNL     1       9.087   9.855  19.069  0.00  0.00    +0.000 A 
ATOM     36  C   UNL     1       9.054  10.578  17.868  0.00  0.00    +0.000 A 
ATOM     37  C   UNL     1       9.190  11.970  17.853  0.00  0.00    +0.000 A 
ENDBRANCH  24  35
ENDBRANCH  23  28
ENDBRANCH  21  23
ENDBRANCH   1  21
TORSDOF 6
ENDMDL
MODEL 3
REMARK VINA RESULT:      -8.9      0.841      1.514
REMARK  Name = 
REMARK  6 active torsions:
REMARK  status: ('A' for Active; 'I' for Inactive)
REMARK    1  A    between atoms: C_5  and  N_6
REMARK    2  A    between atoms: C_10  and  C_11
REMARK    3  A    between atoms: C_11  and  N_12
REMARK    4  A    between atoms: N_12  and  C_13
REMARK    5  A    between atoms: C_16  and  C_17
REMARK    6  A    between atoms: N_21  and  C_22
REMARK                            x       y       z     vdW  Elec       q    Type
REMARK                         _______ _______ _______ _____ _____    ______ ____
ROOT
ATOM      1  C   UNL     1       3.391   6.328  18.194  0.00  0.00    +0.000 A 
ATOM      2  C   UNL     1       3.065   7.486  17.486  0.00  0.00    +0.000 A 
ATOM      3  C   UNL     1       2.290   8.495  18.063  0.00  0.00    +0.000 A 
ATOM      4  C   UNL     1       1.805   8.373  19.373  0.00  0.00    +0.000 A 
ATOM      5  C   UNL     1       2.152   7.233  20.101  0.00  0.00    +0.000 A 
ATOM      6  C   UNL     1       2.952   6.234  19.520  0.00  0.00    +0.000 A 
ENDROOT
BRANCH   4   7
ATOM      7  C   UNL     1       0.955   9.433  19.897  0.00  0.00    +0.000 A 
ATOM      8  N   UNL     1       0.133  10.215  19.228  0.00  0.00    +0.000 NA
ATOM      9  N   UNL     1      -0.471  11.017  20.158  0.00  0.00    +0.000 NA
ATOM     10  C   UNL     1       0.006  10.678  21.337  0.00  0.00    +0.000 A 
ATOM     11  N   UNL     1      -0.274  11.153  22.567  0.00  0.00    +0.000 N 
ATOM     12  O   UNL     1       0.936   9.672  21.252  0.00  0.00    +0.000 OA
ATOM     13  H   UNL     1       0.226  10.767  23.358  0.00  0.00    +0.000 HD
BRANCH  11  14
ATOM     14  C   UNL     1      -1.240  12.120  22.901  0.00  0.00    +0.000 A 
ATOM     15  C   UNL     1      -0.997  13.502  22.911  0.00  0.00    +0.000 A 
ATOM     16  C   UNL     1      -1.991  14.417  23.274  0.00  0.00    +0.000 A 
ATOM     17  C   UNL     1      -3.251  13.956  23.636  0.00  0.00    +0.000 A 
ATOM     18 CL   UNL     1      -4.471  15.080  24.087  0.00  0.00    +0.000 Cl
ATOM     19  C   UNL     1      -3.520  12.591  23.634  0.00  0.00    +0.000 A 
ATOM     20  C   UNL     1      -2.520  11.683  23.271  0.00  0.00    +0.000 A 
ENDBRANCH  11  14
ENDBRANCH   4   7
BRANCH   1  21
ATOM     21  N   UNL     1       4.157   5.367  17.571  0.00  0.00    +0.000 N 
ATOM     22  H   UNL     1       3.763   4.871  16.780  0.00  0.00    +0.000 HD
BRANCH  21  23
ATOM     23  C   UNL     1       5.564   5.119  17.860  0.00  0.00    +0.000 C 
BRANCH  23  28
ATOM     24  N   UNL     1       8.765   8.355  19.096  0.00  0.00    +0.000 N 
ATOM     25  C   UNL     1       7.926   7.749  18.235  0.00  0.00    +0.000 A 
ATOM     26  N   UNL     1       7.488   8.073  17.035  0.00  0.00    +0.000 NA
ATOM     27  N   UNL     1       6.557   7.125  16.670  0.00  0.00    +0.000 NA
ATOM     28  C   UNL     1       6.480   6.287  17.680  0.00  0.00    +0.000 A 
ATOM     29  O   UNL     1       7.345   6.598  18.699  0.00  0.00    +0.000 OA
ATOM     30  H   UNL     1       8.883   7.896  19.989  0.00  0.00    +0.000 HD
BRANCH  24  35
ATOM     31 CL   UNL     1      10.401  14.067  18.924  0.00  0.00    +0.000 Cl
ATOM     32  C   UNL     1       9.884  12.429  18.993  0.00  0.00    +0.000 A 
ATOM     33  C   UNL     1       9.594  11.743  17.817  0.00  0.00    +0.000 A 
ATOM     34  C   UNL     1       9.195  10.404  17.875  0.00  0.00    +0.000 A 
ATOM     35  C   UNL     1       9.102   9.724  19.103  0.00  0.00    +0.000 A 
ATOM     36  C   UNL     1       9.366  10.451  20.273  0.00  0.00    +0.000 A 
ATOM     37  C   UNL     1       9.761  11.792  20.222  0.00  0.00    +0.000 A 
ENDBRANCH  24  35
ENDBRANCH  23  28
ENDBRANCH  21  23
ENDBRANCH   1  21
TORSDOF 6
ENDMDL
MODEL 4
REMARK VINA RESULT:      -8.9      3.403      9.028
REMARK  Name = 
REMARK  6 active torsions:
REMARK  status: ('A' for Active; 'I' for Inactive)
REMARK    1  A    between atoms: C_5  and  N_6
REMARK    2  A    between atoms: C_10  and  C_11
REMARK    3  A    between atoms: C_11  and  N_12
REMARK    4  A    between atoms: N_12  and  C_13
REMARK    5  A    between atoms: C_16  and  C_17
REMARK    6  A    between atoms: N_21  and  C_22
REMARK                            x       y       z     vdW  Elec       q    Type
REMARK                         _______ _______ _______ _____ _____    ______ ____
ROOT
ATOM      1  C   UNL     1       6.979   5.382  17.670  0.00  0.00    +0.000 A 
ATOM      2  C   UNL     1       6.881   6.409  16.730  0.00  0.00    +0.000 A 
ATOM      3  C   UNL     1       7.432   7.670  16.974  0.00  0.00    +0.000 A 
ATOM      4  C   UNL     1       8.094   7.949  18.178  0.00  0.00    +0.000 A 
ATOM      5  C   UNL     1       8.224   6.918  19.112  0.00  0.00    +0.000 A 
ATOM      6  C   UNL     1       7.688   5.647  18.847  0.00  0.00    +0.000 A 
ENDROOT
BRANCH   4   7
ATOM      7  C   UNL     1       8.595   9.298  18.395  0.00  0.00    +0.000 A 
ATOM      8  N   UNL     1       8.324  10.383  17.700  0.00  0.00    +0.000 NA
ATOM      9  N   UNL     1       8.994  11.406  18.313  0.00  0.00    +0.000 NA
ATOM     10  C   UNL     1       9.628  10.895  19.348  0.00  0.00    +0.000 A 
ATOM     11  N   UNL     1      10.411  11.482  20.275  0.00  0.00    +0.000 N 
ATOM     12  O   UNL     1       9.428   9.542  19.463  0.00  0.00    +0.000 OA
ATOM     13  H   UNL     1      10.830  10.900  20.989  0.00  0.00    +0.000 HD
BRANCH  11  14
ATOM     14  C   UNL     1      10.691  12.855  20.400  0.00  0.00    +0.000 A 
ATOM     15  C   UNL     1       9.994  13.725  21.253  0.00  0.00    +0.000 A 
ATOM     16  C   UNL     1      10.304  15.087  21.319  0.00  0.00    +0.000 A 
ATOM     17  C   UNL     1      11.322  15.601  20.525  0.00  0.00    +0.000 A 
ATOM     18 CL   UNL     1      11.699  17.276  20.602  0.00  0.00    +0.000 Cl
ATOM     19  C   UNL     1      12.031  14.761  19.671  0.00  0.00    +0.000 A 
ATOM     20  C   UNL     1      11.714  13.400  19.611  0.00  0.00    +0.000 A 
ENDBRANCH  11  14
ENDBRANCH   4   7
BRANCH   1  21
ATOM     21  N   UNL     1       6.414   4.161  17.373  0.00  0.00    +0.000 N 
ATOM     22  H   UNL     1       6.875   3.321  17.705  0.00  0.00    +0.000 HD
BRANCH  21  23
ATOM     23  C   UNL     1       5.107   3.984  16.754  0.00  0.00    +0.000 C 
BRANCH  23  28
ATOM     24  N   UNL     1       2.432   7.647  18.051  0.00  0.00    +0.000 N 
ATOM     25  C   UNL     1       2.761   6.342  18.009  0.00  0.00    +0.000 A 
ATOM     26  N   UNL     1       2.327   5.289  18.672  0.00  0.00    +0.000 NA
ATOM     27  N   UNL     1       3.104   4.217  18.291  0.00  0.00    +0.000 NA
ATOM     28  C   UNL     1       3.970   4.690  17.422  0.00  0.00    +0.000 A 
ATOM     29  O   UNL     1       3.794   6.027  17.166  0.00  0.00    +0.000 OA
ATOM     30  H   UNL     1       2.977   8.255  17.453  0.00  0.00    +0.000 HD
BRANCH  24  35
ATOM     31 CL   UNL     1      -0.384  10.180  22.632  0.00  0.00    +0.000 Cl
ATOM     32  C   UNL     1       0.463   9.485  21.307  0.00  0.00    +0.000 A 
ATOM     33  C   UNL     1       1.217   8.330  21.494  0.00  0.00    +0.000 A 
ATOM     34  C   UNL     1       1.886   7.755  20.409  0.00  0.00    +0.000 A 
ATOM     35  C   UNL     1       1.796   8.310  19.119  0.00  0.00    +0.000 A 
ATOM     36  C   UNL     1       1.059   9.493  18.969  0.00  0.00    +0.000 A 
ATOM     37  C   UNL     1       0.391  10.076  20.051  0.00  0.00    +0.000 A 
ENDBRANCH  24  35
ENDBRANCH  23  28
ENDBRANCH  21  23
ENDBRANCH   1  21
TORSDOF 6
ENDMDL
MODEL 5
REMARK VINA RESULT:      -8.7      1.568      1.814
REMARK  Name = 
REMARK  6 active torsions:
REMARK  status: ('A' for Active; 'I' for Inactive)
REMARK    1  A    between atoms: C_5  and  N_6
REMARK    2  A    between atoms: C_10  and  C_11
REMARK    3  A    between atoms: C_11  and  N_12
REMARK    4  A    between atoms: N_12  and  C_13
REMARK    5  A    between atoms: C_16  and  C_17
REMARK    6  A    between atoms: N_21  and  C_22
REMARK                            x       y       z     vdW  Elec       q    Type
REMARK                         _______ _______ _______ _____ _____    ______ ____
ROOT
ATOM      1  C   UNL     1       3.841   5.937  18.120  0.00  0.00    +0.000 A 
ATOM      2  C   UNL     1       3.589   7.130  17.440  0.00  0.00    +0.000 A 
ATOM      3  C   UNL     1       2.745   8.105  17.976  0.00  0.00    +0.000 A 
ATOM      4  C   UNL     1       2.114   7.915  19.213  0.00  0.00    +0.000 A 
ATOM      5  C   UNL     1       2.385   6.739  19.916  0.00  0.00    +0.000 A 
ATOM      6  C   UNL     1       3.254   5.773  19.380  0.00  0.00    +0.000 A 
ENDROOT
BRANCH   4   7
ATOM      7  C   UNL     1       1.201   8.944  19.690  0.00  0.00    +0.000 A 
ATOM      8  N   UNL     1       0.998   9.332  20.932  0.00  0.00    +0.000 NA
ATOM      9  N   UNL     1       0.085  10.349  20.868  0.00  0.00    +0.000 NA
ATOM     10  C   UNL     1      -0.213  10.530  19.598  0.00  0.00    +0.000 A 
ATOM     11  N   UNL     1      -1.044  11.411  19.008  0.00  0.00    +0.000 N 
ATOM     12  O   UNL     1       0.458   9.657  18.778  0.00  0.00    +0.000 OA
ATOM     13  H   UNL     1      -1.153  11.372  18.003  0.00  0.00    +0.000 HD
BRANCH  11  14
ATOM     14  C   UNL     1      -1.771  12.440  19.636  0.00  0.00    +0.000 A 
ATOM     15  C   UNL     1      -1.200  13.633  20.103  0.00  0.00    +0.000 A 
ATOM     16  C   UNL     1      -1.969  14.612  20.740  0.00  0.00    +0.000 A 
ATOM     17  C   UNL     1      -3.332  14.407  20.919  0.00  0.00    +0.000 A 
ATOM     18 CL   UNL     1      -4.278  15.608  21.706  0.00  0.00    +0.000 Cl
ATOM     19  C   UNL     1      -3.926  13.233  20.464  0.00  0.00    +0.000 A 
ATOM     20  C   UNL     1      -3.148  12.259  19.830  0.00  0.00    +0.000 A 
ENDBRANCH  11  14
ENDBRANCH   4   7
BRANCH   1  21
ATOM     21  N   UNL     1       4.682   5.012  17.540  0.00  0.00    +0.000 N 
ATOM     22  H   UNL     1       4.328   4.448  16.776  0.00  0.00    +0.000 HD
BRANCH  21  23
ATOM     23  C   UNL     1       6.104   4.891  17.833  0.00  0.00    +0.000 C 
BRANCH  23  28
ATOM     24  N   UNL     1       8.859   8.499  19.118  0.00  0.00    +0.000 N 
ATOM     25  C   UNL     1       8.156   7.767  18.233  0.00  0.00    +0.000 A 
ATOM     26  N   UNL     1       7.786   7.985  16.987  0.00  0.00    +0.000 NA
ATOM     27  N   UNL     1       6.986   6.929  16.608  0.00  0.00    +0.000 NA
ATOM     28  C   UNL     1       6.912   6.138  17.656  0.00  0.00    +0.000 A 
ATOM     29  O   UNL     1       7.657   6.586  18.717  0.00  0.00    +0.000 OA
ATOM     30  H   UNL     1       8.950   8.098  20.043  0.00  0.00    +0.000 HD
BRANCH  24  35
ATOM     31 CL   UNL     1       9.491  14.409  19.154  0.00  0.00    +0.000 Cl
ATOM     32  C   UNL     1       9.352  12.696  19.119  0.00  0.00    +0.000 A 
ATOM     33  C   UNL     1       9.496  11.964  20.294  0.00  0.00    +0.000 A 
ATOM     34  C   UNL     1       9.359  10.572  20.267  0.00  0.00    +0.000 A 
ATOM     35  C   UNL     1       9.056   9.893  19.073  0.00  0.00    +0.000 A 
ATOM     36  C   UNL     1       8.953  10.653  17.899  0.00  0.00    +0.000 A 
ATOM     37  C   UNL     1       9.092  12.044  17.919  0.00  0.00    +0.000 A 
ENDBRANCH  24  35
ENDBRANCH  23  28
ENDBRANCH  21  23
ENDBRANCH   1  21
TORSDOF 6
ENDMDL
MODEL 6
REMARK VINA RESULT:      -8.7      1.395      2.004
REMARK  Name = 
REMARK  6 active torsions:
REMARK  status: ('A' for Active; 'I' for Inactive)
REMARK    1  A    between atoms: C_5  and  N_6
REMARK    2  A    between atoms: C_10  and  C_11
REMARK    3  A    between atoms: C_11  and  N_12
REMARK    4  A    between atoms: N_12  and  C_13
REMARK    5  A    between atoms: C_16  and  C_17
REMARK    6  A    between atoms: N_21  and  C_22
REMARK                            x       y       z     vdW  Elec       q    Type
REMARK                         _______ _______ _______ _____ _____    ______ ____
ROOT
ATOM      1  C   UNL     1       3.845   6.036  18.159  0.00  0.00    +0.000 A 
ATOM      2  C   UNL     1       3.505   7.224  17.508  0.00  0.00    +0.000 A 
ATOM      3  C   UNL     1       2.611   8.132  18.078  0.00  0.00    +0.000 A 
ATOM      4  C   UNL     1       2.016   7.878  19.322  0.00  0.00    +0.000 A 
ATOM      5  C   UNL     1       2.373   6.708  19.996  0.00  0.00    +0.000 A 
ATOM      6  C   UNL     1       3.293   5.811  19.426  0.00  0.00    +0.000 A 
ENDROOT
BRANCH   4   7
ATOM      7  C   UNL     1       1.048   8.837  19.836  0.00  0.00    +0.000 A 
ATOM      8  N   UNL     1       0.638   8.986  21.078  0.00  0.00    +0.000 NA
ATOM      9  N   UNL     1      -0.237  10.038  21.067  0.00  0.00    +0.000 NA
ATOM     10  C   UNL     1      -0.308  10.475  19.827  0.00  0.00    +0.000 A 
ATOM     11  N   UNL     1      -1.014  11.493  19.295  0.00  0.00    +0.000 N 
ATOM     12  O   UNL     1       0.483   9.747  18.973  0.00  0.00    +0.000 OA
ATOM     13  H   UNL     1      -0.948  11.655  18.298  0.00  0.00    +0.000 HD
BRANCH  11  14
ATOM     14  C   UNL     1      -1.824  12.413  19.984  0.00  0.00    +0.000 A 
ATOM     15  C   UNL     1      -3.224  12.447  19.898  0.00  0.00    +0.000 A 
ATOM     16  C   UNL     1      -3.977  13.400  20.591  0.00  0.00    +0.000 A 
ATOM     17  C   UNL     1      -3.332  14.342  21.384  0.00  0.00    +0.000 A 
ATOM     18 CL   UNL     1      -4.257  15.518  22.232  0.00  0.00    +0.000 Cl
ATOM     19  C   UNL     1      -1.944  14.332  21.489  0.00  0.00    +0.000 A 
ATOM     20  C   UNL     1      -1.199  13.375  20.792  0.00  0.00    +0.000 A 
ENDBRANCH  11  14
ENDBRANCH   4   7
BRANCH   1  21
ATOM     21  N   UNL     1       4.732   5.178  17.546  0.00  0.00    +0.000 N 
ATOM     22  H   UNL     1       4.415   4.647  16.743  0.00  0.00    +0.000 HD
BRANCH  21  23
ATOM     23  C   UNL     1       6.152   5.095  17.864  0.00  0.00    +0.000 C 
BRANCH  23  28
ATOM     24  N   UNL     1       8.994   8.632  19.156  0.00  0.00    +0.000 N 
ATOM     25  C   UNL     1       8.211   7.961  18.289  0.00  0.00    +0.000 A 
ATOM     26  N   UNL     1       7.719   8.270  17.105  0.00  0.00    +0.000 NA
ATOM     27  N   UNL     1       6.893   7.235  16.725  0.00  0.00    +0.000 NA
ATOM     28  C   UNL     1       6.929   6.363  17.708  0.00  0.00    +0.000 A 
ATOM     29  O   UNL     1       7.772   6.738  18.723  0.00  0.00    +0.000 OA
ATOM     30  H   UNL     1       9.178   8.161  20.032  0.00  0.00    +0.000 HD
BRANCH  24  35
ATOM     31 CL   UNL     1      10.001  14.490  19.171  0.00  0.00    +0.000 Cl
ATOM     32  C   UNL     1       9.663  12.804  19.181  0.00  0.00    +0.000 A 
ATOM     33  C   UNL     1       9.573  12.107  17.980  0.00  0.00    +0.000 A 
ATOM     34  C   UNL     1       9.321  10.731  17.992  0.00  0.00    +0.000 A 
ATOM     35  C   UNL     1       9.175  10.028  19.202  0.00  0.00    +0.000 A 
ATOM     36  C   UNL     1       9.234  10.763  20.394  0.00  0.00    +0.000 A 
ATOM     37  C   UNL     1       9.482  12.140  20.389  0.00  0.00    +0.000 A 
ENDBRANCH  24  35
ENDBRANCH  23  28
ENDBRANCH  21  23
ENDBRANCH   1  21
TORSDOF 6
ENDMDL
MODEL 7
REMARK VINA RESULT:      -8.6      3.427      8.837
REMARK  Name = 
REMARK  6 active torsions:
REMARK  status: ('A' for Active; 'I' for Inactive)
REMARK    1  A    between atoms: C_5  and  N_6
REMARK    2  A    between atoms: C_10  and  C_11
REMARK    3  A    between atoms: C_11  and  N_12
REMARK    4  A    between atoms: N_12  and  C_13
REMARK    5  A    between atoms: C_16  and  C_17
REMARK    6  A    between atoms: N_21  and  C_22
REMARK                            x       y       z     vdW  Elec       q    Type
REMARK                         _______ _______ _______ _____ _____    ______ ____
ROOT
ATOM      1  C   UNL     1       7.175   5.573  17.882  0.00  0.00    +0.000 A 
ATOM      2  C   UNL     1       6.963   6.603  16.965  0.00  0.00    +0.000 A 
ATOM      3  C   UNL     1       7.475   7.885  17.183  0.00  0.00    +0.000 A 
ATOM      4  C   UNL     1       8.213   8.181  18.338  0.00  0.00    +0.000 A 
ATOM      5  C   UNL     1       8.458   7.149  19.247  0.00  0.00    +0.000 A 
ATOM      6  C   UNL     1       7.959   5.857  19.007  0.00  0.00    +0.000 A 
ENDROOT
BRANCH   4   7
ATOM      7  C   UNL     1       8.670   9.550  18.535  0.00  0.00    +0.000 A 
ATOM      8  N   UNL     1       9.417  10.020  19.512  0.00  0.00    +0.000 NA
ATOM      9  N   UNL     1       9.611  11.346  19.238  0.00  0.00    +0.000 NA
ATOM     10  C   UNL     1       8.981  11.611  18.112  0.00  0.00    +0.000 A 
ATOM     11  N   UNL     1       8.876  12.759  17.414  0.00  0.00    +0.000 N 
ATOM     12  O   UNL     1       8.342  10.508  17.603  0.00  0.00    +0.000 OA
ATOM     13  H   UNL     1       8.317  12.760  16.571  0.00  0.00    +0.000 HD
BRANCH  11  14
ATOM     14  C   UNL     1       9.503  13.985  17.701  0.00  0.00    +0.000 A 
ATOM     15  C   UNL     1      10.849  14.265  17.420  0.00  0.00    +0.000 A 
ATOM     16  C   UNL     1      11.424  15.496  17.749  0.00  0.00    +0.000 A 
ATOM     17  C   UNL     1      10.654  16.472  18.370  0.00  0.00    +0.000 A 
ATOM     18 CL   UNL     1      11.362  17.984  18.780  0.00  0.00    +0.000 Cl
ATOM     19  C   UNL     1       9.316  16.222  18.660  0.00  0.00    +0.000 A 
ATOM     20  C   UNL     1       8.749  14.987  18.329  0.00  0.00    +0.000 A 
ENDBRANCH  11  14
ENDBRANCH   4   7
BRANCH   1  21
ATOM     21  N   UNL     1       6.644   4.330  17.613  0.00  0.00    +0.000 N 
ATOM     22  H   UNL     1       7.242   3.517  17.707  0.00  0.00    +0.000 HD
BRANCH  21  23
ATOM     23  C   UNL     1       5.232   4.074  17.360  0.00  0.00    +0.000 C 
BRANCH  23  28
ATOM     24  N   UNL     1       2.056   7.512  17.949  0.00  0.00    +0.000 N 
ATOM     25  C   UNL     1       2.836   6.498  18.370  0.00  0.00    +0.000 A 
ATOM     26  N   UNL     1       3.159   6.057  19.569  0.00  0.00    +0.000 NA
ATOM     27  N   UNL     1       4.082   5.049  19.398  0.00  0.00    +0.000 NA
ATOM     28  C   UNL     1       4.270   4.947  18.101  0.00  0.00    +0.000 A 
ATOM     29  O   UNL     1       3.487   5.812  17.379  0.00  0.00    +0.000 OA
ATOM     30  H   UNL     1       2.029   7.657  16.948  0.00  0.00    +0.000 HD
BRANCH  24  35
ATOM     31 CL   UNL     1       0.735  12.411  21.046  0.00  0.00    +0.000 Cl
ATOM     32  C   UNL     1       1.069  10.981  20.152  0.00  0.00    +0.000 A 
ATOM     33  C   UNL     1       1.400  11.067  18.803  0.00  0.00    +0.000 A 
ATOM     34  C   UNL     1       1.694   9.904  18.084  0.00  0.00    +0.000 A 
ATOM     35  C   UNL     1       1.682   8.641  18.704  0.00  0.00    +0.000 A 
ATOM     36  C   UNL     1       1.309   8.582  20.054  0.00  0.00    +0.000 A 
ATOM     37  C   UNL     1       1.011   9.741  20.778  0.00  0.00    +0.000 A 
ENDBRANCH  24  35
ENDBRANCH  23  28
ENDBRANCH  21  23
ENDBRANCH   1  21
TORSDOF 6
ENDMDL
MODEL 8
REMARK VINA RESULT:      -8.5      0.902      1.589
REMARK  Name = 
REMARK  6 active torsions:
REMARK  status: ('A' for Active; 'I' for Inactive)
REMARK    1  A    between atoms: C_5  and  N_6
REMARK    2  A    between atoms: C_10  and  C_11
REMARK    3  A    between atoms: C_11  and  N_12
REMARK    4  A    between atoms: N_12  and  C_13
REMARK    5  A    between atoms: C_16  and  C_17
REMARK    6  A    between atoms: N_21  and  C_22
REMARK                            x       y       z     vdW  Elec       q    Type
REMARK                         _______ _______ _______ _____ _____    ______ ____
ROOT
ATOM      1  C   UNL     1       3.763   5.953  18.108  0.00  0.00    +0.000 A 
ATOM      2  C   UNL     1       3.317   7.161  17.568  0.00  0.00    +0.000 A 
ATOM      3  C   UNL     1       2.455   7.998  18.281  0.00  0.00    +0.000 A 
ATOM      4  C   UNL     1       2.001   7.648  19.560  0.00  0.00    +0.000 A 
ATOM      5  C   UNL     1       2.466   6.457  20.121  0.00  0.00    +0.000 A 
ATOM      6  C   UNL     1       3.352   5.633  19.407  0.00  0.00    +0.000 A 
ENDROOT
BRANCH   4   7
ATOM      7  C   UNL     1       1.058   8.536  20.226  0.00  0.00    +0.000 A 
ATOM      8  N   UNL     1       0.413   8.330  21.355  0.00  0.00    +0.000 NA
ATOM      9  N   UNL     1      -0.317   9.463  21.589  0.00  0.00    +0.000 NA
ATOM     10  C   UNL     1      -0.074  10.297  20.600  0.00  0.00    +0.000 A 
ATOM     11  N   UNL     1      -0.532  11.544  20.370  0.00  0.00    +0.000 N 
ATOM     12  O   UNL     1       0.795   9.770  19.677  0.00  0.00    +0.000 OA
ATOM     13  H   UNL     1      -0.238  12.017  19.526  0.00  0.00    +0.000 HD
BRANCH  11  14
ATOM     14  C   UNL     1      -1.363  12.308  21.210  0.00  0.00    +0.000 A 
ATOM     15  C   UNL     1      -2.637  12.770  20.845  0.00  0.00    +0.000 A 
ATOM     16  C   UNL     1      -3.410  13.546  21.715  0.00  0.00    +0.000 A 
ATOM     17  C   UNL     1      -2.913  13.874  22.971  0.00  0.00    +0.000 A 
ATOM     18 CL   UNL     1      -3.861  14.832  24.038  0.00  0.00    +0.000 Cl
ATOM     19  C   UNL     1      -1.653  13.429  23.359  0.00  0.00    +0.000 A 
ATOM     20  C   UNL     1      -0.887  12.654  22.482  0.00  0.00    +0.000 A 
ENDBRANCH  11  14
ENDBRANCH   4   7
BRANCH   1  21
ATOM     21  N   UNL     1       4.611   5.168  17.357  0.00  0.00    +0.000 N 
ATOM     22  H   UNL     1       4.292   4.838  16.453  0.00  0.00    +0.000 HD
BRANCH  21  23
ATOM     23  C   UNL     1       6.005   4.907  17.691  0.00  0.00    +0.000 C 
BRANCH  23  28
ATOM     24  N   UNL     1       8.659   8.573  19.022  0.00  0.00    +0.000 N 
ATOM     25  C   UNL     1       8.139   7.718  18.121  0.00  0.00    +0.000 A 
ATOM     26  N   UNL     1       8.119   7.710  16.803  0.00  0.00    +0.000 NA
ATOM     27  N   UNL     1       7.349   6.637  16.413  0.00  0.00    +0.000 NA
ATOM     28  C   UNL     1       6.941   6.062  17.523  0.00  0.00    +0.000 A 
ATOM     29  O   UNL     1       7.430   6.672  18.651  0.00  0.00    +0.000 OA
ATOM     30  H   UNL     1       8.475   8.352  19.992  0.00  0.00    +0.000 HD
BRANCH  24  35
ATOM     31 CL   UNL     1      10.014  14.220  17.752  0.00  0.00    +0.000 Cl
ATOM     32  C   UNL     1       9.610  12.601  18.166  0.00  0.00    +0.000 A 
ATOM     33  C   UNL     1       8.464  12.015  17.638  0.00  0.00    +0.000 A 
ATOM     34  C   UNL     1       8.150  10.690  17.959  0.00  0.00    +0.000 A 
ATOM     35  C   UNL     1       8.986   9.924  18.792  0.00  0.00    +0.000 A 
ATOM     36  C   UNL     1      10.115  10.552  19.337  0.00  0.00    +0.000 A 
ATOM     37  C   UNL     1      10.432  11.878  19.024  0.00  0.00    +0.000 A 
ENDBRANCH  24  35
ENDBRANCH  23  28
ENDBRANCH  21  23
ENDBRANCH   1  21
TORSDOF 6
ENDMDL
MODEL 9
REMARK VINA RESULT:      -8.3      3.014      9.193
REMARK  Name = 
REMARK  6 active torsions:
REMARK  status: ('A' for Active; 'I' for Inactive)
REMARK    1  A    between atoms: C_5  and  N_6
REMARK    2  A    between atoms: C_10  and  C_11
REMARK    3  A    between atoms: C_11  and  N_12
REMARK    4  A    between atoms: N_12  and  C_13
REMARK    5  A    between atoms: C_16  and  C_17
REMARK    6  A    between atoms: N_21  and  C_22
REMARK                            x       y       z     vdW  Elec       q    Type
REMARK                         _______ _______ _______ _____ _____    ______ ____
ROOT
ATOM      1  C   UNL     1       6.288   5.370  17.766  0.00  0.00    +0.000 A 
ATOM      2  C   UNL     1       5.920   6.539  17.096  0.00  0.00    +0.000 A 
ATOM      3  C   UNL     1       6.619   7.733  17.286  0.00  0.00    +0.000 A 
ATOM      4  C   UNL     1       7.710   7.801  18.164  0.00  0.00    +0.000 A 
ATOM      5  C   UNL     1       8.105   6.630  18.814  0.00  0.00    +0.000 A 
ATOM      6  C   UNL     1       7.411   5.427  18.599  0.00  0.00    +0.000 A 
ENDROOT
BRANCH   4   7
ATOM      7  C   UNL     1       8.360   9.089  18.361  0.00  0.00    +0.000 A 
ATOM      8  N   UNL     1       9.333   9.383  19.198  0.00  0.00    +0.000 NA
ATOM      9  N   UNL     1       9.632  10.701  18.986  0.00  0.00    +0.000 NA
ATOM     10  C   UNL     1       8.835  11.136  18.032  0.00  0.00    +0.000 A 
ATOM     11  N   UNL     1       8.740  12.348  17.452  0.00  0.00    +0.000 N 
ATOM     12  O   UNL     1       7.981  10.159  17.585  0.00  0.00    +0.000 OA
ATOM     13  H   UNL     1       8.035  12.488  16.740  0.00  0.00    +0.000 HD
BRANCH  11  14
ATOM     14  C   UNL     1       9.556  13.469  17.693  0.00  0.00    +0.000 A 
ATOM     15  C   UNL     1       9.144  14.601  18.414  0.00  0.00    +0.000 A 
ATOM     16  C   UNL     1       9.994  15.695  18.603  0.00  0.00    +0.000 A 
ATOM     17  C   UNL     1      11.276  15.672  18.069  0.00  0.00    +0.000 A 
ATOM     18 CL   UNL     1      12.319  17.020  18.297  0.00  0.00    +0.000 Cl
ATOM     19  C   UNL     1      11.711  14.562  17.351  0.00  0.00    +0.000 A 
ATOM     20  C   UNL     1      10.855  13.472  17.165  0.00  0.00    +0.000 A 
ENDBRANCH  11  14
ENDBRANCH   4   7
BRANCH   1  21
ATOM     21  N   UNL     1       5.559   4.223  17.540  0.00  0.00    +0.000 N 
ATOM     22  H   UNL     1       5.755   3.681  16.705  0.00  0.00    +0.000 HD
BRANCH  21  23
ATOM     23  C   UNL     1       4.632   3.632  18.497  0.00  0.00    +0.000 C 
BRANCH  23  28
ATOM     24  N   UNL     1       2.245   7.646  19.158  0.00  0.00    +0.000 N 
ATOM     25  C   UNL     1       2.409   6.311  19.215  0.00  0.00    +0.000 A 
ATOM     26  N   UNL     1       1.728   5.351  19.809  0.00  0.00    +0.000 NA
ATOM     27  N   UNL     1       2.422   4.177  19.612  0.00  0.00    +0.000 NA
ATOM     28  C   UNL     1       3.489   4.500  18.915  0.00  0.00    +0.000 A 
ATOM     29  O   UNL     1       3.534   5.833  18.595  0.00  0.00    +0.000 OA
ATOM     30  H   UNL     1       2.965   8.154  18.661  0.00  0.00    +0.000 HD
BRANCH  24  35
ATOM     31 CL   UNL     1      -0.754  11.209  22.852  0.00  0.00    +0.000 Cl
ATOM     32  C   UNL     1       0.083  10.141  21.795  0.00  0.00    +0.000 A 
ATOM     33  C   UNL     1      -0.021  10.307  20.417  0.00  0.00    +0.000 A 
ATOM     34  C   UNL     1       0.679   9.451  19.561  0.00  0.00    +0.000 A 
ATOM     35  C   UNL     1       1.508   8.432  20.066  0.00  0.00    +0.000 A 
ATOM     36  C   UNL     1       1.564   8.267  21.457  0.00  0.00    +0.000 A 
ATOM     37  C   UNL     1       0.863   9.117  22.319  0.00  0.00    +0.000 A 
ENDBRANCH  24  35
ENDBRANCH  23  28
ENDBRANCH  21  23
ENDBRANCH   1  21
TORSDOF 6
ENDMDL
