MODEL 1
REMARK VINA RESULT:      -7.8      0.000      0.000
REMARK  Name = 
REMARK  7 active torsions:
REMARK  status: ('A' for Active; 'I' for Inactive)
REMARK    1  A    between atoms: O_1  and  C_2
REMARK    2  A    between atoms: C_2  and  C_3
REMARK    3  A    between atoms: N_5  and  C_6
REMARK    4  A    between atoms: C_6  and  C_7
REMARK    5  A    between atoms: C_12  and  C_13
REMARK    6  A    between atoms: C_18  and  C_19
REMARK    7  A    between atoms: C_19  and  N_20
REMARK                            x       y       z     vdW  Elec       q    Type
REMARK                         _______ _______ _______ _____ _____    ______ ____
ROOT
ATOM      1  C   UNL     1       7.044   5.702  17.831  0.00  0.00    +0.000 C 
ATOM      2  C   UNL     1       6.673   5.557  19.316  0.00  0.00    +0.000 C 
ATOM      3  N   UNL     1       5.511   4.670  19.433  0.00  0.00    +0.000 NA
ATOM      4  C   UNL     1       5.515   3.827  18.227  0.00  0.00    +0.000 C 
ATOM      5  C   UNL     1       6.429   4.465  17.160  0.00  0.00    +0.000 C 
ENDROOT
BRANCH   1   6
ATOM      6  C   UNL     1       6.682   7.078  17.274  0.00  0.00    +0.000 C 
BRANCH   6   7
ATOM      7  O   UNL     1       7.878   7.837  17.080  0.00  0.00    +0.000 OA
ATOM      8  H   UNL     1       7.775   8.664  17.587  0.00  0.00    +0.000 HD
ENDBRANCH   6   7
ENDBRANCH   1   6
BRANCH   3   9
ATOM      9  C   UNL     1       4.208   5.316  19.620  0.00  0.00    +0.000 C 
BRANCH   9  10
ATOM     10  C   UNL     1       3.047   4.390  19.965  0.00  0.00    +0.000 A 
ATOM     11  C   UNL     1       3.034   3.846  21.269  0.00  0.00    +0.000 A 
ATOM     12  C   UNL     1       1.978   3.049  21.718  0.00  0.00    +0.000 A 
ATOM     13  C   UNL     1       0.899   2.791  20.882  0.00  0.00    +0.000 A 
ATOM     14  C   UNL     1       0.898   3.303  19.588  0.00  0.00    +0.000 A 
ATOM     15  C   UNL     1       1.973   4.087  19.098  0.00  0.00    +0.000 A 
BRANCH  15  16
ATOM     16  C   UNL     1       1.850   4.550  17.662  0.00  0.00    +0.000 C 
ATOM     17  F   UNL     1       0.618   4.451  17.097  0.00  0.00    +0.000 F 
ATOM     18  F   UNL     1       2.225   5.855  17.512  0.00  0.00    +0.000 F 
ATOM     19  F   UNL     1       2.682   3.846  16.837  0.00  0.00    +0.000 F 
ENDBRANCH  15  16
ENDBRANCH   9  10
ENDBRANCH   3   9
BRANCH   5  20
ATOM     20  C   UNL     1       5.694   4.615  15.808  0.00  0.00    +0.000 C 
BRANCH  20  21
ATOM     21  N   UNL     1       6.417   4.241  14.573  0.00  0.00    +0.000 NA
ATOM     22  C   UNL     1       5.537   3.773  13.492  0.00  0.00    +0.000 C 
ATOM     23  C   UNL     1       6.343   3.368  12.252  0.00  0.00    +0.000 C 
ATOM     24  C   UNL     1       7.209   4.514  11.747  0.00  0.00    +0.000 C 
ATOM     25  C   UNL     1       8.070   5.055  12.880  0.00  0.00    +0.000 C 
ATOM     26  C   UNL     1       7.223   5.393  14.109  0.00  0.00    +0.000 C 
ENDBRANCH  20  21
ENDBRANCH   5  20
TORSDOF 7
ENDMDL
MODEL 2
REMARK VINA RESULT:      -7.6      3.732      5.525
REMARK  Name = 
REMARK  7 active torsions:
REMARK  status: ('A' for Active; 'I' for Inactive)
REMARK    1  A    between atoms: O_1  and  C_2
REMARK    2  A    between atoms: C_2  and  C_3
REMARK    3  A    between atoms: N_5  and  C_6
REMARK    4  A    between atoms: C_6  and  C_7
REMARK    5  A    between atoms: C_12  and  C_13
REMARK    6  A    between atoms: C_18  and  C_19
REMARK    7  A    between atoms: C_19  and  N_20
REMARK                            x       y       z     vdW  Elec       q    Type
REMARK                         _______ _______ _______ _____ _____    ______ ____
ROOT
ATOM      1  C   UNL     1       1.996   2.675  19.841  0.00  0.00    +0.000 C 
ATOM      2  C   UNL     1       1.062   3.757  20.407  0.00  0.00    +0.000 C 
ATOM      3  N   UNL     1       1.225   4.985  19.621  0.00  0.00    +0.000 NA
ATOM      4  C   UNL     1       1.731   4.566  18.305  0.00  0.00    +0.000 C 
ATOM      5  C   UNL     1       2.281   3.127  18.403  0.00  0.00    +0.000 C 
ENDROOT
BRANCH   1   6
ATOM      6  C   UNL     1       3.186   2.398  20.759  0.00  0.00    +0.000 C 
BRANCH   6   7
ATOM      7  O   UNL     1       2.788   2.592  22.118  0.00  0.00    +0.000 OA
ATOM      8  H   UNL     1       1.824   2.743  22.113  0.00  0.00    +0.000 HD
ENDBRANCH   6   7
ENDBRANCH   1   6
BRANCH   3   9
ATOM      9  C   UNL     1       2.073   6.029  20.203  0.00  0.00    +0.000 C 
BRANCH   9  10
ATOM     10  C   UNL     1       2.035   7.385  19.509  0.00  0.00    +0.000 A 
ATOM     11  C   UNL     1       2.701   7.482  18.267  0.00  0.00    +0.000 A 
ATOM     12  C   UNL     1       2.664   8.653  17.506  0.00  0.00    +0.000 A 
ATOM     13  C   UNL     1       1.943   9.751  17.958  0.00  0.00    +0.000 A 
ATOM     14  C   UNL     1       1.292   9.684  19.186  0.00  0.00    +0.000 A 
ATOM     15  C   UNL     1       1.342   8.519  19.991  0.00  0.00    +0.000 A 
BRANCH  15  16
ATOM     16  C   UNL     1       0.614   8.601  21.315  0.00  0.00    +0.000 C 
ATOM     17  F   UNL     1       1.376   8.488  22.434  0.00  0.00    +0.000 F 
ATOM     18  F   UNL     1      -0.072   9.776  21.448  0.00  0.00    +0.000 F 
ATOM     19  F   UNL     1      -0.335   7.624  21.426  0.00  0.00    +0.000 F 
ENDBRANCH  15  16
ENDBRANCH   9  10
ENDBRANCH   3   9
BRANCH   5  20
ATOM     20  C   UNL     1       3.720   3.038  17.844  0.00  0.00    +0.000 C 
BRANCH  20  21
ATOM     21  N   UNL     1       4.462   4.297  17.617  0.00  0.00    +0.000 NA
ATOM     22  C   UNL     1       5.633   4.459  18.492  0.00  0.00    +0.000 C 
ATOM     23  C   UNL     1       6.342   5.794  18.236  0.00  0.00    +0.000 C 
ATOM     24  C   UNL     1       6.767   5.933  16.781  0.00  0.00    +0.000 C 
ATOM     25  C   UNL     1       5.576   5.693  15.864  0.00  0.00    +0.000 C 
ATOM     26  C   UNL     1       4.875   4.374  16.198  0.00  0.00    +0.000 C 
ENDBRANCH  20  21
ENDBRANCH   5  20
TORSDOF 7
ENDMDL
MODEL 3
REMARK VINA RESULT:      -7.6      1.548      1.952
REMARK  Name = 
REMARK  7 active torsions:
REMARK  status: ('A' for Active; 'I' for Inactive)
REMARK    1  A    between atoms: O_1  and  C_2
REMARK    2  A    between atoms: C_2  and  C_3
REMARK    3  A    between atoms: N_5  and  C_6
REMARK    4  A    between atoms: C_6  and  C_7
REMARK    5  A    between atoms: C_12  and  C_13
REMARK    6  A    between atoms: C_18  and  C_19
REMARK    7  A    between atoms: C_19  and  N_20
REMARK                            x       y       z     vdW  Elec       q    Type
REMARK                         _______ _______ _______ _____ _____    ______ ____
ROOT
ATOM      1  C   UNL     1       7.526   6.156  17.486  0.00  0.00    +0.000 C 
ATOM      2  C   UNL     1       7.464   5.547  18.896  0.00  0.00    +0.000 C 
ATOM      3  N   UNL     1       6.362   4.581  18.948  0.00  0.00    +0.000 NA
ATOM      4  C   UNL     1       6.136   4.140  17.563  0.00  0.00    +0.000 C 
ATOM      5  C   UNL     1       6.807   5.135  16.594  0.00  0.00    +0.000 C 
ENDROOT
BRANCH   1   6
ATOM      6  C   UNL     1       7.041   7.605  17.458  0.00  0.00    +0.000 C 
BRANCH   6   7
ATOM      7  O   UNL     1       8.091   8.463  17.910  0.00  0.00    +0.000 OA
ATOM      8  H   UNL     1       8.450   8.913  17.121  0.00  0.00    +0.000 HD
ENDBRANCH   6   7
ENDBRANCH   1   6
BRANCH   3   9
ATOM      9  C   UNL     1       5.114   5.040  19.565  0.00  0.00    +0.000 C 
BRANCH   9  10
ATOM     10  C   UNL     1       3.834   4.397  19.044  0.00  0.00    +0.000 A 
ATOM     11  C   UNL     1       3.740   2.991  19.154  0.00  0.00    +0.000 A 
ATOM     12  C   UNL     1       2.581   2.305  18.781  0.00  0.00    +0.000 A 
ATOM     13  C   UNL     1       1.481   3.008  18.308  0.00  0.00    +0.000 A 
ATOM     14  C   UNL     1       1.557   4.392  18.175  0.00  0.00    +0.000 A 
ATOM     15  C   UNL     1       2.733   5.107  18.516  0.00  0.00    +0.000 A 
BRANCH  15  16
ATOM     16  C   UNL     1       2.682   6.603  18.291  0.00  0.00    +0.000 C 
ATOM     17  F   UNL     1       1.609   7.076  17.605  0.00  0.00    +0.000 F 
ATOM     18  F   UNL     1       2.707   7.297  19.468  0.00  0.00    +0.000 F 
ATOM     19  F   UNL     1       3.775   7.042  17.599  0.00  0.00    +0.000 F 
ENDBRANCH  15  16
ENDBRANCH   9  10
ENDBRANCH   3   9
BRANCH   5  20
ATOM     20  C   UNL     1       5.813   5.627  15.516  0.00  0.00    +0.000 C 
BRANCH  20  21
ATOM     21  N   UNL     1       6.052   5.232  14.111  0.00  0.00    +0.000 NA
ATOM     22  C   UNL     1       7.475   5.211  13.737  0.00  0.00    +0.000 C 
ATOM     23  C   UNL     1       7.660   4.828  12.264  0.00  0.00    +0.000 C 
ATOM     24  C   UNL     1       7.028   3.478  11.952  0.00  0.00    +0.000 C 
ATOM     25  C   UNL     1       5.574   3.466  12.405  0.00  0.00    +0.000 C 
ATOM     26  C   UNL     1       5.443   3.906  13.864  0.00  0.00    +0.000 C 
ENDBRANCH  20  21
ENDBRANCH   5  20
TORSDOF 7
ENDMDL
MODEL 4
REMARK VINA RESULT:      -7.5      3.531      5.128
REMARK  Name = 
REMARK  7 active torsions:
REMARK  status: ('A' for Active; 'I' for Inactive)
REMARK    1  A    between atoms: O_1  and  C_2
REMARK    2  A    between atoms: C_2  and  C_3
REMARK    3  A    between atoms: N_5  and  C_6
REMARK    4  A    between atoms: C_6  and  C_7
REMARK    5  A    between atoms: C_12  and  C_13
REMARK    6  A    between atoms: C_18  and  C_19
REMARK    7  A    between atoms: C_19  and  N_20
REMARK                            x       y       z     vdW  Elec       q    Type
REMARK                         _______ _______ _______ _____ _____    ______ ____
ROOT
ATOM      1  C   UNL     1       1.987   2.864  19.807  0.00  0.00    +0.000 C 
ATOM      2  C   UNL     1       1.091   4.014  20.296  0.00  0.00    +0.000 C 
ATOM      3  N   UNL     1       1.361   5.206  19.486  0.00  0.00    +0.000 NA
ATOM      4  C   UNL     1       1.904   4.719  18.208  0.00  0.00    +0.000 C 
ATOM      5  C   UNL     1       2.366   3.256  18.373  0.00  0.00    +0.000 C 
ENDROOT
BRANCH   1   6
ATOM      6  C   UNL     1       3.114   2.550  20.790  0.00  0.00    +0.000 C 
BRANCH   6   7
ATOM      7  O   UNL     1       2.643   2.743  22.125  0.00  0.00    +0.000 OA
ATOM      8  H   UNL     1       2.059   1.988  22.333  0.00  0.00    +0.000 HD
ENDBRANCH   6   7
ENDBRANCH   1   6
BRANCH   3   9
ATOM      9  C   UNL     1       2.239   6.218  20.080  0.00  0.00    +0.000 C 
BRANCH   9  10
ATOM     10  C   UNL     1       1.611   7.584  20.329  0.00  0.00    +0.000 A 
ATOM     11  C   UNL     1       1.036   7.797  21.602  0.00  0.00    +0.000 A 
ATOM     12  C   UNL     1       0.503   9.036  21.966  0.00  0.00    +0.000 A 
ATOM     13  C   UNL     1       0.548  10.100  21.074  0.00  0.00    +0.000 A 
ATOM     14  C   UNL     1       1.095   9.909  19.808  0.00  0.00    +0.000 A 
ATOM     15  C   UNL     1       1.613   8.653  19.404  0.00  0.00    +0.000 A 
BRANCH  15  16
ATOM     16  C   UNL     1       2.147   8.585  17.989  0.00  0.00    +0.000 C 
ATOM     17  F   UNL     1       3.418   8.131  17.843  0.00  0.00    +0.000 F 
ATOM     18  F   UNL     1       1.373   7.791  17.189  0.00  0.00    +0.000 F 
ATOM     19  F   UNL     1       2.132   9.812  17.389  0.00  0.00    +0.000 F 
ENDBRANCH  15  16
ENDBRANCH   9  10
ENDBRANCH   3   9
BRANCH   5  20
ATOM     20  C   UNL     1       3.822   3.069  17.888  0.00  0.00    +0.000 C 
BRANCH  20  21
ATOM     21  N   UNL     1       4.599   4.274  17.524  0.00  0.00    +0.000 NA
ATOM     22  C   UNL     1       5.638   4.625  18.503  0.00  0.00    +0.000 C 
ATOM     23  C   UNL     1       6.386   5.899  18.092  0.00  0.00    +0.000 C 
ATOM     24  C   UNL     1       7.010   5.760  16.710  0.00  0.00    +0.000 C 
ATOM     25  C   UNL     1       5.956   5.324  15.703  0.00  0.00    +0.000 C 
ATOM     26  C   UNL     1       5.205   4.082  16.187  0.00  0.00    +0.000 C 
ENDBRANCH  20  21
ENDBRANCH   5  20
TORSDOF 7
ENDMDL
MODEL 5
REMARK VINA RESULT:      -7.5      0.710      1.417
REMARK  Name = 
REMARK  7 active torsions:
REMARK  status: ('A' for Active; 'I' for Inactive)
REMARK    1  A    between atoms: O_1  and  C_2
REMARK    2  A    between atoms: C_2  and  C_3
REMARK    3  A    between atoms: N_5  and  C_6
REMARK    4  A    between atoms: C_6  and  C_7
REMARK    5  A    between atoms: C_12  and  C_13
REMARK    6  A    between atoms: C_18  and  C_19
REMARK    7  A    between atoms: C_19  and  N_20
REMARK                            x       y       z     vdW  Elec       q    Type
REMARK                         _______ _______ _______ _____ _____    ______ ____
ROOT
ATOM      1  C   UNL     1       7.459   5.476  17.831  0.00  0.00    +0.000 C 
ATOM      2  C   UNL     1       7.044   4.799  19.147  0.00  0.00    +0.000 C 
ATOM      3  N   UNL     1       5.704   4.225  18.985  0.00  0.00    +0.000 NA
ATOM      4  C   UNL     1       5.527   3.997  17.542  0.00  0.00    +0.000 C 
ATOM      5  C   UNL     1       6.580   4.811  16.763  0.00  0.00    +0.000 C 
ENDROOT
BRANCH   1   6
ATOM      6  C   UNL     1       7.440   7.001  17.932  0.00  0.00    +0.000 C 
BRANCH   6   7
ATOM      7  O   UNL     1       8.466   7.426  18.832  0.00  0.00    +0.000 OA
ATOM      8  H   UNL     1       8.857   6.620  19.219  0.00  0.00    +0.000 HD
ENDBRANCH   6   7
ENDBRANCH   1   6
BRANCH   3   9
ATOM      9  C   UNL     1       4.587   4.997  19.537  0.00  0.00    +0.000 C 
BRANCH   9  10
ATOM     10  C   UNL     1       3.330   4.205  19.877  0.00  0.00    +0.000 A 
ATOM     11  C   UNL     1       3.307   3.558  21.133  0.00  0.00    +0.000 A 
ATOM     12  C   UNL     1       2.176   2.870  21.580  0.00  0.00    +0.000 A 
ATOM     13  C   UNL     1       1.033   2.828  20.792  0.00  0.00    +0.000 A 
ATOM     14  C   UNL     1       1.039   3.444  19.544  0.00  0.00    +0.000 A 
ATOM     15  C   UNL     1       2.184   4.120  19.054  0.00  0.00    +0.000 A 
BRANCH  15  16
ATOM     16  C   UNL     1       2.056   4.715  17.669  0.00  0.00    +0.000 C 
ATOM     17  F   UNL     1       2.453   6.006  17.524  0.00  0.00    +0.000 F 
ATOM     18  F   UNL     1       2.760   4.002  16.739  0.00  0.00    +0.000 F 
ATOM     19  F   UNL     1       0.762   4.686  17.230  0.00  0.00    +0.000 F 
ENDBRANCH  15  16
ENDBRANCH   9  10
ENDBRANCH   3   9
BRANCH   5  20
ATOM     20  C   UNL     1       5.921   5.679  15.666  0.00  0.00    +0.000 C 
BRANCH  20  21
ATOM     21  N   UNL     1       6.098   5.276  14.254  0.00  0.00    +0.000 NA
ATOM     22  C   UNL     1       7.505   5.227  13.826  0.00  0.00    +0.000 C 
ATOM     23  C   UNL     1       7.626   4.838  12.348  0.00  0.00    +0.000 C 
ATOM     24  C   UNL     1       6.957   3.500  12.064  0.00  0.00    +0.000 C 
ATOM     25  C   UNL     1       5.521   3.517  12.571  0.00  0.00    +0.000 C 
ATOM     26  C   UNL     1       5.454   3.962  14.034  0.00  0.00    +0.000 C 
ENDBRANCH  20  21
ENDBRANCH   5  20
TORSDOF 7
ENDMDL
MODEL 6
REMARK VINA RESULT:      -7.4      3.515      5.269
REMARK  Name = 
REMARK  7 active torsions:
REMARK  status: ('A' for Active; 'I' for Inactive)
REMARK    1  A    between atoms: O_1  and  C_2
REMARK    2  A    between atoms: C_2  and  C_3
REMARK    3  A    between atoms: N_5  and  C_6
REMARK    4  A    between atoms: C_6  and  C_7
REMARK    5  A    between atoms: C_12  and  C_13
REMARK    6  A    between atoms: C_18  and  C_19
REMARK    7  A    between atoms: C_19  and  N_20
REMARK                            x       y       z     vdW  Elec       q    Type
REMARK                         _______ _______ _______ _____ _____    ______ ____
ROOT
ATOM      1  C   UNL     1       2.720   2.619  19.846  0.00  0.00    +0.000 C 
ATOM      2  C   UNL     1       1.753   3.555  20.589  0.00  0.00    +0.000 C 
ATOM      3  N   UNL     1       1.623   4.804  19.831  0.00  0.00    +0.000 NA
ATOM      4  C   UNL     1       1.961   4.475  18.438  0.00  0.00    +0.000 C 
ATOM      5  C   UNL     1       2.707   3.125  18.397  0.00  0.00    +0.000 C 
ENDROOT
BRANCH   1   6
ATOM      6  C   UNL     1       4.069   2.497  20.554  0.00  0.00    +0.000 C 
BRANCH   6   7
ATOM      7  O   UNL     1       4.860   1.506  19.894  0.00  0.00    +0.000 OA
ATOM      8  H   UNL     1       4.687   1.596  18.937  0.00  0.00    +0.000 HD
ENDBRANCH   6   7
ENDBRANCH   1   6
BRANCH   3   9
ATOM      9  C   UNL     1       2.406   5.947  20.308  0.00  0.00    +0.000 C 
BRANCH   9  10
ATOM     10  C   UNL     1       2.233   7.247  19.531  0.00  0.00    +0.000 A 
ATOM     11  C   UNL     1       2.900   7.338  18.289  0.00  0.00    +0.000 A 
ATOM     12  C   UNL     1       2.749   8.450  17.457  0.00  0.00    +0.000 A 
ATOM     13  C   UNL     1       1.910   9.491  17.837  0.00  0.00    +0.000 A 
ATOM     14  C   UNL     1       1.256   9.430  19.064  0.00  0.00    +0.000 A 
ATOM     15  C   UNL     1       1.419   8.327  19.939  0.00  0.00    +0.000 A 
BRANCH  15  16
ATOM     16  C   UNL     1       0.670   8.412  21.252  0.00  0.00    +0.000 C 
ATOM     17  F   UNL     1      -0.231   7.426  21.499  0.00  0.00    +0.000 F 
ATOM     18  F   UNL     1       1.518   8.419  22.323  0.00  0.00    +0.000 F 
ATOM     19  F   UNL     1      -0.035   9.578  21.351  0.00  0.00    +0.000 F 
ENDBRANCH  15  16
ENDBRANCH   9  10
ENDBRANCH   3   9
BRANCH   5  20
ATOM     20  C   UNL     1       4.036   3.241  17.616  0.00  0.00    +0.000 C 
BRANCH  20  21
ATOM     21  N   UNL     1       4.728   4.548  17.602  0.00  0.00    +0.000 NA
ATOM     22  C   UNL     1       5.951   4.579  18.417  0.00  0.00    +0.000 C 
ATOM     23  C   UNL     1       6.605   5.965  18.393  0.00  0.00    +0.000 C 
ATOM     24  C   UNL     1       6.926   6.408  16.972  0.00  0.00    +0.000 C 
ATOM     25  C   UNL     1       5.682   6.308  16.101  0.00  0.00    +0.000 C 
ATOM     26  C   UNL     1       5.040   4.923  16.204  0.00  0.00    +0.000 C 
ENDBRANCH  20  21
ENDBRANCH   5  20
TORSDOF 7
ENDMDL
MODEL 7
REMARK VINA RESULT:      -7.3      3.439      4.957
REMARK  Name = 
REMARK  7 active torsions:
REMARK  status: ('A' for Active; 'I' for Inactive)
REMARK    1  A    between atoms: O_1  and  C_2
REMARK    2  A    between atoms: C_2  and  C_3
REMARK    3  A    between atoms: N_5  and  C_6
REMARK    4  A    between atoms: C_6  and  C_7
REMARK    5  A    between atoms: C_12  and  C_13
REMARK    6  A    between atoms: C_18  and  C_19
REMARK    7  A    between atoms: C_19  and  N_20
REMARK                            x       y       z     vdW  Elec       q    Type
REMARK                         _______ _______ _______ _____ _____    ______ ____
ROOT
ATOM      1  C   UNL     1       3.092   3.257  19.224  0.00  0.00    +0.000 C 
ATOM      2  C   UNL     1       2.025   4.124  19.913  0.00  0.00    +0.000 C 
ATOM      3  N   UNL     1       1.952   5.420  19.231  0.00  0.00    +0.000 NA
ATOM      4  C   UNL     1       2.456   5.196  17.867  0.00  0.00    +0.000 C 
ATOM      5  C   UNL     1       3.233   3.864  17.821  0.00  0.00    +0.000 C 
ENDROOT
BRANCH   1   6
ATOM      6  C   UNL     1       4.353   3.106  20.074  0.00  0.00    +0.000 C 
BRANCH   6   7
ATOM      7  O   UNL     1       4.959   1.842  19.797  0.00  0.00    +0.000 OA
ATOM      8  H   UNL     1       4.241   1.181  19.778  0.00  0.00    +0.000 HD
ENDBRANCH   6   7
ENDBRANCH   1   6
BRANCH   3   9
ATOM      9  C   UNL     1       2.649   6.539  19.873  0.00  0.00    +0.000 C 
BRANCH   9  10
ATOM     10  C   UNL     1       1.786   7.740  20.243  0.00  0.00    +0.000 A 
ATOM     11  C   UNL     1       1.251   7.758  21.550  0.00  0.00    +0.000 A 
ATOM     12  C   UNL     1       0.511   8.846  22.022  0.00  0.00    +0.000 A 
ATOM     13  C   UNL     1       0.306   9.951  21.207  0.00  0.00    +0.000 A 
ATOM     14  C   UNL     1       0.810   9.948  19.909  0.00  0.00    +0.000 A 
ATOM     15  C   UNL     1       1.536   8.843  19.397  0.00  0.00    +0.000 A 
BRANCH  15  16
ATOM     16  C   UNL     1       1.997   8.967  17.961  0.00  0.00    +0.000 C 
ATOM     17  F   UNL     1       3.191   8.396  17.656  0.00  0.00    +0.000 F 
ATOM     18  F   UNL     1       1.093   8.432  17.086  0.00  0.00    +0.000 F 
ATOM     19  F   UNL     1       2.118  10.276  17.585  0.00  0.00    +0.000 F 
ENDBRANCH  15  16
ENDBRANCH   9  10
ENDBRANCH   3   9
BRANCH   5  20
ATOM     20  C   UNL     1       4.639   4.056  17.209  0.00  0.00    +0.000 C 
BRANCH  20  21
ATOM     21  N   UNL     1       5.483   5.155  17.724  0.00  0.00    +0.000 NA
ATOM     22  C   UNL     1       6.839   4.730  18.106  0.00  0.00    +0.000 C 
ATOM     23  C   UNL     1       7.655   5.902  18.665  0.00  0.00    +0.000 C 
ATOM     24  C   UNL     1       7.740   7.051  17.668  0.00  0.00    +0.000 C 
ATOM     25  C   UNL     1       6.344   7.448  17.210  0.00  0.00    +0.000 C 
ATOM     26  C   UNL     1       5.556   6.234  16.713  0.00  0.00    +0.000 C 
ENDBRANCH  20  21
ENDBRANCH   5  20
TORSDOF 7
ENDMDL
MODEL 8
REMARK VINA RESULT:      -7.2      3.214      6.631
REMARK  Name = 
REMARK  7 active torsions:
REMARK  status: ('A' for Active; 'I' for Inactive)
REMARK    1  A    between atoms: O_1  and  C_2
REMARK    2  A    between atoms: C_2  and  C_3
REMARK    3  A    between atoms: N_5  and  C_6
REMARK    4  A    between atoms: C_6  and  C_7
REMARK    5  A    between atoms: C_12  and  C_13
REMARK    6  A    between atoms: C_18  and  C_19
REMARK    7  A    between atoms: C_19  and  N_20
REMARK                            x       y       z     vdW  Elec       q    Type
REMARK                         _______ _______ _______ _____ _____    ______ ____
ROOT
ATOM      1  C   UNL     1       2.806   3.576  18.955  0.00  0.00    +0.000 C 
ATOM      2  C   UNL     1       4.151   2.935  19.337  0.00  0.00    +0.000 C 
ATOM      3  N   UNL     1       5.175   3.982  19.404  0.00  0.00    +0.000 NA
ATOM      4  C   UNL     1       4.460   5.241  19.662  0.00  0.00    +0.000 C 
ATOM      5  C   UNL     1       2.962   5.054  19.341  0.00  0.00    +0.000 C 
ENDROOT
BRANCH   1   6
ATOM      6  C   UNL     1       2.393   3.246  17.521  0.00  0.00    +0.000 C 
BRANCH   6   7
ATOM      7  O   UNL     1       2.164   1.839  17.409  0.00  0.00    +0.000 OA
ATOM      8  H   UNL     1       1.216   1.691  17.588  0.00  0.00    +0.000 HD
ENDBRANCH   6   7
ENDBRANCH   1   6
BRANCH   3   9
ATOM      9  C   UNL     1       6.062   4.109  18.244  0.00  0.00    +0.000 C 
BRANCH   9  10
ATOM     10  C   UNL     1       6.672   5.487  18.016  0.00  0.00    +0.000 A 
ATOM     11  C   UNL     1       7.590   5.944  18.988  0.00  0.00    +0.000 A 
ATOM     12  C   UNL     1       8.268   7.156  18.840  0.00  0.00    +0.000 A 
ATOM     13  C   UNL     1       8.061   7.934  17.708  0.00  0.00    +0.000 A 
ATOM     14  C   UNL     1       7.148   7.511  16.745  0.00  0.00    +0.000 A 
ATOM     15  C   UNL     1       6.425   6.301  16.888  0.00  0.00    +0.000 A 
BRANCH  15  16
ATOM     16  C   UNL     1       5.445   5.984  15.778  0.00  0.00    +0.000 C 
ATOM     17  F   UNL     1       5.967   5.444  14.646  0.00  0.00    +0.000 F 
ATOM     18  F   UNL     1       4.470   5.119  16.189  0.00  0.00    +0.000 F 
ATOM     19  F   UNL     1       4.776   7.102  15.368  0.00  0.00    +0.000 F 
ENDBRANCH  15  16
ENDBRANCH   9  10
ENDBRANCH   3   9
BRANCH   5  20
ATOM     20  C   UNL     1       2.452   6.153  18.380  0.00  0.00    +0.000 C 
BRANCH  20  21
ATOM     21  N   UNL     1       2.315   7.530  18.903  0.00  0.00    +0.000 NA
ATOM     22  C   UNL     1       1.707   8.466  17.946  0.00  0.00    +0.000 C 
ATOM     23  C   UNL     1       1.621   9.883  18.527  0.00  0.00    +0.000 C 
ATOM     24  C   UNL     1       0.838   9.905  19.833  0.00  0.00    +0.000 C 
ATOM     25  C   UNL     1       1.415   8.884  20.804  0.00  0.00    +0.000 C 
ATOM     26  C   UNL     1       1.528   7.502  20.156  0.00  0.00    +0.000 C 
ENDBRANCH  20  21
ENDBRANCH   5  20
TORSDOF 7
ENDMDL
MODEL 9
REMARK VINA RESULT:      -7.1      3.308      6.873
REMARK  Name = 
REMARK  7 active torsions:
REMARK  status: ('A' for Active; 'I' for Inactive)
REMARK    1  A    between atoms: O_1  and  C_2
REMARK    2  A    between atoms: C_2  and  C_3
REMARK    3  A    between atoms: N_5  and  C_6
REMARK    4  A    between atoms: C_6  and  C_7
REMARK    5  A    between atoms: C_12  and  C_13
REMARK    6  A    between atoms: C_18  and  C_19
REMARK    7  A    between atoms: C_19  and  N_20
REMARK                            x       y       z     vdW  Elec       q    Type
REMARK                         _______ _______ _______ _____ _____    ______ ____
ROOT
ATOM      1  C   UNL     1       1.859   4.289  19.108  0.00  0.00    +0.000 C 
ATOM      2  C   UNL     1       2.943   3.227  19.354  0.00  0.00    +0.000 C 
ATOM      3  N   UNL     1       4.234   3.898  19.537  0.00  0.00    +0.000 NA
ATOM      4  C   UNL     1       3.927   5.263  19.992  0.00  0.00    +0.000 C 
ATOM      5  C   UNL     1       2.447   5.580  19.693  0.00  0.00    +0.000 C 
ENDROOT
BRANCH   1   6
ATOM      6  C   UNL     1       1.384   4.307  17.655  0.00  0.00    +0.000 C 
BRANCH   6   7
ATOM      7  O   UNL     1       2.169   3.388  16.892  0.00  0.00    +0.000 OA
ATOM      8  H   UNL     1       2.580   2.770  17.526  0.00  0.00    +0.000 HD
ENDBRANCH   6   7
ENDBRANCH   1   6
BRANCH   3   9
ATOM      9  C   UNL     1       5.133   3.918  18.379  0.00  0.00    +0.000 C 
BRANCH   9  10
ATOM     10  C   UNL     1       6.068   5.118  18.280  0.00  0.00    +0.000 A 
ATOM     11  C   UNL     1       7.054   5.240  19.285  0.00  0.00    +0.000 A 
ATOM     12  C   UNL     1       8.012   6.255  19.250  0.00  0.00    +0.000 A 
ATOM     13  C   UNL     1       8.023   7.164  18.199  0.00  0.00    +0.000 A 
ATOM     14  C   UNL     1       7.051   7.073  17.206  0.00  0.00    +0.000 A 
ATOM     15  C   UNL     1       6.048   6.072  17.238  0.00  0.00    +0.000 A 
BRANCH  15  16
ATOM     16  C   UNL     1       5.040   6.114  16.110  0.00  0.00    +0.000 C 
ATOM     17  F   UNL     1       4.945   4.999  15.339  0.00  0.00    +0.000 F 
ATOM     18  F   UNL     1       3.775   6.361  16.565  0.00  0.00    +0.000 F 
ATOM     19  F   UNL     1       5.306   7.132  15.238  0.00  0.00    +0.000 F 
ENDBRANCH  15  16
ENDBRANCH   9  10
ENDBRANCH   3   9
BRANCH   5  20
ATOM     20  C   UNL     1       2.303   6.908  18.913  0.00  0.00    +0.000 C 
BRANCH  20  21
ATOM     21  N   UNL     1       1.974   8.133  19.672  0.00  0.00    +0.000 NA
ATOM     22  C   UNL     1       1.173   9.103  18.910  0.00  0.00    +0.000 C 
ATOM     23  C   UNL     1       0.892  10.366  19.734  0.00  0.00    +0.000 C 
ATOM     24  C   UNL     1       0.187  10.035  21.043  0.00  0.00    +0.000 C 
ATOM     25  C   UNL     1       0.972   8.976  21.805  0.00  0.00    +0.000 C 
ATOM     26  C   UNL     1       1.271   7.763  20.921  0.00  0.00    +0.000 C 
ENDBRANCH  20  21
ENDBRANCH   5  20
TORSDOF 7
ENDMDL
