MODEL 1
REMARK VINA RESULT:      -9.3      0.000      0.000
REMARK  Name = 
REMARK  8 active torsions:
REMARK  status: ('A' for Active; 'I' for Inactive)
REMARK    1  A    between atoms: C_1  and  O_2
REMARK    2  A    between atoms: O_2  and  C_3
REMARK    3  A    between atoms: C_6  and  C_7
REMARK    4  A    between atoms: C_7  and  C_8
REMARK    5  A    between atoms: C_8  and  N_9
REMARK    6  A    between atoms: C_10  and  C_12
REMARK    7  A    between atoms: C_28  and  O_29
REMARK    8  A    between atoms: O_29  and  C_30
REMARK                            x       y       z     vdW  Elec       q    Type
REMARK                         _______ _______ _______ _____ _____    ______ ____
ROOT
ATOM      1  N   UNL     1       7.528   7.771  17.420  0.00  0.00    +0.000 N 
ATOM      2  C   UNL     1       7.319   6.471  17.828  0.00  0.00    +0.000 C 
ATOM      3  O   UNL     1       7.787   6.017  18.869  0.00  0.00    +0.000 OA
ATOM      4  H   UNL     1       6.923   8.173  16.717  0.00  0.00    +0.000 HD
ENDROOT
BRANCH   2   5
ATOM      5  C   UNL     1       6.487   5.603  16.950  0.00  0.00    +0.000 A 
ATOM      6  C   UNL     1       7.030   5.030  15.787  0.00  0.00    +0.000 A 
ATOM      7  C   UNL     1       6.283   4.122  15.033  0.00  0.00    +0.000 A 
ATOM      8  C   UNL     1       5.023   3.724  15.472  0.00  0.00    +0.000 A 
ATOM      9  C   UNL     1       4.497   4.263  16.652  0.00  0.00    +0.000 A 
ATOM     10  C   UNL     1       3.230   3.736  17.214  0.00  0.00    +0.000 A 
ATOM     11  O   UNL     1       2.626   2.828  16.646  0.00  0.00    +0.000 OA
ATOM     12  C   UNL     1       2.719   4.303  18.485  0.00  0.00    +0.000 A 
ATOM     13  C   UNL     1       1.629   3.724  19.141  0.00  0.00    +0.000 A 
ATOM     14  C   UNL     1       1.106   4.340  20.277  0.00  0.00    +0.000 A 
ATOM     15  C   UNL     1       1.642   5.550  20.722  0.00  0.00    +0.000 A 
ATOM     16  C   UNL     1       2.765   6.093  20.093  0.00  0.00    +0.000 A 
ATOM     17  C   UNL     1       3.358   5.429  19.018  0.00  0.00    +0.000 A 
ATOM     18  N   UNL     1       4.532   5.922  18.428  0.00  0.00    +0.000 N 
ATOM     19  C   UNL     1       5.193   5.243  17.376  0.00  0.00    +0.000 A 
ATOM     20  H   UNL     1       5.178   6.381  19.079  0.00  0.00    +0.000 HD
ENDBRANCH   2   5
BRANCH   1  21
ATOM     21  C   UNL     1       8.354   8.645  18.233  0.00  0.00    +0.000 C 
BRANCH  21  22
ATOM     22  C   UNL     1       8.351  10.085  17.727  0.00  0.00    +0.000 C 
BRANCH  22  26
ATOM     23  C   UNL     1      11.412  12.630  19.427  0.00  0.00    +0.000 A 
ATOM     24  C   UNL     1      11.490  12.213  18.089  0.00  0.00    +0.000 A 
ATOM     25  C   UNL     1      10.508  11.389  17.536  0.00  0.00    +0.000 A 
ATOM     26  C   UNL     1       9.454  10.922  18.322  0.00  0.00    +0.000 A 
ATOM     27  C   UNL     1       9.424  11.278  19.673  0.00  0.00    +0.000 A 
ATOM     28  C   UNL     1      10.396  12.115  20.243  0.00  0.00    +0.000 A 
BRANCH  23  30
ATOM     29  C   UNL     1      12.153  14.872  19.601  0.00  0.00    +0.000 C 
ATOM     30  O   UNL     1      12.333  13.500  19.948  0.00  0.00    +0.000 OA
ENDBRANCH  23  30
BRANCH  28  31
ATOM     31  O   UNL     1      10.169  12.331  21.578  0.00  0.00    +0.000 OA
ATOM     32  C   UNL     1       9.032  13.081  21.969  0.00  0.00    +0.000 C 
ENDBRANCH  28  31
ENDBRANCH  22  26
ENDBRANCH  21  22
ENDBRANCH   1  21
TORSDOF 6
ENDMDL
MODEL 2
REMARK VINA RESULT:      -9.2      1.184      1.572
REMARK  Name = 
REMARK  8 active torsions:
REMARK  status: ('A' for Active; 'I' for Inactive)
REMARK    1  A    between atoms: C_1  and  O_2
REMARK    2  A    between atoms: O_2  and  C_3
REMARK    3  A    between atoms: C_6  and  C_7
REMARK    4  A    between atoms: C_7  and  C_8
REMARK    5  A    between atoms: C_8  and  N_9
REMARK    6  A    between atoms: C_10  and  C_12
REMARK    7  A    between atoms: C_28  and  O_29
REMARK    8  A    between atoms: O_29  and  C_30
REMARK                            x       y       z     vdW  Elec       q    Type
REMARK                         _______ _______ _______ _____ _____    ______ ____
ROOT
ATOM      1  N   UNL     1       7.508   7.819  17.443  0.00  0.00    +0.000 N 
ATOM      2  C   UNL     1       7.267   6.530  17.866  0.00  0.00    +0.000 C 
ATOM      3  O   UNL     1       7.695   6.088  18.931  0.00  0.00    +0.000 OA
ATOM      4  H   UNL     1       6.932   8.218  16.713  0.00  0.00    +0.000 HD
ENDROOT
BRANCH   2   5
ATOM      5  C   UNL     1       6.450   5.658  16.977  0.00  0.00    +0.000 A 
ATOM      6  C   UNL     1       7.004   5.109  15.808  0.00  0.00    +0.000 A 
ATOM      7  C   UNL     1       6.273   4.197  15.043  0.00  0.00    +0.000 A 
ATOM      8  C   UNL     1       5.019   3.773  15.477  0.00  0.00    +0.000 A 
ATOM      9  C   UNL     1       4.484   4.288  16.662  0.00  0.00    +0.000 A 
ATOM     10  C   UNL     1       3.225   3.733  17.217  0.00  0.00    +0.000 A 
ATOM     11  O   UNL     1       2.638   2.822  16.638  0.00  0.00    +0.000 OA
ATOM     12  C   UNL     1       2.705   4.275  18.495  0.00  0.00    +0.000 A 
ATOM     13  C   UNL     1       1.624   3.670  19.142  0.00  0.00    +0.000 A 
ATOM     14  C   UNL     1       1.090   4.263  20.286  0.00  0.00    +0.000 A 
ATOM     15  C   UNL     1       1.605   5.476  20.745  0.00  0.00    +0.000 A 
ATOM     16  C   UNL     1       2.719   6.047  20.124  0.00  0.00    +0.000 A 
ATOM     17  C   UNL     1       3.324   5.406  19.041  0.00  0.00    +0.000 A 
ATOM     18  N   UNL     1       4.489   5.926  18.458  0.00  0.00    +0.000 N 
ATOM     19  C   UNL     1       5.162   5.271  17.398  0.00  0.00    +0.000 A 
ATOM     20  H   UNL     1       5.127   6.388  19.115  0.00  0.00    +0.000 HD
ENDBRANCH   2   5
BRANCH   1  21
ATOM     21  C   UNL     1       8.321   8.695  18.266  0.00  0.00    +0.000 C 
BRANCH  21  22
ATOM     22  C   UNL     1       8.659  10.007  17.563  0.00  0.00    +0.000 C 
BRANCH  22  26
ATOM     23  C   UNL     1      10.218  13.076  20.188  0.00  0.00    +0.000 A 
ATOM     24  C   UNL     1      10.112  11.746  20.625  0.00  0.00    +0.000 A 
ATOM     25  C   UNL     1       9.606  10.752  19.785  0.00  0.00    +0.000 A 
ATOM     26  C   UNL     1       9.148  11.075  18.507  0.00  0.00    +0.000 A 
ATOM     27  C   UNL     1       9.185  12.414  18.105  0.00  0.00    +0.000 A 
ATOM     28  C   UNL     1       9.701  13.423  18.933  0.00  0.00    +0.000 A 
BRANCH  23  30
ATOM     29  C   UNL     1       9.898  14.688  21.892  0.00  0.00    +0.000 C 
ATOM     30  O   UNL     1      10.784  14.035  20.985  0.00  0.00    +0.000 OA
ENDBRANCH  23  30
BRANCH  28  31
ATOM     31  O   UNL     1       9.640  14.657  18.337  0.00  0.00    +0.000 OA
ATOM     32  C   UNL     1       8.416  15.370  18.356  0.00  0.00    +0.000 C 
ENDBRANCH  28  31
ENDBRANCH  22  26
ENDBRANCH  21  22
ENDBRANCH   1  21
TORSDOF 6
ENDMDL
MODEL 3
REMARK VINA RESULT:      -9.1      1.334      1.455
REMARK  Name = 
REMARK  8 active torsions:
REMARK  status: ('A' for Active; 'I' for Inactive)
REMARK    1  A    between atoms: C_1  and  O_2
REMARK    2  A    between atoms: O_2  and  C_3
REMARK    3  A    between atoms: C_6  and  C_7
REMARK    4  A    between atoms: C_7  and  C_8
REMARK    5  A    between atoms: C_8  and  N_9
REMARK    6  A    between atoms: C_10  and  C_12
REMARK    7  A    between atoms: C_28  and  O_29
REMARK    8  A    between atoms: O_29  and  C_30
REMARK                            x       y       z     vdW  Elec       q    Type
REMARK                         _______ _______ _______ _____ _____    ______ ____
ROOT
ATOM      1  N   UNL     1       7.631   7.889  17.159  0.00  0.00    +0.000 N 
ATOM      2  C   UNL     1       7.273   6.678  17.714  0.00  0.00    +0.000 C 
ATOM      3  O   UNL     1       7.592   6.349  18.854  0.00  0.00    +0.000 OA
ATOM      4  H   UNL     1       7.137   8.225  16.343  0.00  0.00    +0.000 HD
ENDROOT
BRANCH   2   5
ATOM      5  C   UNL     1       6.467   5.751  16.873  0.00  0.00    +0.000 A 
ATOM      6  C   UNL     1       7.022   5.159  15.726  0.00  0.00    +0.000 A 
ATOM      7  C   UNL     1       6.303   4.199  15.010  0.00  0.00    +0.000 A 
ATOM      8  C   UNL     1       5.061   3.772  15.473  0.00  0.00    +0.000 A 
ATOM      9  C   UNL     1       4.525   4.331  16.638  0.00  0.00    +0.000 A 
ATOM     10  C   UNL     1       3.282   3.779  17.229  0.00  0.00    +0.000 A 
ATOM     11  O   UNL     1       2.707   2.831  16.698  0.00  0.00    +0.000 OA
ATOM     12  C   UNL     1       2.760   4.369  18.485  0.00  0.00    +0.000 A 
ATOM     13  C   UNL     1       1.696   3.775  19.169  0.00  0.00    +0.000 A 
ATOM     14  C   UNL     1       1.160   4.410  20.288  0.00  0.00    +0.000 A 
ATOM     15  C   UNL     1       1.655   5.653  20.687  0.00  0.00    +0.000 A 
ATOM     16  C   UNL     1       2.753   6.215  20.030  0.00  0.00    +0.000 A 
ATOM     17  C   UNL     1       3.362   5.536  18.973  0.00  0.00    +0.000 A 
ATOM     18  N   UNL     1       4.513   6.050  18.357  0.00  0.00    +0.000 N 
ATOM     19  C   UNL     1       5.190   5.360  17.322  0.00  0.00    +0.000 A 
ATOM     20  H   UNL     1       5.146   6.555  18.986  0.00  0.00    +0.000 HD
ENDBRANCH   2   5
BRANCH   1  21
ATOM     21  C   UNL     1       8.439   8.812  17.934  0.00  0.00    +0.000 C 
BRANCH  21  22
ATOM     22  C   UNL     1       7.882  10.234  17.911  0.00  0.00    +0.000 C 
BRANCH  22  26
ATOM     23  C   UNL     1      10.951  13.276  18.168  0.00  0.00    +0.000 A 
ATOM     24  C   UNL     1      11.261  11.925  18.395  0.00  0.00    +0.000 A 
ATOM     25  C   UNL     1      10.275  10.940  18.317  0.00  0.00    +0.000 A 
ATOM     26  C   UNL     1       8.948  11.287  18.062  0.00  0.00    +0.000 A 
ATOM     27  C   UNL     1       8.633  12.642  17.913  0.00  0.00    +0.000 A 
ATOM     28  C   UNL     1       9.613  13.644  17.977  0.00  0.00    +0.000 A 
BRANCH  23  30
ATOM     29  C   UNL     1      12.319  14.720  19.453  0.00  0.00    +0.000 C 
ATOM     30  O   UNL     1      11.932  14.232  18.169  0.00  0.00    +0.000 OA
ENDBRANCH  23  30
BRANCH  28  31
ATOM     31  O   UNL     1       9.080  14.896  17.803  0.00  0.00    +0.000 OA
ATOM     32  C   UNL     1       7.787  15.169  18.313  0.00  0.00    +0.000 C 
ENDBRANCH  28  31
ENDBRANCH  22  26
ENDBRANCH  21  22
ENDBRANCH   1  21
TORSDOF 6
ENDMDL
MODEL 4
REMARK VINA RESULT:      -8.8      0.730      1.727
REMARK  Name = 
REMARK  8 active torsions:
REMARK  status: ('A' for Active; 'I' for Inactive)
REMARK    1  A    between atoms: C_1  and  O_2
REMARK    2  A    between atoms: O_2  and  C_3
REMARK    3  A    between atoms: C_6  and  C_7
REMARK    4  A    between atoms: C_7  and  C_8
REMARK    5  A    between atoms: C_8  and  N_9
REMARK    6  A    between atoms: C_10  and  C_12
REMARK    7  A    between atoms: C_28  and  O_29
REMARK    8  A    between atoms: O_29  and  C_30
REMARK                            x       y       z     vdW  Elec       q    Type
REMARK                         _______ _______ _______ _____ _____    ______ ____
ROOT
ATOM      1  N   UNL     1       7.687   7.817  17.327  0.00  0.00    +0.000 N 
ATOM      2  C   UNL     1       7.267   6.598  17.813  0.00  0.00    +0.000 C 
ATOM      3  O   UNL     1       7.555   6.195  18.938  0.00  0.00    +0.000 OA
ATOM      4  H   UNL     1       7.220   8.218  16.525  0.00  0.00    +0.000 HD
ENDROOT
BRANCH   2   5
ATOM      5  C   UNL     1       6.428   5.754  16.917  0.00  0.00    +0.000 A 
ATOM      6  C   UNL     1       6.953   5.243  15.717  0.00  0.00    +0.000 A 
ATOM      7  C   UNL     1       6.204   4.356  14.941  0.00  0.00    +0.000 A 
ATOM      8  C   UNL     1       4.962   3.917  15.392  0.00  0.00    +0.000 A 
ATOM      9  C   UNL     1       4.456   4.393  16.606  0.00  0.00    +0.000 A 
ATOM     10  C   UNL     1       3.211   3.819  17.173  0.00  0.00    +0.000 A 
ATOM     11  O   UNL     1       2.610   2.926  16.580  0.00  0.00    +0.000 OA
ATOM     12  C   UNL     1       2.722   4.319  18.480  0.00  0.00    +0.000 A 
ATOM     13  C   UNL     1       1.657   3.692  19.134  0.00  0.00    +0.000 A 
ATOM     14  C   UNL     1       1.151   4.248  20.309  0.00  0.00    +0.000 A 
ATOM     15  C   UNL     1       1.678   5.446  20.795  0.00  0.00    +0.000 A 
ATOM     16  C   UNL     1       2.775   6.037  20.165  0.00  0.00    +0.000 A 
ATOM     17  C   UNL     1       3.354   5.432  19.047  0.00  0.00    +0.000 A 
ATOM     18  N   UNL     1       4.505   5.972  18.453  0.00  0.00    +0.000 N 
ATOM     19  C   UNL     1       5.152   5.353  17.356  0.00  0.00    +0.000 A 
ATOM     20  H   UNL     1       5.158   6.414  19.108  0.00  0.00    +0.000 HD
ENDBRANCH   2   5
BRANCH   1  21
ATOM     21  C   UNL     1       8.527   8.660  18.157  0.00  0.00    +0.000 C 
BRANCH  21  22
ATOM     22  C   UNL     1       8.050  10.110  18.184  0.00  0.00    +0.000 C 
BRANCH  22  26
ATOM     23  C   UNL     1      11.240  12.748  19.453  0.00  0.00    +0.000 A 
ATOM     24  C   UNL     1      10.108  12.552  20.261  0.00  0.00    +0.000 A 
ATOM     25  C   UNL     1       9.074  11.706  19.855  0.00  0.00    +0.000 A 
ATOM     26  C   UNL     1       9.124  11.077  18.612  0.00  0.00    +0.000 A 
ATOM     27  C   UNL     1      10.218  11.335  17.779  0.00  0.00    +0.000 A 
ATOM     28  C   UNL     1      11.271  12.174  18.175  0.00  0.00    +0.000 A 
BRANCH  23  30
ATOM     29  C   UNL     1      12.046  14.922  19.927  0.00  0.00    +0.000 C 
ATOM     30  O   UNL     1      12.287  13.517  19.884  0.00  0.00    +0.000 OA
ENDBRANCH  23  30
BRANCH  28  31
ATOM     31  O   UNL     1      12.234  12.283  17.204  0.00  0.00    +0.000 OA
ATOM     32  C   UNL     1      12.330  13.486  16.464  0.00  0.00    +0.000 C 
ENDBRANCH  28  31
ENDBRANCH  22  26
ENDBRANCH  21  22
ENDBRANCH   1  21
TORSDOF 6
ENDMDL
MODEL 5
REMARK VINA RESULT:      -8.7      5.644      9.435
REMARK  Name = 
REMARK  8 active torsions:
REMARK  status: ('A' for Active; 'I' for Inactive)
REMARK    1  A    between atoms: C_1  and  O_2
REMARK    2  A    between atoms: O_2  and  C_3
REMARK    3  A    between atoms: C_6  and  C_7
REMARK    4  A    between atoms: C_7  and  C_8
REMARK    5  A    between atoms: C_8  and  N_9
REMARK    6  A    between atoms: C_10  and  C_12
REMARK    7  A    between atoms: C_28  and  O_29
REMARK    8  A    between atoms: O_29  and  C_30
REMARK                            x       y       z     vdW  Elec       q    Type
REMARK                         _______ _______ _______ _____ _____    ______ ____
ROOT
ATOM      1  N   UNL     1       1.298   8.912  20.041  0.00  0.00    +0.000 N 
ATOM      2  C   UNL     1       1.923   8.078  19.139  0.00  0.00    +0.000 C 
ATOM      3  O   UNL     1       2.198   8.426  17.992  0.00  0.00    +0.000 OA
ATOM      4  H   UNL     1       1.331   8.689  21.027  0.00  0.00    +0.000 HD
ENDROOT
BRANCH   2   5
ATOM      5  C   UNL     1       2.269   6.705  19.600  0.00  0.00    +0.000 A 
ATOM      6  C   UNL     1       1.627   6.142  20.716  0.00  0.00    +0.000 A 
ATOM      7  C   UNL     1       1.866   4.813  21.071  0.00  0.00    +0.000 A 
ATOM      8  C   UNL     1       2.687   4.018  20.276  0.00  0.00    +0.000 A 
ATOM      9  C   UNL     1       3.295   4.566  19.141  0.00  0.00    +0.000 A 
ATOM     10  C   UNL     1       4.043   3.696  18.200  0.00  0.00    +0.000 A 
ATOM     11  O   UNL     1       4.143   2.490  18.412  0.00  0.00    +0.000 OA
ATOM     12  C   UNL     1       4.643   4.301  16.987  0.00  0.00    +0.000 A 
ATOM     13  C   UNL     1       5.205   3.500  15.989  0.00  0.00    +0.000 A 
ATOM     14  C   UNL     1       5.855   4.100  14.912  0.00  0.00    +0.000 A 
ATOM     15  C   UNL     1       5.981   5.490  14.862  0.00  0.00    +0.000 A 
ATOM     16  C   UNL     1       5.371   6.285  15.835  0.00  0.00    +0.000 A 
ATOM     17  C   UNL     1       4.630   5.696  16.861  0.00  0.00    +0.000 A 
ATOM     18  N   UNL     1       3.947   6.485  17.799  0.00  0.00    +0.000 N 
ATOM     19  C   UNL     1       3.139   5.922  18.817  0.00  0.00    +0.000 A 
ATOM     20  H   UNL     1       3.571   7.363  17.427  0.00  0.00    +0.000 HD
ENDBRANCH   2   5
BRANCH   1  21
ATOM     21  C   UNL     1       0.921  10.250  19.625  0.00  0.00    +0.000 C 
BRANCH  21  22
ATOM     22  C   UNL     1      -0.518  10.594  20.005  0.00  0.00    +0.000 C 
BRANCH  22  26
ATOM     23  C   UNL     1      -3.266  10.709  16.662  0.00  0.00    +0.000 A 
ATOM     24  C   UNL     1      -2.027  10.060  16.548  0.00  0.00    +0.000 A 
ATOM     25  C   UNL     1      -1.134  10.023  17.621  0.00  0.00    +0.000 A 
ATOM     26  C   UNL     1      -1.438  10.677  18.815  0.00  0.00    +0.000 A 
ATOM     27  C   UNL     1      -2.640  11.387  18.897  0.00  0.00    +0.000 A 
ATOM     28  C   UNL     1      -3.554  11.425  17.832  0.00  0.00    +0.000 A 
BRANCH  23  30
ATOM     29  C   UNL     1      -3.703  10.116  14.412  0.00  0.00    +0.000 C 
ATOM     30  O   UNL     1      -4.173  10.680  15.636  0.00  0.00    +0.000 OA
ENDBRANCH  23  30
BRANCH  28  31
ATOM     31  O   UNL     1      -4.661  12.177  18.132  0.00  0.00    +0.000 OA
ATOM     32  C   UNL     1      -4.999  12.390  19.491  0.00  0.00    +0.000 C 
ENDBRANCH  28  31
ENDBRANCH  22  26
ENDBRANCH  21  22
ENDBRANCH   1  21
TORSDOF 6
ENDMDL
MODEL 6
REMARK VINA RESULT:      -8.7      5.682      9.649
REMARK  Name = 
REMARK  8 active torsions:
REMARK  status: ('A' for Active; 'I' for Inactive)
REMARK    1  A    between atoms: C_1  and  O_2
REMARK    2  A    between atoms: O_2  and  C_3
REMARK    3  A    between atoms: C_6  and  C_7
REMARK    4  A    between atoms: C_7  and  C_8
REMARK    5  A    between atoms: C_8  and  N_9
REMARK    6  A    between atoms: C_10  and  C_12
REMARK    7  A    between atoms: C_28  and  O_29
REMARK    8  A    between atoms: O_29  and  C_30
REMARK                            x       y       z     vdW  Elec       q    Type
REMARK                         _______ _______ _______ _____ _____    ______ ____
ROOT
ATOM      1  N   UNL     1       1.310   9.372  19.319  0.00  0.00    +0.000 N 
ATOM      2  C   UNL     1       1.984   8.435  18.564  0.00  0.00    +0.000 C 
ATOM      3  O   UNL     1       2.313   8.634  17.397  0.00  0.00    +0.000 OA
ATOM      4  H   UNL     1       1.296   9.280  20.326  0.00  0.00    +0.000 HD
ENDROOT
BRANCH   2   5
ATOM      5  C   UNL     1       2.316   7.139  19.218  0.00  0.00    +0.000 A 
ATOM      6  C   UNL     1       1.649   6.736  20.387  0.00  0.00    +0.000 A 
ATOM      7  C   UNL     1       1.877   5.468  20.927  0.00  0.00    +0.000 A 
ATOM      8  C   UNL     1       2.712   4.570  20.266  0.00  0.00    +0.000 A 
ATOM      9  C   UNL     1       3.345   4.957  19.080  0.00  0.00    +0.000 A 
ATOM     10  C   UNL     1       4.110   3.966  18.284  0.00  0.00    +0.000 A 
ATOM     11  O   UNL     1       4.201   2.800  18.662  0.00  0.00    +0.000 OA
ATOM     12  C   UNL     1       4.737   4.397  17.012  0.00  0.00    +0.000 A 
ATOM     13  C   UNL     1       5.317   3.466  16.146  0.00  0.00    +0.000 A 
ATOM     14  C   UNL     1       5.991   3.912  15.010  0.00  0.00    +0.000 A 
ATOM     15  C   UNL     1       6.122   5.281  14.772  0.00  0.00    +0.000 A 
ATOM     16  C   UNL     1       5.494   6.204  15.613  0.00  0.00    +0.000 A 
ATOM     17  C   UNL     1       4.731   5.761  16.695  0.00  0.00    +0.000 A 
ATOM     18  N   UNL     1       4.031   6.672  17.500  0.00  0.00    +0.000 N 
ATOM     19  C   UNL     1       3.200   6.255  18.568  0.00  0.00    +0.000 A 
ATOM     20  H   UNL     1       3.665   7.491  17.003  0.00  0.00    +0.000 HD
ENDBRANCH   2   5
BRANCH   1  21
ATOM     21  C   UNL     1       0.945  10.639  18.714  0.00  0.00    +0.000 C 
BRANCH  21  22
ATOM     22  C   UNL     1      -0.036  11.433  19.573  0.00  0.00    +0.000 C 
BRANCH  22  26
ATOM     23  C   UNL     1      -4.058  11.370  17.975  0.00  0.00    +0.000 A 
ATOM     24  C   UNL     1      -3.763  12.093  19.142  0.00  0.00    +0.000 A 
ATOM     25  C   UNL     1      -2.469  12.114  19.665  0.00  0.00    +0.000 A 
ATOM     26  C   UNL     1      -1.452  11.372  19.062  0.00  0.00    +0.000 A 
ATOM     27  C   UNL     1      -1.769  10.594  17.944  0.00  0.00    +0.000 A 
ATOM     28  C   UNL     1      -3.063  10.570  17.400  0.00  0.00    +0.000 A 
BRANCH  23  30
ATOM     29  C   UNL     1      -6.372  10.956  18.256  0.00  0.00    +0.000 C 
ATOM     30  O   UNL     1      -5.310  11.412  17.420  0.00  0.00    +0.000 OA
ENDBRANCH  23  30
BRANCH  28  31
ATOM     31  O   UNL     1      -3.145   9.742  16.309  0.00  0.00    +0.000 OA
ATOM     32  C   UNL     1      -2.927  10.283  15.018  0.00  0.00    +0.000 C 
ENDBRANCH  28  31
ENDBRANCH  22  26
ENDBRANCH  21  22
ENDBRANCH   1  21
TORSDOF 6
ENDMDL
MODEL 7
REMARK VINA RESULT:      -8.7      5.322      8.114
REMARK  Name = 
REMARK  8 active torsions:
REMARK  status: ('A' for Active; 'I' for Inactive)
REMARK    1  A    between atoms: C_1  and  O_2
REMARK    2  A    between atoms: O_2  and  C_3
REMARK    3  A    between atoms: C_6  and  C_7
REMARK    4  A    between atoms: C_7  and  C_8
REMARK    5  A    between atoms: C_8  and  N_9
REMARK    6  A    between atoms: C_10  and  C_12
REMARK    7  A    between atoms: C_28  and  O_29
REMARK    8  A    between atoms: O_29  and  C_30
REMARK                            x       y       z     vdW  Elec       q    Type
REMARK                         _______ _______ _______ _____ _____    ______ ____
ROOT
ATOM      1  N   UNL     1       1.506   7.446  21.404  0.00  0.00    +0.000 N 
ATOM      2  C   UNL     1       1.927   6.972  20.180  0.00  0.00    +0.000 C 
ATOM      3  O   UNL     1       2.194   7.712  19.236  0.00  0.00    +0.000 OA
ATOM      4  H   UNL     1       1.554   6.842  22.213  0.00  0.00    +0.000 HD
ENDROOT
BRANCH   2   5
ATOM      5  C   UNL     1       2.054   5.497  20.024  0.00  0.00    +0.000 A 
ATOM      6  C   UNL     1       1.103   4.632  20.591  0.00  0.00    +0.000 A 
ATOM      7  C   UNL     1       1.160   3.259  20.341  0.00  0.00    +0.000 A 
ATOM      8  C   UNL     1       2.119   2.751  19.468  0.00  0.00    +0.000 A 
ATOM      9  C   UNL     1       3.042   3.616  18.871  0.00  0.00    +0.000 A 
ATOM     10  C   UNL     1       3.966   3.116  17.823  0.00  0.00    +0.000 A 
ATOM     11  O   UNL     1       3.934   1.938  17.476  0.00  0.00    +0.000 OA
ATOM     12  C   UNL     1       4.905   4.067  17.183  0.00  0.00    +0.000 A 
ATOM     13  C   UNL     1       5.669   3.685  16.077  0.00  0.00    +0.000 A 
ATOM     14  C   UNL     1       6.620   4.565  15.562  0.00  0.00    +0.000 A 
ATOM     15  C   UNL     1       6.835   5.798  16.182  0.00  0.00    +0.000 A 
ATOM     16  C   UNL     1       6.031   6.194  17.254  0.00  0.00    +0.000 A 
ATOM     17  C   UNL     1       5.007   5.361  17.709  0.00  0.00    +0.000 A 
ATOM     18  N   UNL     1       4.142   5.779  18.732  0.00  0.00    +0.000 N 
ATOM     19  C   UNL     1       3.058   4.985  19.178  0.00  0.00    +0.000 A 
ATOM     20  H   UNL     1       3.933   6.783  18.732  0.00  0.00    +0.000 HD
ENDBRANCH   2   5
BRANCH   1  21
ATOM     21  C   UNL     1       1.343   8.876  21.592  0.00  0.00    +0.000 C 
BRANCH  21  22
ATOM     22  C   UNL     1      -0.106   9.325  21.421  0.00  0.00    +0.000 C 
BRANCH  22  26
ATOM     23  C   UNL     1      -0.369  12.954  19.076  0.00  0.00    +0.000 A 
ATOM     24  C   UNL     1       0.326  12.938  20.296  0.00  0.00    +0.000 A 
ATOM     25  C   UNL     1       0.411  11.772  21.059  0.00  0.00    +0.000 A 
ATOM     26  C   UNL     1      -0.240  10.609  20.646  0.00  0.00    +0.000 A 
ATOM     27  C   UNL     1      -0.995  10.652  19.469  0.00  0.00    +0.000 A 
ATOM     28  C   UNL     1      -1.082  11.812  18.684  0.00  0.00    +0.000 A 
BRANCH  23  30
ATOM     29  C   UNL     1       0.103  15.267  18.904  0.00  0.00    +0.000 C 
ATOM     30  O   UNL     1      -0.388  14.076  18.292  0.00  0.00    +0.000 OA
ENDBRANCH  23  30
BRANCH  28  31
ATOM     31  O   UNL     1      -1.872  11.626  17.579  0.00  0.00    +0.000 OA
ATOM     32  C   UNL     1      -2.755  10.520  17.544  0.00  0.00    +0.000 C 
ENDBRANCH  28  31
ENDBRANCH  22  26
ENDBRANCH  21  22
ENDBRANCH   1  21
TORSDOF 6
ENDMDL
MODEL 8
REMARK VINA RESULT:      -8.6      1.238      1.915
REMARK  Name = 
REMARK  8 active torsions:
REMARK  status: ('A' for Active; 'I' for Inactive)
REMARK    1  A    between atoms: C_1  and  O_2
REMARK    2  A    between atoms: O_2  and  C_3
REMARK    3  A    between atoms: C_6  and  C_7
REMARK    4  A    between atoms: C_7  and  C_8
REMARK    5  A    between atoms: C_8  and  N_9
REMARK    6  A    between atoms: C_10  and  C_12
REMARK    7  A    between atoms: C_28  and  O_29
REMARK    8  A    between atoms: O_29  and  C_30
REMARK                            x       y       z     vdW  Elec       q    Type
REMARK                         _______ _______ _______ _____ _____    ______ ____
ROOT
ATOM      1  N   UNL     1       7.562   7.712  17.131  0.00  0.00    +0.000 N 
ATOM      2  C   UNL     1       6.237   7.329  17.133  0.00  0.00    +0.000 C 
ATOM      3  O   UNL     1       5.332   8.068  17.514  0.00  0.00    +0.000 OA
ATOM      4  H   UNL     1       8.227   7.192  16.575  0.00  0.00    +0.000 HD
ENDROOT
BRANCH   2   5
ATOM      5  C   UNL     1       5.920   5.958  16.648  0.00  0.00    +0.000 A 
ATOM      6  C   UNL     1       6.711   5.347  15.660  0.00  0.00    +0.000 A 
ATOM      7  C   UNL     1       6.482   4.018  15.296  0.00  0.00    +0.000 A 
ATOM      8  C   UNL     1       5.514   3.271  15.963  0.00  0.00    +0.000 A 
ATOM      9  C   UNL     1       4.753   3.867  16.974  0.00  0.00    +0.000 A 
ATOM     10  C   UNL     1       3.831   3.046  17.797  0.00  0.00    +0.000 A 
ATOM     11  O   UNL     1       3.722   1.839  17.594  0.00  0.00    +0.000 OA
ATOM     12  C   UNL     1       3.066   3.700  18.885  0.00  0.00    +0.000 A 
ATOM     13  C   UNL     1       2.322   2.943  19.794  0.00  0.00    +0.000 A 
ATOM     14  C   UNL     1       1.530   3.591  20.740  0.00  0.00    +0.000 A 
ATOM     15  C   UNL     1       1.450   4.985  20.744  0.00  0.00    +0.000 A 
ATOM     16  C   UNL     1       2.238   5.736  19.868  0.00  0.00    +0.000 A 
ATOM     17  C   UNL     1       3.111   5.096  18.986  0.00  0.00    +0.000 A 
ATOM     18  N   UNL     1       3.966   5.839  18.157  0.00  0.00    +0.000 N 
ATOM     19  C   UNL     1       4.905   5.224  17.294  0.00  0.00    +0.000 A 
ATOM     20  H   UNL     1       4.310   6.712  18.569  0.00  0.00    +0.000 HD
ENDBRANCH   2   5
BRANCH   1  21
ATOM     21  C   UNL     1       7.919   9.031  17.620  0.00  0.00    +0.000 C 
BRANCH  21  22
ATOM     22  C   UNL     1       8.775   8.971  18.882  0.00  0.00    +0.000 C 
BRANCH  22  26
ATOM     23  C   UNL     1      10.878  12.641  19.804  0.00  0.00    +0.000 A 
ATOM     24  C   UNL     1      10.062  12.023  20.765  0.00  0.00    +0.000 A 
ATOM     25  C   UNL     1       9.378  10.841  20.473  0.00  0.00    +0.000 A 
ATOM     26  C   UNL     1       9.453  10.279  19.198  0.00  0.00    +0.000 A 
ATOM     27  C   UNL     1      10.206  10.941  18.223  0.00  0.00    +0.000 A 
ATOM     28  C   UNL     1      10.908  12.124  18.502  0.00  0.00    +0.000 A 
BRANCH  23  30
ATOM     29  C   UNL     1      10.855  14.884  20.563  0.00  0.00    +0.000 C 
ATOM     30  O   UNL     1      11.608  13.757  20.115  0.00  0.00    +0.000 OA
ENDBRANCH  23  30
BRANCH  28  31
ATOM     31  O   UNL     1      11.577  12.597  17.402  0.00  0.00    +0.000 OA
ATOM     32  C   UNL     1      11.222  13.863  16.875  0.00  0.00    +0.000 C 
ENDBRANCH  28  31
ENDBRANCH  22  26
ENDBRANCH  21  22
ENDBRANCH   1  21
TORSDOF 6
ENDMDL
MODEL 9
REMARK VINA RESULT:      -8.6      1.188      1.224
REMARK  Name = 
REMARK  8 active torsions:
REMARK  status: ('A' for Active; 'I' for Inactive)
REMARK    1  A    between atoms: C_1  and  O_2
REMARK    2  A    between atoms: O_2  and  C_3
REMARK    3  A    between atoms: C_6  and  C_7
REMARK    4  A    between atoms: C_7  and  C_8
REMARK    5  A    between atoms: C_8  and  N_9
REMARK    6  A    between atoms: C_10  and  C_12
REMARK    7  A    between atoms: C_28  and  O_29
REMARK    8  A    between atoms: O_29  and  C_30
REMARK                            x       y       z     vdW  Elec       q    Type
REMARK                         _______ _______ _______ _____ _____    ______ ____
ROOT
ATOM      1  N   UNL     1       7.384   7.656  17.133  0.00  0.00    +0.000 N 
ATOM      2  C   UNL     1       6.068   7.245  17.127  0.00  0.00    +0.000 C 
ATOM      3  O   UNL     1       5.145   7.964  17.503  0.00  0.00    +0.000 OA
ATOM      4  H   UNL     1       8.064   7.150  16.581  0.00  0.00    +0.000 HD
ENDROOT
BRANCH   2   5
ATOM      5  C   UNL     1       5.783   5.867  16.640  0.00  0.00    +0.000 A 
ATOM      6  C   UNL     1       6.587   5.278  15.649  0.00  0.00    +0.000 A 
ATOM      7  C   UNL     1       6.389   3.944  15.282  0.00  0.00    +0.000 A 
ATOM      8  C   UNL     1       5.441   3.173  15.950  0.00  0.00    +0.000 A 
ATOM      9  C   UNL     1       4.668   3.748  16.964  0.00  0.00    +0.000 A 
ATOM     10  C   UNL     1       3.769   2.903  17.788  0.00  0.00    +0.000 A 
ATOM     11  O   UNL     1       3.689   1.694  17.582  0.00  0.00    +0.000 OA
ATOM     12  C   UNL     1       2.992   3.536  18.880  0.00  0.00    +0.000 A 
ATOM     13  C   UNL     1       2.268   2.759  19.789  0.00  0.00    +0.000 A 
ATOM     14  C   UNL     1       1.463   3.386  20.739  0.00  0.00    +0.000 A 
ATOM     15  C   UNL     1       1.349   4.777  20.745  0.00  0.00    +0.000 A 
ATOM     16  C   UNL     1       2.116   5.548  19.869  0.00  0.00    +0.000 A 
ATOM     17  C   UNL     1       3.003   4.932  18.983  0.00  0.00    +0.000 A 
ATOM     18  N   UNL     1       3.837   5.698  18.154  0.00  0.00    +0.000 N 
ATOM     19  C   UNL     1       4.788   5.108  17.287  0.00  0.00    +0.000 A 
ATOM     20  H   UNL     1       4.160   6.578  18.567  0.00  0.00    +0.000 HD
ENDBRANCH   2   5
BRANCH   1  21
ATOM     21  C   UNL     1       7.710   8.982  17.624  0.00  0.00    +0.000 C 
BRANCH  21  22
ATOM     22  C   UNL     1       8.775   8.952  18.718  0.00  0.00    +0.000 C 
BRANCH  22  26
ATOM     23  C   UNL     1      10.284  12.920  19.567  0.00  0.00    +0.000 A 
ATOM     24  C   UNL     1      10.380  12.378  18.275  0.00  0.00    +0.000 A 
ATOM     25  C   UNL     1       9.900  11.097  17.996  0.00  0.00    +0.000 A 
ATOM     26  C   UNL     1       9.357  10.310  19.012  0.00  0.00    +0.000 A 
ATOM     27  C   UNL     1       9.333  10.826  20.312  0.00  0.00    +0.000 A 
ATOM     28  C   UNL     1       9.803  12.115  20.608  0.00  0.00    +0.000 A 
BRANCH  23  30
ATOM     29  C   UNL     1      10.954  15.008  18.675  0.00  0.00    +0.000 C 
ATOM     30  O   UNL     1      10.686  14.204  19.823  0.00  0.00    +0.000 OA
ENDBRANCH  23  30
BRANCH  28  31
ATOM     31  O   UNL     1       9.682  12.411  21.942  0.00  0.00    +0.000 OA
ATOM     32  C   UNL     1       8.485  12.068  22.616  0.00  0.00    +0.000 C 
ENDBRANCH  28  31
ENDBRANCH  22  26
ENDBRANCH  21  22
ENDBRANCH   1  21
TORSDOF 6
ENDMDL
