MODEL 1
REMARK VINA RESULT:      -7.4      0.000      0.000
REMARK  Name = 
REMARK  7 active torsions:
REMARK  status: ('A' for Active; 'I' for Inactive)
REMARK    1  A    between atoms: C_1  and  C_2
REMARK    2  A    between atoms: C_6  and  C_7
REMARK    3  A    between atoms: C_7  and  C_8
REMARK    4  A    between atoms: C_7  and  C_9
REMARK    5  A    between atoms: C_10  and  N_11
REMARK    6  A    between atoms: C_12  and  C_14
REMARK    7  A    between atoms: C_14  and  C_15
REMARK                            x       y       z     vdW  Elec       q    Type
REMARK                         _______ _______ _______ _____ _____    ______ ____
ROOT
ATOM      1  C   UNL     1       2.227   8.204  20.071  0.00  0.00    +0.000 C 
ENDROOT
BRANCH   1   2
ATOM      2  C   UNL     1       0.991   9.049  19.791  0.00  0.00    +0.000 C 
ATOM      3  C   UNL     1       1.235  10.093  18.738  0.00  0.00    +0.000 C 
ATOM      4  O   UNL     1       2.283  10.210  18.115  0.00  0.00    +0.000 OA
ATOM      5  N   UNL     1       0.179  10.897  18.406  0.00  0.00    +0.000 N 
ATOM      6  C   UNL     1      -0.805  11.331  19.301  0.00  0.00    +0.000 A 
ATOM      7  C   UNL     1      -1.772  12.218  18.832  0.00  0.00    +0.000 A 
ATOM      8  C   UNL     1      -2.683  12.788  19.722  0.00  0.00    +0.000 A 
ATOM      9  C   UNL     1      -2.627  12.477  21.082  0.00  0.00    +0.000 A 
ATOM     10  C   UNL     1      -1.675  11.575  21.553  0.00  0.00    +0.000 A 
ATOM     11  C   UNL     1      -0.772  11.004  20.650  0.00  0.00    +0.000 A 
ATOM     12  S   UNL     1       0.459   9.898  21.235  0.00  0.00    +0.000 S 
ATOM     13  O   UNL     1      -0.215   8.935  22.090  0.00  0.00    +0.000 OA
ATOM     14  O   UNL     1       1.546  10.705  21.747  0.00  0.00    +0.000 OA
ATOM     15  H   UNL     1       0.308  11.427  17.548  0.00  0.00    +0.000 HD
ENDBRANCH   1   2
BRANCH   1  17
ATOM     16  N   UNL     1       2.906   5.912  19.732  0.00  0.00    +0.000 N 
ATOM     17  C   UNL     1       2.261   6.994  19.157  0.00  0.00    +0.000 C 
ATOM     18  O   UNL     1       1.719   7.028  18.057  0.00  0.00    +0.000 OA
ATOM     19  H   UNL     1       3.061   5.954  20.727  0.00  0.00    +0.000 HD
BRANCH  16  26
ATOM     20  C   UNL     1       0.849   3.825  20.324  0.00  0.00    +0.000 C 
ATOM     21  C   UNL     1       2.037   3.628  19.421  0.00  0.00    +0.000 A 
ATOM     22  C   UNL     1       2.117   2.397  18.749  0.00  0.00    +0.000 A 
ATOM     23  C   UNL     1       3.112   2.160  17.812  0.00  0.00    +0.000 A 
ATOM     24  C   UNL     1       4.050   3.147  17.542  0.00  0.00    +0.000 A 
ATOM     25  C   UNL     1       4.027   4.398  18.197  0.00  0.00    +0.000 A 
ATOM     26  C   UNL     1       3.011   4.628  19.160  0.00  0.00    +0.000 A 
BRANCH  25  27
ATOM     27  C   UNL     1       5.130   5.375  17.785  0.00  0.00    +0.000 C 
ATOM     28  C   UNL     1       6.476   4.654  17.688  0.00  0.00    +0.000 C 
ATOM     29  C   UNL     1       4.893   6.254  16.552  0.00  0.00    +0.000 C 
ENDBRANCH  25  27
ENDBRANCH  16  26
ENDBRANCH   1  17
TORSDOF 4
ENDMDL
MODEL 2
REMARK VINA RESULT:      -7.1      2.959      8.408
REMARK  Name = 
REMARK  7 active torsions:
REMARK  status: ('A' for Active; 'I' for Inactive)
REMARK    1  A    between atoms: C_1  and  C_2
REMARK    2  A    between atoms: C_6  and  C_7
REMARK    3  A    between atoms: C_7  and  C_8
REMARK    4  A    between atoms: C_7  and  C_9
REMARK    5  A    between atoms: C_10  and  N_11
REMARK    6  A    between atoms: C_12  and  C_14
REMARK    7  A    between atoms: C_14  and  C_15
REMARK                            x       y       z     vdW  Elec       q    Type
REMARK                         _______ _______ _______ _____ _____    ______ ____
ROOT
ATOM      1  C   UNL     1      -1.186  12.137  21.277  0.00  0.00    +0.000 C 
ENDROOT
BRANCH   1   2
ATOM      2  C   UNL     1      -0.581  10.838  20.759  0.00  0.00    +0.000 C 
ATOM      3  C   UNL     1       0.164  10.086  21.825  0.00  0.00    +0.000 C 
ATOM      4  O   UNL     1       0.220  10.431  23.000  0.00  0.00    +0.000 OA
ATOM      5  N   UNL     1       0.733   8.897  21.462  0.00  0.00    +0.000 N 
ATOM      6  C   UNL     1       1.284   8.628  20.204  0.00  0.00    +0.000 A 
ATOM      7  C   UNL     1       1.907   7.397  20.011  0.00  0.00    +0.000 A 
ATOM      8  C   UNL     1       2.595   7.144  18.823  0.00  0.00    +0.000 A 
ATOM      9  C   UNL     1       2.665   8.121  17.829  0.00  0.00    +0.000 A 
ATOM     10  C   UNL     1       2.028   9.347  18.008  0.00  0.00    +0.000 A 
ATOM     11  C   UNL     1       1.335   9.586  19.200  0.00  0.00    +0.000 A 
ATOM     12  S   UNL     1       0.561  11.141  19.458  0.00  0.00    +0.000 S 
ATOM     13  O   UNL     1      -0.205  11.432  18.257  0.00  0.00    +0.000 OA
ATOM     14  O   UNL     1       1.585  12.054  19.919  0.00  0.00    +0.000 OA
ATOM     15  H   UNL     1       1.026   8.315  22.243  0.00  0.00    +0.000 HD
ENDBRANCH   1   2
BRANCH   1  17
ATOM     16  N   UNL     1      -3.238  11.866  20.034  0.00  0.00    +0.000 N 
ATOM     17  C   UNL     1      -2.163  12.707  20.267  0.00  0.00    +0.000 C 
ATOM     18  O   UNL     1      -1.980  13.819  19.781  0.00  0.00    +0.000 OA
ATOM     19  H   UNL     1      -3.382  11.121  20.697  0.00  0.00    +0.000 HD
BRANCH  16  26
ATOM     20  C   UNL     1      -5.468  13.556  21.088  0.00  0.00    +0.000 C 
ATOM     21  C   UNL     1      -5.410  12.978  19.699  0.00  0.00    +0.000 A 
ATOM     22  C   UNL     1      -6.446  13.346  18.824  0.00  0.00    +0.000 A 
ATOM     23  C   UNL     1      -6.425  12.957  17.493  0.00  0.00    +0.000 A 
ATOM     24  C   UNL     1      -5.374  12.182  17.019  0.00  0.00    +0.000 A 
ATOM     25  C   UNL     1      -4.314  11.772  17.857  0.00  0.00    +0.000 A 
ATOM     26  C   UNL     1      -4.348  12.168  19.220  0.00  0.00    +0.000 A 
BRANCH  25  27
ATOM     27  C   UNL     1      -3.234  10.925  17.181  0.00  0.00    +0.000 C 
ATOM     28  C   UNL     1      -3.318   9.472  17.655  0.00  0.00    +0.000 C 
ATOM     29  C   UNL     1      -3.110  10.994  15.655  0.00  0.00    +0.000 C 
ENDBRANCH  25  27
ENDBRANCH  16  26
ENDBRANCH   1  17
TORSDOF 4
ENDMDL
MODEL 3
REMARK VINA RESULT:      -7.0      0.809      2.506
REMARK  Name = 
REMARK  7 active torsions:
REMARK  status: ('A' for Active; 'I' for Inactive)
REMARK    1  A    between atoms: C_1  and  C_2
REMARK    2  A    between atoms: C_6  and  C_7
REMARK    3  A    between atoms: C_7  and  C_8
REMARK    4  A    between atoms: C_7  and  C_9
REMARK    5  A    between atoms: C_10  and  N_11
REMARK    6  A    between atoms: C_12  and  C_14
REMARK    7  A    between atoms: C_14  and  C_15
REMARK                            x       y       z     vdW  Elec       q    Type
REMARK                         _______ _______ _______ _____ _____    ______ ____
ROOT
ATOM      1  C   UNL     1       2.063   8.610  19.884  0.00  0.00    +0.000 C 
ENDROOT
BRANCH   1   2
ATOM      2  C   UNL     1       0.804   9.447  19.697  0.00  0.00    +0.000 C 
ATOM      3  C   UNL     1       1.021  10.612  18.774  0.00  0.00    +0.000 C 
ATOM      4  O   UNL     1       2.067  10.830  18.175  0.00  0.00    +0.000 OA
ATOM      5  N   UNL     1      -0.056  11.419  18.531  0.00  0.00    +0.000 N 
ATOM      6  C   UNL     1      -1.054  11.719  19.465  0.00  0.00    +0.000 A 
ATOM      7  C   UNL     1      -2.044  12.627  19.097  0.00  0.00    +0.000 A 
ATOM      8  C   UNL     1      -2.974  13.064  20.041  0.00  0.00    +0.000 A 
ATOM      9  C   UNL     1      -2.913  12.598  21.356  0.00  0.00    +0.000 A 
ATOM     10  C   UNL     1      -1.937  11.675  21.725  0.00  0.00    +0.000 A 
ATOM     11  C   UNL     1      -1.016  11.239  20.767  0.00  0.00    +0.000 A 
ATOM     12  S   UNL     1       0.245  10.106  21.226  0.00  0.00    +0.000 S 
ATOM     13  O   UNL     1      -0.404   9.031  21.960  0.00  0.00    +0.000 OA
ATOM     14  O   UNL     1       1.307  10.878  21.836  0.00  0.00    +0.000 OA
ATOM     15  H   UNL     1       0.061  12.050  17.742  0.00  0.00    +0.000 HD
ENDBRANCH   1   2
BRANCH   1  17
ATOM     16  N   UNL     1       3.062   6.556  19.099  0.00  0.00    +0.000 N 
ATOM     17  C   UNL     1       2.183   7.577  18.780  0.00  0.00    +0.000 C 
ATOM     18  O   UNL     1       1.512   7.677  17.757  0.00  0.00    +0.000 OA
ATOM     19  H   UNL     1       3.328   6.475  20.068  0.00  0.00    +0.000 HD
BRANCH  16  26
ATOM     20  C   UNL     1       5.119   6.629  16.931  0.00  0.00    +0.000 C 
ATOM     21  C   UNL     1       4.286   5.426  17.285  0.00  0.00    +0.000 A 
ATOM     22  C   UNL     1       4.576   4.238  16.594  0.00  0.00    +0.000 A 
ATOM     23  C   UNL     1       3.942   3.049  16.923  0.00  0.00    +0.000 A 
ATOM     24  C   UNL     1       2.998   3.034  17.943  0.00  0.00    +0.000 A 
ATOM     25  C   UNL     1       2.658   4.200  18.662  0.00  0.00    +0.000 A 
ATOM     26  C   UNL     1       3.305   5.413  18.311  0.00  0.00    +0.000 A 
BRANCH  25  27
ATOM     27  C   UNL     1       1.602   4.013  19.753  0.00  0.00    +0.000 C 
ATOM     28  C   UNL     1       0.682   2.839  19.413  0.00  0.00    +0.000 C 
ATOM     29  C   UNL     1       2.073   3.932  21.209  0.00  0.00    +0.000 C 
ENDBRANCH  25  27
ENDBRANCH  16  26
ENDBRANCH   1  17
TORSDOF 4
ENDMDL
MODEL 4
REMARK VINA RESULT:      -6.9      3.527      9.481
REMARK  Name = 
REMARK  7 active torsions:
REMARK  status: ('A' for Active; 'I' for Inactive)
REMARK    1  A    between atoms: C_1  and  C_2
REMARK    2  A    between atoms: C_6  and  C_7
REMARK    3  A    between atoms: C_7  and  C_8
REMARK    4  A    between atoms: C_7  and  C_9
REMARK    5  A    between atoms: C_10  and  N_11
REMARK    6  A    between atoms: C_12  and  C_14
REMARK    7  A    between atoms: C_14  and  C_15
REMARK                            x       y       z     vdW  Elec       q    Type
REMARK                         _______ _______ _______ _____ _____    ______ ____
ROOT
ATOM      1  C   UNL     1      -1.322  12.090  22.636  0.00  0.00    +0.000 C 
ENDROOT
BRANCH   1   2
ATOM      2  C   UNL     1      -0.778  10.996  21.725  0.00  0.00    +0.000 C 
ATOM      3  C   UNL     1       0.028   9.974  22.474  0.00  0.00    +0.000 C 
ATOM      4  O   UNL     1       0.174   9.968  23.691  0.00  0.00    +0.000 OA
ATOM      5  N   UNL     1       0.549   8.940  21.745  0.00  0.00    +0.000 N 
ATOM      6  C   UNL     1       1.004   9.046  20.427  0.00  0.00    +0.000 A 
ATOM      7  C   UNL     1       1.591   7.924  19.844  0.00  0.00    +0.000 A 
ATOM      8  C   UNL     1       2.187   8.024  18.586  0.00  0.00    +0.000 A 
ATOM      9  C   UNL     1       2.203   9.246  17.911  0.00  0.00    +0.000 A 
ATOM     10  C   UNL     1       1.601  10.366  18.480  0.00  0.00    +0.000 A 
ATOM     11  C   UNL     1       1.000  10.251  19.737  0.00  0.00    +0.000 A 
ATOM     12  S   UNL     1       0.273  11.663  20.486  0.00  0.00    +0.000 S 
ATOM     13  O   UNL     1      -0.571  12.284  19.477  0.00  0.00    +0.000 OA
ATOM     14  O   UNL     1       1.344  12.410  21.111  0.00  0.00    +0.000 OA
ATOM     15  H   UNL     1       0.888   8.161  22.304  0.00  0.00    +0.000 HD
ENDBRANCH   1   2
BRANCH   1  17
ATOM     16  N   UNL     1      -3.489  12.138  21.574  0.00  0.00    +0.000 N 
ATOM     17  C   UNL     1      -2.385  12.899  21.918  0.00  0.00    +0.000 C 
ATOM     18  O   UNL     1      -2.234  14.103  21.734  0.00  0.00    +0.000 OA
ATOM     19  H   UNL     1      -3.578  11.240  22.022  0.00  0.00    +0.000 HD
BRANCH  16  26
ATOM     20  C   UNL     1      -3.933  11.866  18.630  0.00  0.00    +0.000 C 
ATOM     21  C   UNL     1      -4.902  12.503  19.589  0.00  0.00    +0.000 A 
ATOM     22  C   UNL     1      -6.135  12.913  19.055  0.00  0.00    +0.000 A 
ATOM     23  C   UNL     1      -7.137  13.409  19.875  0.00  0.00    +0.000 A 
ATOM     24  C   UNL     1      -6.916  13.516  21.242  0.00  0.00    +0.000 A 
ATOM     25  C   UNL     1      -5.691  13.133  21.831  0.00  0.00    +0.000 A 
ATOM     26  C   UNL     1      -4.669  12.634  20.983  0.00  0.00    +0.000 A 
BRANCH  25  27
ATOM     27  C   UNL     1      -5.610  13.312  23.349  0.00  0.00    +0.000 C 
ATOM     28  C   UNL     1      -5.189  14.741  23.698  0.00  0.00    +0.000 C 
ATOM     29  C   UNL     1      -6.811  12.876  24.194  0.00  0.00    +0.000 C 
ENDBRANCH  25  27
ENDBRANCH  16  26
ENDBRANCH   1  17
TORSDOF 4
ENDMDL
MODEL 5
REMARK VINA RESULT:      -6.9      1.421      1.689
REMARK  Name = 
REMARK  7 active torsions:
REMARK  status: ('A' for Active; 'I' for Inactive)
REMARK    1  A    between atoms: C_1  and  C_2
REMARK    2  A    between atoms: C_6  and  C_7
REMARK    3  A    between atoms: C_7  and  C_8
REMARK    4  A    between atoms: C_7  and  C_9
REMARK    5  A    between atoms: C_10  and  N_11
REMARK    6  A    between atoms: C_12  and  C_14
REMARK    7  A    between atoms: C_14  and  C_15
REMARK                            x       y       z     vdW  Elec       q    Type
REMARK                         _______ _______ _______ _____ _____    ______ ____
ROOT
ATOM      1  C   UNL     1       2.158   8.422  20.100  0.00  0.00    +0.000 C 
ENDROOT
BRANCH   1   2
ATOM      2  C   UNL     1       0.844   8.891  19.488  0.00  0.00    +0.000 C 
ATOM      3  C   UNL     1       1.008   9.372  18.075  0.00  0.00    +0.000 C 
ATOM      4  O   UNL     1       2.060   9.326  17.449  0.00  0.00    +0.000 OA
ATOM      5  N   UNL     1      -0.120   9.803  17.432  0.00  0.00    +0.000 N 
ATOM      6  C   UNL     1      -1.185  10.468  18.050  0.00  0.00    +0.000 A 
ATOM      7  C   UNL     1      -2.228  10.923  17.247  0.00  0.00    +0.000 A 
ATOM      8  C   UNL     1      -3.237  11.714  17.799  0.00  0.00    +0.000 A 
ATOM      9  C   UNL     1      -3.203  12.056  19.151  0.00  0.00    +0.000 A 
ATOM     10  C   UNL     1      -2.172  11.587  19.964  0.00  0.00    +0.000 A 
ATOM     11  C   UNL     1      -1.171  10.789  19.401  0.00  0.00    +0.000 A 
ATOM     12  S   UNL     1       0.156  10.224  20.403  0.00  0.00    +0.000 S 
ATOM     13  O   UNL     1      -0.436   9.672  21.611  0.00  0.00    +0.000 OA
ATOM     14  O   UNL     1       1.118  11.303  20.480  0.00  0.00    +0.000 OA
ATOM     15  H   UNL     1      -0.018   9.904  16.426  0.00  0.00    +0.000 HD
ENDBRANCH   1   2
BRANCH   1  17
ATOM     16  N   UNL     1       3.122   6.771  18.625  0.00  0.00    +0.000 N 
ATOM     17  C   UNL     1       2.395   6.956  19.789  0.00  0.00    +0.000 C 
ATOM     18  O   UNL     1       1.994   6.084  20.553  0.00  0.00    +0.000 OA
ATOM     19  H   UNL     1       3.601   7.577  18.257  0.00  0.00    +0.000 HD
BRANCH  16  26
ATOM     20  C   UNL     1       1.161   4.719  17.685  0.00  0.00    +0.000 C 
ATOM     21  C   UNL     1       2.656   4.547  17.673  0.00  0.00    +0.000 A 
ATOM     22  C   UNL     1       3.147   3.365  17.092  0.00  0.00    +0.000 A 
ATOM     23  C   UNL     1       4.509   3.162  16.934  0.00  0.00    +0.000 A 
ATOM     24  C   UNL     1       5.404   4.133  17.366  0.00  0.00    +0.000 A 
ATOM     25  C   UNL     1       4.968   5.333  17.969  0.00  0.00    +0.000 A 
ATOM     26  C   UNL     1       3.572   5.528  18.135  0.00  0.00    +0.000 A 
BRANCH  25  27
ATOM     27  C   UNL     1       6.079   6.299  18.387  0.00  0.00    +0.000 C 
ATOM     28  C   UNL     1       7.126   5.575  19.237  0.00  0.00    +0.000 C 
ATOM     29  C   UNL     1       6.750   7.143  17.299  0.00  0.00    +0.000 C 
ENDBRANCH  25  27
ENDBRANCH  16  26
ENDBRANCH   1  17
TORSDOF 4
ENDMDL
MODEL 6
REMARK VINA RESULT:      -6.8      2.823      8.842
REMARK  Name = 
REMARK  7 active torsions:
REMARK  status: ('A' for Active; 'I' for Inactive)
REMARK    1  A    between atoms: C_1  and  C_2
REMARK    2  A    between atoms: C_6  and  C_7
REMARK    3  A    between atoms: C_7  and  C_8
REMARK    4  A    between atoms: C_7  and  C_9
REMARK    5  A    between atoms: C_10  and  N_11
REMARK    6  A    between atoms: C_12  and  C_14
REMARK    7  A    between atoms: C_14  and  C_15
REMARK                            x       y       z     vdW  Elec       q    Type
REMARK                         _______ _______ _______ _____ _____    ______ ____
ROOT
ATOM      1  C   UNL     1      -1.020  11.861  21.380  0.00  0.00    +0.000 C 
ENDROOT
BRANCH   1   2
ATOM      2  C   UNL     1      -0.419  10.577  20.823  0.00  0.00    +0.000 C 
ATOM      3  C   UNL     1       0.374   9.821  21.850  0.00  0.00    +0.000 C 
ATOM      4  O   UNL     1       0.470  10.152  23.026  0.00  0.00    +0.000 OA
ATOM      5  N   UNL     1       0.944   8.644  21.450  0.00  0.00    +0.000 N 
ATOM      6  C   UNL     1       1.451   8.399  20.169  0.00  0.00    +0.000 A 
ATOM      7  C   UNL     1       2.082   7.178  19.937  0.00  0.00    +0.000 A 
ATOM      8  C   UNL     1       2.727   6.949  18.721  0.00  0.00    +0.000 A 
ATOM      9  C   UNL     1       2.749   7.940  17.738  0.00  0.00    +0.000 A 
ATOM     10  C   UNL     1       2.103   9.156  17.957  0.00  0.00    +0.000 A 
ATOM     11  C   UNL     1       1.453   9.370  19.177  0.00  0.00    +0.000 A 
ATOM     12  S   UNL     1       0.670  10.911  19.485  0.00  0.00    +0.000 S 
ATOM     13  O   UNL     1      -0.144  11.209  18.317  0.00  0.00    +0.000 OA
ATOM     14  O   UNL     1       1.699  11.831  19.919  0.00  0.00    +0.000 OA
ATOM     15  H   UNL     1       1.274   8.056  22.212  0.00  0.00    +0.000 HD
ENDBRANCH   1   2
BRANCH   1  17
ATOM     16  N   UNL     1      -2.950  11.641  19.946  0.00  0.00    +0.000 N 
ATOM     17  C   UNL     1      -1.947  12.499  20.363  0.00  0.00    +0.000 C 
ATOM     18  O   UNL     1      -1.789  13.668  20.024  0.00  0.00    +0.000 OA
ATOM     19  H   UNL     1      -3.102  10.817  20.505  0.00  0.00    +0.000 HD
BRANCH  16  26
ATOM     20  C   UNL     1      -2.860  10.845  17.066  0.00  0.00    +0.000 C 
ATOM     21  C   UNL     1      -3.988  11.603  17.712  0.00  0.00    +0.000 A 
ATOM     22  C   UNL     1      -5.108  11.869  16.907  0.00  0.00    +0.000 A 
ATOM     23  C   UNL     1      -6.242  12.464  17.438  0.00  0.00    +0.000 A 
ATOM     24  C   UNL     1      -6.269  12.814  18.782  0.00  0.00    +0.000 A 
ATOM     25  C   UNL     1      -5.167  12.584  19.634  0.00  0.00    +0.000 A 
ATOM     26  C   UNL     1      -4.008  11.983  19.080  0.00  0.00    +0.000 A 
BRANCH  25  27
ATOM     27  C   UNL     1      -5.359  13.028  21.087  0.00  0.00    +0.000 C 
ATOM     28  C   UNL     1      -5.024  14.513  21.242  0.00  0.00    +0.000 C 
ATOM     29  C   UNL     1      -6.685  12.693  21.776  0.00  0.00    +0.000 C 
ENDBRANCH  25  27
ENDBRANCH  16  26
ENDBRANCH   1  17
TORSDOF 4
ENDMDL
MODEL 7
REMARK VINA RESULT:      -6.8      2.230      7.879
REMARK  Name = 
REMARK  7 active torsions:
REMARK  status: ('A' for Active; 'I' for Inactive)
REMARK    1  A    between atoms: C_1  and  C_2
REMARK    2  A    between atoms: C_6  and  C_7
REMARK    3  A    between atoms: C_7  and  C_8
REMARK    4  A    between atoms: C_7  and  C_9
REMARK    5  A    between atoms: C_10  and  N_11
REMARK    6  A    between atoms: C_12  and  C_14
REMARK    7  A    between atoms: C_14  and  C_15
REMARK                            x       y       z     vdW  Elec       q    Type
REMARK                         _______ _______ _______ _____ _____    ______ ____
ROOT
ATOM      1  C   UNL     1       1.120   7.331  20.398  0.00  0.00    +0.000 C 
ENDROOT
BRANCH   1   2
ATOM      2  C   UNL     1       2.395   7.149  19.584  0.00  0.00    +0.000 C 
ATOM      3  C   UNL     1       2.354   7.890  18.278  0.00  0.00    +0.000 C 
ATOM      4  O   UNL     1       1.436   8.624  17.932  0.00  0.00    +0.000 OA
ATOM      5  N   UNL     1       3.461   7.800  17.479  0.00  0.00    +0.000 N 
ATOM      6  C   UNL     1       4.273   6.666  17.368  0.00  0.00    +0.000 A 
ATOM      7  C   UNL     1       5.317   6.696  16.446  0.00  0.00    +0.000 A 
ATOM      8  C   UNL     1       6.060   5.541  16.198  0.00  0.00    +0.000 A 
ATOM      9  C   UNL     1       5.758   4.353  16.867  0.00  0.00    +0.000 A 
ATOM     10  C   UNL     1       4.728   4.323  17.805  0.00  0.00    +0.000 A 
ATOM     11  C   UNL     1       3.996   5.489  18.050  0.00  0.00    +0.000 A 
ATOM     12  S   UNL     1       2.668   5.456  19.199  0.00  0.00    +0.000 S 
ATOM     13  O   UNL     1       3.169   4.805  20.399  0.00  0.00    +0.000 OA
ATOM     14  O   UNL     1       1.516   4.928  18.500  0.00  0.00    +0.000 OA
ATOM     15  H   UNL     1       3.492   8.482  16.727  0.00  0.00    +0.000 HD
ENDBRANCH   1   2
BRANCH   1  17
ATOM     16  N   UNL     1       0.039   9.480  20.608  0.00  0.00    +0.000 N 
ATOM     17  C   UNL     1       1.096   8.701  21.047  0.00  0.00    +0.000 C 
ATOM     18  O   UNL     1       1.931   9.004  21.894  0.00  0.00    +0.000 OA
ATOM     19  H   UNL     1      -0.701   9.003  20.119  0.00  0.00    +0.000 HD
BRANCH  16  26
ATOM     20  C   UNL     1      -0.904   9.813  23.425  0.00  0.00    +0.000 C 
ATOM     21  C   UNL     1      -0.730  10.937  22.439  0.00  0.00    +0.000 A 
ATOM     22  C   UNL     1      -0.947  12.237  22.925  0.00  0.00    +0.000 A 
ATOM     23  C   UNL     1      -0.706  13.346  22.127  0.00  0.00    +0.000 A 
ATOM     24  C   UNL     1      -0.255  13.170  20.824  0.00  0.00    +0.000 A 
ATOM     25  C   UNL     1      -0.034  11.886  20.279  0.00  0.00    +0.000 A 
ATOM     26  C   UNL     1      -0.292  10.758  21.100  0.00  0.00    +0.000 A 
BRANCH  25  27
ATOM     27  C   UNL     1       0.463  11.866  18.832  0.00  0.00    +0.000 C 
ATOM     28  C   UNL     1      -0.367  12.817  17.967  0.00  0.00    +0.000 C 
ATOM     29  C   UNL     1       1.961  12.067  18.579  0.00  0.00    +0.000 C 
ENDBRANCH  25  27
ENDBRANCH  16  26
ENDBRANCH   1  17
TORSDOF 4
ENDMDL
MODEL 8
REMARK VINA RESULT:      -6.8      5.892      8.868
REMARK  Name = 
REMARK  7 active torsions:
REMARK  status: ('A' for Active; 'I' for Inactive)
REMARK    1  A    between atoms: C_1  and  C_2
REMARK    2  A    between atoms: C_6  and  C_7
REMARK    3  A    between atoms: C_7  and  C_8
REMARK    4  A    between atoms: C_7  and  C_9
REMARK    5  A    between atoms: C_10  and  N_11
REMARK    6  A    between atoms: C_12  and  C_14
REMARK    7  A    between atoms: C_14  and  C_15
REMARK                            x       y       z     vdW  Elec       q    Type
REMARK                         _______ _______ _______ _____ _____    ______ ____
ROOT
ATOM      1  C   UNL     1      -0.717  12.847  21.082  0.00  0.00    +0.000 C 
ENDROOT
BRANCH   1   2
ATOM      2  C   UNL     1      -1.510  12.593  19.806  0.00  0.00    +0.000 C 
ATOM      3  C   UNL     1      -2.988  12.505  20.056  0.00  0.00    +0.000 C 
ATOM      4  O   UNL     1      -3.514  12.692  21.147  0.00  0.00    +0.000 OA
ATOM      5  N   UNL     1      -3.789  12.292  18.968  0.00  0.00    +0.000 N 
ATOM      6  C   UNL     1      -3.437  11.512  17.860  0.00  0.00    +0.000 A 
ATOM      7  C   UNL     1      -4.394  11.317  16.866  0.00  0.00    +0.000 A 
ATOM      8  C   UNL     1      -4.137  10.432  15.818  0.00  0.00    +0.000 A 
ATOM      9  C   UNL     1      -2.928   9.737  15.763  0.00  0.00    +0.000 A 
ATOM     10  C   UNL     1      -1.959   9.944  16.744  0.00  0.00    +0.000 A 
ATOM     11  C   UNL     1      -2.225  10.840  17.785  0.00  0.00    +0.000 A 
ATOM     12  S   UNL     1      -1.032  11.080  19.050  0.00  0.00    +0.000 S 
ATOM     13  O   UNL     1       0.244  11.301  18.387  0.00  0.00    +0.000 OA
ATOM     14  O   UNL     1      -1.192   9.996  19.996  0.00  0.00    +0.000 OA
ATOM     15  H   UNL     1      -4.777  12.463  19.133  0.00  0.00    +0.000 HD
ENDBRANCH   1   2
BRANCH   1  17
ATOM     16  N   UNL     1       0.524  14.166  19.487  0.00  0.00    +0.000 N 
ATOM     17  C   UNL     1       0.503  13.698  20.789  0.00  0.00    +0.000 C 
ATOM     18  O   UNL     1       1.322  13.938  21.671  0.00  0.00    +0.000 OA
ATOM     19  H   UNL     1      -0.338  14.105  18.969  0.00  0.00    +0.000 HD
BRANCH  16  26
ATOM     20  C   UNL     1       3.058  13.114  18.299  0.00  0.00    +0.000 C 
ATOM     21  C   UNL     1       2.686  14.571  18.376  0.00  0.00    +0.000 A 
ATOM     22  C   UNL     1       3.565  15.476  17.760  0.00  0.00    +0.000 A 
ATOM     23  C   UNL     1       3.258  16.826  17.680  0.00  0.00    +0.000 A 
ATOM     24  C   UNL     1       2.069  17.293  18.227  0.00  0.00    +0.000 A 
ATOM     25  C   UNL     1       1.155  16.431  18.870  0.00  0.00    +0.000 A 
ATOM     26  C   UNL     1       1.483  15.053  18.954  0.00  0.00    +0.000 A 
BRANCH  25  27
ATOM     27  C   UNL     1      -0.107  17.103  19.417  0.00  0.00    +0.000 C 
ATOM     28  C   UNL     1       0.263  18.213  20.403  0.00  0.00    +0.000 C 
ATOM     29  C   UNL     1      -1.158  17.592  18.415  0.00  0.00    +0.000 C 
ENDBRANCH  25  27
ENDBRANCH  16  26
ENDBRANCH   1  17
TORSDOF 4
ENDMDL
MODEL 9
REMARK VINA RESULT:      -6.6      3.632      8.868
REMARK  Name = 
REMARK  7 active torsions:
REMARK  status: ('A' for Active; 'I' for Inactive)
REMARK    1  A    between atoms: C_1  and  C_2
REMARK    2  A    between atoms: C_6  and  C_7
REMARK    3  A    between atoms: C_7  and  C_8
REMARK    4  A    between atoms: C_7  and  C_9
REMARK    5  A    between atoms: C_10  and  N_11
REMARK    6  A    between atoms: C_12  and  C_14
REMARK    7  A    between atoms: C_14  and  C_15
REMARK                            x       y       z     vdW  Elec       q    Type
REMARK                         _______ _______ _______ _____ _____    ______ ____
ROOT
ATOM      1  C   UNL     1      -0.246  12.203  21.135  0.00  0.00    +0.000 C 
ENDROOT
BRANCH   1   2
ATOM      2  C   UNL     1       0.664  11.257  20.362  0.00  0.00    +0.000 C 
ATOM      3  C   UNL     1       0.249  11.107  18.926  0.00  0.00    +0.000 C 
ATOM      4  O   UNL     1      -0.669  11.730  18.406  0.00  0.00    +0.000 OA
ATOM      5  N   UNL     1       1.013  10.285  18.143  0.00  0.00    +0.000 N 
ATOM      6  C   UNL     1       1.644   9.120  18.589  0.00  0.00    +0.000 A 
ATOM      7  C   UNL     1       2.318   8.339  17.652  0.00  0.00    +0.000 A 
ATOM      8  C   UNL     1       2.838   7.099  18.024  0.00  0.00    +0.000 A 
ATOM      9  C   UNL     1       2.681   6.633  19.331  0.00  0.00    +0.000 A 
ATOM     10  C   UNL     1       2.026   7.418  20.277  0.00  0.00    +0.000 A 
ATOM     11  C   UNL     1       1.516   8.664  19.894  0.00  0.00    +0.000 A 
ATOM     12  S   UNL     1       0.652   9.646  21.065  0.00  0.00    +0.000 S 
ATOM     13  O   UNL     1       1.470   9.683  22.267  0.00  0.00    +0.000 OA
ATOM     14  O   UNL     1      -0.707   9.151  21.114  0.00  0.00    +0.000 OA
ATOM     15  H   UNL     1       0.846  10.383  17.144  0.00  0.00    +0.000 HD
ENDBRANCH   1   2
BRANCH   1  17
ATOM     16  N   UNL     1       0.075  14.325  20.028  0.00  0.00    +0.000 N 
ATOM     17  C   UNL     1       0.349  13.598  21.173  0.00  0.00    +0.000 C 
ATOM     18  O   UNL     1       0.960  13.987  22.164  0.00  0.00    +0.000 OA
ATOM     19  H   UNL     1      -0.652  13.968  19.428  0.00  0.00    +0.000 HD
BRANCH  16  26
ATOM     20  C   UNL     1      -1.887  16.492  20.651  0.00  0.00    +0.000 C 
ATOM     21  C   UNL     1      -0.498  16.719  20.119  0.00  0.00    +0.000 A 
ATOM     22  C   UNL     1      -0.083  18.056  19.999  0.00  0.00    +0.000 A 
ATOM     23  C   UNL     1       1.215  18.367  19.624  0.00  0.00    +0.000 A 
ATOM     24  C   UNL     1       2.116  17.346  19.351  0.00  0.00    +0.000 A 
ATOM     25  C   UNL     1       1.750  15.985  19.442  0.00  0.00    +0.000 A 
ATOM     26  C   UNL     1       0.417  15.676  19.818  0.00  0.00    +0.000 A 
BRANCH  25  27
ATOM     27  C   UNL     1       2.859  14.984  19.110  0.00  0.00    +0.000 C 
ATOM     28  C   UNL     1       3.350  15.185  17.675  0.00  0.00    +0.000 C 
ATOM     29  C   UNL     1       4.040  14.866  20.079  0.00  0.00    +0.000 C 
ENDBRANCH  25  27
ENDBRANCH  16  26
ENDBRANCH   1  17
TORSDOF 4
ENDMDL
