MODEL 1
REMARK VINA RESULT:      -8.1      0.000      0.000
REMARK  Name = 
REMARK  4 active torsions:
REMARK  status: ('A' for Active; 'I' for Inactive)
REMARK    1  A    between atoms: C_1  and  C_2
REMARK    2  A    between atoms: C_5  and  C_6
REMARK    3  A    between atoms: C_7  and  C_8
REMARK    4  A    between atoms: C_14  and  C_16
REMARK                            x       y       z     vdW  Elec       q    Type
REMARK                         _______ _______ _______ _____ _____    ______ ____
ROOT
ATOM      1  C   UNL     1       0.401  10.191  19.551  0.00  0.00    +0.000 C 
ATOM      2  O   UNL     1      -0.102  10.654  18.526  0.00  0.00    +0.000 OA
ATOM      3  N   UNL     1       1.185   9.029  19.480  0.00  0.00    +0.000 N 
ATOM      4  C   UNL     1       1.725   8.312  20.632  0.00  0.00    +0.000 C 
ATOM      5  C   UNL     1       1.939   6.815  20.423  0.00  0.00    +0.000 C 
ATOM      6  N   UNL     1       2.647   6.564  19.176  0.00  0.00    +0.000 N 
ATOM      7  C   UNL     1       3.709   5.651  19.197  0.00  0.00    +0.000 C 
ATOM      8  O   UNL     1       3.989   5.068  20.246  0.00  0.00    +0.000 OA
ATOM      9  C   UNL     1       1.977   7.158  18.007  0.00  0.00    +0.000 C 
ATOM     10  C   UNL     1       1.797   8.678  18.186  0.00  0.00    +0.000 C 
ENDROOT
BRANCH   7  11
ATOM     11  C   UNL     1       4.469   5.393  17.990  0.00  0.00    +0.000 A 
ATOM     12  S   UNL     1       5.970   6.160  17.715  0.00  0.00    +0.000 S 
ATOM     13  C   UNL     1       6.135   5.458  16.163  0.00  0.00    +0.000 A 
ATOM     14  C   UNL     1       7.103   5.780  15.197  0.00  0.00    +0.000 A 
ATOM     15  C   UNL     1       7.154   5.022  14.030  0.00  0.00    +0.000 A 
ATOM     16 CL   UNL     1       8.338   5.398  12.838  0.00  0.00    +0.000 Cl
ATOM     17  C   UNL     1       6.277   3.967  13.818  0.00  0.00    +0.000 A 
ATOM     18  C   UNL     1       5.294   3.677  14.771  0.00  0.00    +0.000 A 
ATOM     19  C   UNL     1       5.188   4.454  15.954  0.00  0.00    +0.000 A 
ATOM     20  C   UNL     1       4.225   4.429  17.030  0.00  0.00    +0.000 A 
ATOM     21 CL   UNL     1       2.890   3.344  17.024  0.00  0.00    +0.000 Cl
ENDBRANCH   7  11
BRANCH   1  28
ATOM     22  C   UNL     1       1.031  13.289  20.312  0.00  0.00    +0.000 C 
ATOM     23  C   UNL     1       0.438  12.222  21.158  0.00  0.00    +0.000 A 
ATOM     24  N   UNL     1       0.103  12.519  22.414  0.00  0.00    +0.000 NA
ATOM     25  O   UNL     1      -0.349  11.352  22.968  0.00  0.00    +0.000 OA
ATOM     26  C   UNL     1      -0.290  10.348  22.055  0.00  0.00    +0.000 A 
ATOM     27  C   UNL     1      -0.668   9.036  22.620  0.00  0.00    +0.000 C 
ATOM     28  C   UNL     1       0.145  10.852  20.835  0.00  0.00    +0.000 A 
ENDBRANCH   1  28
TORSDOF 2
ENDMDL
MODEL 2
REMARK VINA RESULT:      -8.0      0.407      1.538
REMARK  Name = 
REMARK  4 active torsions:
REMARK  status: ('A' for Active; 'I' for Inactive)
REMARK    1  A    between atoms: C_1  and  C_2
REMARK    2  A    between atoms: C_5  and  C_6
REMARK    3  A    between atoms: C_7  and  C_8
REMARK    4  A    between atoms: C_14  and  C_16
REMARK                            x       y       z     vdW  Elec       q    Type
REMARK                         _______ _______ _______ _____ _____    ______ ____
ROOT
ATOM      1  C   UNL     1       0.465  10.131  19.594  0.00  0.00    +0.000 C 
ATOM      2  O   UNL     1      -0.054  10.597  18.578  0.00  0.00    +0.000 OA
ATOM      3  N   UNL     1       1.251   8.972  19.508  0.00  0.00    +0.000 N 
ATOM      4  C   UNL     1       1.809   8.252  20.649  0.00  0.00    +0.000 C 
ATOM      5  C   UNL     1       2.024   6.756  20.431  0.00  0.00    +0.000 C 
ATOM      6  N   UNL     1       2.714   6.512  19.173  0.00  0.00    +0.000 N 
ATOM      7  C   UNL     1       3.779   5.601  19.175  0.00  0.00    +0.000 C 
ATOM      8  O   UNL     1       4.075   5.015  20.218  0.00  0.00    +0.000 OA
ATOM      9  C   UNL     1       2.026   7.108  18.017  0.00  0.00    +0.000 C 
ATOM     10  C   UNL     1       1.845   8.627  18.204  0.00  0.00    +0.000 C 
ENDROOT
BRANCH   7  11
ATOM     11  C   UNL     1       4.522   5.350  17.956  0.00  0.00    +0.000 A 
ATOM     12  S   UNL     1       6.024   6.110  17.670  0.00  0.00    +0.000 S 
ATOM     13  C   UNL     1       6.166   5.421  16.109  0.00  0.00    +0.000 A 
ATOM     14  C   UNL     1       7.124   5.746  15.134  0.00  0.00    +0.000 A 
ATOM     15  C   UNL     1       7.155   4.999  13.960  0.00  0.00    +0.000 A 
ATOM     16 CL   UNL     1       8.326   5.378  12.756  0.00  0.00    +0.000 Cl
ATOM     17  C   UNL     1       6.269   3.952  13.749  0.00  0.00    +0.000 A 
ATOM     18  C   UNL     1       5.295   3.659  14.711  0.00  0.00    +0.000 A 
ATOM     19  C   UNL     1       5.210   4.425  15.903  0.00  0.00    +0.000 A 
ATOM     20  C   UNL     1       4.260   4.396  16.991  0.00  0.00    +0.000 A 
ATOM     21 CL   UNL     1       2.917   3.320  16.991  0.00  0.00    +0.000 Cl
ENDBRANCH   7  11
BRANCH   1  28
ATOM     22  C   UNL     1      -0.775   8.773  22.277  0.00  0.00    +0.000 C 
ATOM     23  C   UNL     1      -0.332  10.174  22.059  0.00  0.00    +0.000 A 
ATOM     24  N   UNL     1      -0.439  11.038  23.068  0.00  0.00    +0.000 NA
ATOM     25  O   UNL     1      -0.025  12.245  22.574  0.00  0.00    +0.000 OA
ATOM     26  C   UNL     1       0.332  12.118  21.269  0.00  0.00    +0.000 A 
ATOM     27  C   UNL     1       0.691  13.409  20.644  0.00  0.00    +0.000 C 
ATOM     28  C   UNL     1       0.226  10.787  20.885  0.00  0.00    +0.000 A 
ENDBRANCH   1  28
TORSDOF 2
ENDMDL
MODEL 3
REMARK VINA RESULT:      -7.5      1.725      2.408
REMARK  Name = 
REMARK  4 active torsions:
REMARK  status: ('A' for Active; 'I' for Inactive)
REMARK    1  A    between atoms: C_1  and  C_2
REMARK    2  A    between atoms: C_5  and  C_6
REMARK    3  A    between atoms: C_7  and  C_8
REMARK    4  A    between atoms: C_14  and  C_16
REMARK                            x       y       z     vdW  Elec       q    Type
REMARK                         _______ _______ _______ _____ _____    ______ ____
ROOT
ATOM      1  C   UNL     1       0.924  12.640  19.307  0.00  0.00    +0.000 C 
ATOM      2  O   UNL     1       0.912  13.187  18.203  0.00  0.00    +0.000 OA
ATOM      3  N   UNL     1       1.169  11.261  19.400  0.00  0.00    +0.000 N 
ATOM      4  C   UNL     1       1.080  10.476  20.628  0.00  0.00    +0.000 C 
ATOM      5  C   UNL     1       0.720   9.005  20.434  0.00  0.00    +0.000 C 
ATOM      6  N   UNL     1       1.546   8.404  19.397  0.00  0.00    +0.000 N 
ATOM      7  C   UNL     1       2.113   7.150  19.655  0.00  0.00    +0.000 C 
ATOM      8  O   UNL     1       1.874   6.582  20.723  0.00  0.00    +0.000 OA
ATOM      9  C   UNL     1       1.474   9.126  18.117  0.00  0.00    +0.000 C 
ATOM     10  C   UNL     1       1.881  10.603  18.290  0.00  0.00    +0.000 C 
ENDROOT
BRANCH   7  11
ATOM     11  C   UNL     1       2.973   6.524  18.670  0.00  0.00    +0.000 A 
ATOM     12  S   UNL     1       4.276   7.379  17.971  0.00  0.00    +0.000 S 
ATOM     13  C   UNL     1       4.674   6.079  16.930  0.00  0.00    +0.000 A 
ATOM     14  C   UNL     1       5.593   6.109  15.869  0.00  0.00    +0.000 A 
ATOM     15  C   UNL     1       5.873   4.920  15.200  0.00  0.00    +0.000 A 
ATOM     16 CL   UNL     1       7.002   4.935  13.900  0.00  0.00    +0.000 Cl
ATOM     17  C   UNL     1       5.267   3.727  15.569  0.00  0.00    +0.000 A 
ATOM     18  C   UNL     1       4.326   3.715  16.605  0.00  0.00    +0.000 A 
ATOM     19  C   UNL     1       3.988   4.916  17.283  0.00  0.00    +0.000 A 
ATOM     20  C   UNL     1       3.001   5.193  18.300  0.00  0.00    +0.000 A 
ATOM     21 CL   UNL     1       1.945   3.971  18.892  0.00  0.00    +0.000 Cl
ENDBRANCH   7  11
BRANCH   1  28
ATOM     22  C   UNL     1       3.106  14.188  21.156  0.00  0.00    +0.000 C 
ATOM     23  C   UNL     1       1.631  14.113  21.318  0.00  0.00    +0.000 A 
ATOM     24  N   UNL     1       1.072  14.745  22.349  0.00  0.00    +0.000 NA
ATOM     25  O   UNL     1      -0.264  14.455  22.287  0.00  0.00    +0.000 OA
ATOM     26  C   UNL     1      -0.519  13.649  21.223  0.00  0.00    +0.000 A 
ATOM     27  C   UNL     1      -1.930  13.214  21.157  0.00  0.00    +0.000 C 
ATOM     28  C   UNL     1       0.653  13.441  20.506  0.00  0.00    +0.000 A 
ENDBRANCH   1  28
TORSDOF 2
ENDMDL
MODEL 4
REMARK VINA RESULT:      -7.4      1.762      2.665
REMARK  Name = 
REMARK  4 active torsions:
REMARK  status: ('A' for Active; 'I' for Inactive)
REMARK    1  A    between atoms: C_1  and  C_2
REMARK    2  A    between atoms: C_5  and  C_6
REMARK    3  A    between atoms: C_7  and  C_8
REMARK    4  A    between atoms: C_14  and  C_16
REMARK                            x       y       z     vdW  Elec       q    Type
REMARK                         _______ _______ _______ _____ _____    ______ ____
ROOT
ATOM      1  C   UNL     1       0.908  12.625  19.425  0.00  0.00    +0.000 C 
ATOM      2  O   UNL     1       0.900  13.185  18.327  0.00  0.00    +0.000 OA
ATOM      3  N   UNL     1       1.143  11.244  19.502  0.00  0.00    +0.000 N 
ATOM      4  C   UNL     1       1.050  10.446  20.721  0.00  0.00    +0.000 C 
ATOM      5  C   UNL     1       0.679   8.980  20.511  0.00  0.00    +0.000 C 
ATOM      6  N   UNL     1       1.500   8.385  19.467  0.00  0.00    +0.000 N 
ATOM      7  C   UNL     1       2.059   7.123  19.711  0.00  0.00    +0.000 C 
ATOM      8  O   UNL     1       1.816   6.546  20.773  0.00  0.00    +0.000 OA
ATOM      9  C   UNL     1       1.433   9.121  18.195  0.00  0.00    +0.000 C 
ATOM     10  C   UNL     1       1.850  10.593  18.385  0.00  0.00    +0.000 C 
ENDROOT
BRANCH   7  11
ATOM     11  C   UNL     1       2.914   6.503  18.718  0.00  0.00    +0.000 A 
ATOM     12  S   UNL     1       4.169   7.383  17.965  0.00  0.00    +0.000 S 
ATOM     13  C   UNL     1       4.584   6.072  16.945  0.00  0.00    +0.000 A 
ATOM     14  C   UNL     1       5.474   6.106  15.859  0.00  0.00    +0.000 A 
ATOM     15  C   UNL     1       5.777   4.911  15.212  0.00  0.00    +0.000 A 
ATOM     16 CL   UNL     1       6.871   4.932  13.883  0.00  0.00    +0.000 Cl
ATOM     17  C   UNL     1       5.221   3.709  15.625  0.00  0.00    +0.000 A 
ATOM     18  C   UNL     1       4.307   3.691  16.685  0.00  0.00    +0.000 A 
ATOM     19  C   UNL     1       3.947   4.896  17.343  0.00  0.00    +0.000 A 
ATOM     20  C   UNL     1       2.977   5.165  18.379  0.00  0.00    +0.000 A 
ATOM     21 CL   UNL     1       1.979   3.923  19.027  0.00  0.00    +0.000 Cl
ENDBRANCH   7  11
BRANCH   1  28
ATOM     22  C   UNL     1      -1.993  13.235  20.763  0.00  0.00    +0.000 C 
ATOM     23  C   UNL     1      -0.647  13.683  21.207  0.00  0.00    +0.000 A 
ATOM     24  N   UNL     1      -0.558  14.446  22.295  0.00  0.00    +0.000 NA
ATOM     25  O   UNL     1       0.768  14.757  22.429  0.00  0.00    +0.000 OA
ATOM     26  C   UNL     1       1.485  14.186  21.425  0.00  0.00    +0.000 A 
ATOM     27  C   UNL     1       2.912  14.567  21.452  0.00  0.00    +0.000 C 
ATOM     28  C   UNL     1       0.643  13.415  20.632  0.00  0.00    +0.000 A 
ENDBRANCH   1  28
TORSDOF 2
ENDMDL
MODEL 5
REMARK VINA RESULT:      -7.3      1.427      1.731
REMARK  Name = 
REMARK  4 active torsions:
REMARK  status: ('A' for Active; 'I' for Inactive)
REMARK    1  A    between atoms: C_1  and  C_2
REMARK    2  A    between atoms: C_5  and  C_6
REMARK    3  A    between atoms: C_7  and  C_8
REMARK    4  A    between atoms: C_14  and  C_16
REMARK                            x       y       z     vdW  Elec       q    Type
REMARK                         _______ _______ _______ _____ _____    ______ ____
ROOT
ATOM      1  C   UNL     1       0.471   9.924  19.217  0.00  0.00    +0.000 C 
ATOM      2  O   UNL     1      -0.195  10.264  18.238  0.00  0.00    +0.000 OA
ATOM      3  N   UNL     1       1.333   8.820  19.126  0.00  0.00    +0.000 N 
ATOM      4  C   UNL     1       2.071   8.241  20.244  0.00  0.00    +0.000 C 
ATOM      5  C   UNL     1       2.380   6.751  20.115  0.00  0.00    +0.000 C 
ATOM      6  N   UNL     1       2.943   6.452  18.807  0.00  0.00    +0.000 N 
ATOM      7  C   UNL     1       4.071   5.622  18.751  0.00  0.00    +0.000 C 
ATOM      8  O   UNL     1       4.528   5.148  19.793  0.00  0.00    +0.000 OA
ATOM      9  C   UNL     1       2.084   6.898  17.698  0.00  0.00    +0.000 C 
ATOM     10  C   UNL     1       1.803   8.411  17.791  0.00  0.00    +0.000 C 
ENDROOT
BRANCH   7  11
ATOM     11  C   UNL     1       4.690   5.323  17.476  0.00  0.00    +0.000 A 
ATOM     12  S   UNL     1       3.978   4.211  16.392  0.00  0.00    +0.000 S 
ATOM     13  C   UNL     1       5.276   4.340  15.282  0.00  0.00    +0.000 A 
ATOM     14  C   UNL     1       5.493   3.536  14.151  0.00  0.00    +0.000 A 
ATOM     15  C   UNL     1       6.544   3.861  13.298  0.00  0.00    +0.000 A 
ATOM     16 CL   UNL     1       6.822   2.890  11.904  0.00  0.00    +0.000 Cl
ATOM     17  C   UNL     1       7.361   4.955  13.547  0.00  0.00    +0.000 A 
ATOM     18  C   UNL     1       7.158   5.729  14.695  0.00  0.00    +0.000 A 
ATOM     19  C   UNL     1       6.120   5.403  15.607  0.00  0.00    +0.000 A 
ATOM     20  C   UNL     1       5.763   5.966  16.888  0.00  0.00    +0.000 A 
ATOM     21 CL   UNL     1       6.666   7.249  17.595  0.00  0.00    +0.000 Cl
ENDBRANCH   7  11
BRANCH   1  28
ATOM     22  C   UNL     1       1.418  12.980  19.800  0.00  0.00    +0.000 C 
ATOM     23  C   UNL     1       0.758  12.016  20.718  0.00  0.00    +0.000 A 
ATOM     24  N   UNL     1       0.499  12.403  21.966  0.00  0.00    +0.000 NA
ATOM     25  O   UNL     1      -0.041  11.313  22.593  0.00  0.00    +0.000 OA
ATOM     26  C   UNL     1      -0.110  10.265  21.731  0.00  0.00    +0.000 A 
ATOM     27  C   UNL     1      -0.590   9.024  22.374  0.00  0.00    +0.000 C 
ATOM     28  C   UNL     1       0.326  10.667  20.474  0.00  0.00    +0.000 A 
ENDBRANCH   1  28
TORSDOF 2
ENDMDL
MODEL 6
REMARK VINA RESULT:      -7.2      1.464      2.306
REMARK  Name = 
REMARK  4 active torsions:
REMARK  status: ('A' for Active; 'I' for Inactive)
REMARK    1  A    between atoms: C_1  and  C_2
REMARK    2  A    between atoms: C_5  and  C_6
REMARK    3  A    between atoms: C_7  and  C_8
REMARK    4  A    between atoms: C_14  and  C_16
REMARK                            x       y       z     vdW  Elec       q    Type
REMARK                         _______ _______ _______ _____ _____    ______ ____
ROOT
ATOM      1  C   UNL     1       0.576   9.933  19.285  0.00  0.00    +0.000 C 
ATOM      2  O   UNL     1      -0.070  10.319  18.309  0.00  0.00    +0.000 OA
ATOM      3  N   UNL     1       1.410   8.810  19.170  0.00  0.00    +0.000 N 
ATOM      4  C   UNL     1       2.121   8.179  20.278  0.00  0.00    +0.000 C 
ATOM      5  C   UNL     1       2.392   6.686  20.108  0.00  0.00    +0.000 C 
ATOM      6  N   UNL     1       2.960   6.410  18.797  0.00  0.00    +0.000 N 
ATOM      7  C   UNL     1       4.067   5.553  18.729  0.00  0.00    +0.000 C 
ATOM      8  O   UNL     1       4.500   5.037  19.761  0.00  0.00    +0.000 OA
ATOM      9  C   UNL     1       2.125   6.911  17.693  0.00  0.00    +0.000 C 
ATOM     10  C   UNL     1       1.883   8.427  17.828  0.00  0.00    +0.000 C 
ENDROOT
BRANCH   7  11
ATOM     11  C   UNL     1       4.692   5.275  17.451  0.00  0.00    +0.000 A 
ATOM     12  S   UNL     1       4.013   4.142  16.368  0.00  0.00    +0.000 S 
ATOM     13  C   UNL     1       5.303   4.313  15.255  0.00  0.00    +0.000 A 
ATOM     14  C   UNL     1       5.542   3.517  14.123  0.00  0.00    +0.000 A 
ATOM     15  C   UNL     1       6.580   3.876  13.267  0.00  0.00    +0.000 A 
ATOM     16 CL   UNL     1       6.885   2.916  11.871  0.00  0.00    +0.000 Cl
ATOM     17  C   UNL     1       7.363   4.995  13.515  0.00  0.00    +0.000 A 
ATOM     18  C   UNL     1       7.138   5.761  14.665  0.00  0.00    +0.000 A 
ATOM     19  C   UNL     1       6.114   5.402  15.579  0.00  0.00    +0.000 A 
ATOM     20  C   UNL     1       5.743   5.951  16.862  0.00  0.00    +0.000 A 
ATOM     21 CL   UNL     1       6.606   7.261  17.568  0.00  0.00    +0.000 Cl
ENDBRANCH   7  11
BRANCH   1  28
ATOM     22  C   UNL     1      -0.699   8.767  22.040  0.00  0.00    +0.000 C 
ATOM     23  C   UNL     1      -0.137  10.115  21.768  0.00  0.00    +0.000 A 
ATOM     24  N   UNL     1      -0.135  11.013  22.754  0.00  0.00    +0.000 NA
ATOM     25  O   UNL     1       0.370  12.163  22.212  0.00  0.00    +0.000 OA
ATOM     26  C   UNL     1       0.674  11.969  20.902  0.00  0.00    +0.000 A 
ATOM     27  C   UNL     1       1.129  13.204  20.229  0.00  0.00    +0.000 C 
ATOM     28  C   UNL     1       0.437  10.643  20.561  0.00  0.00    +0.000 A 
ENDBRANCH   1  28
TORSDOF 2
ENDMDL
MODEL 7
REMARK VINA RESULT:      -7.1      6.940      8.520
REMARK  Name = 
REMARK  4 active torsions:
REMARK  status: ('A' for Active; 'I' for Inactive)
REMARK    1  A    between atoms: C_1  and  C_2
REMARK    2  A    between atoms: C_5  and  C_6
REMARK    3  A    between atoms: C_7  and  C_8
REMARK    4  A    between atoms: C_14  and  C_16
REMARK                            x       y       z     vdW  Elec       q    Type
REMARK                         _______ _______ _______ _____ _____    ______ ____
ROOT
ATOM      1  C   UNL     1      -1.233  11.211  18.584  0.00  0.00    +0.000 C 
ATOM      2  O   UNL     1      -0.883  10.068  18.886  0.00  0.00    +0.000 OA
ATOM      3  N   UNL     1      -0.363  12.289  18.808  0.00  0.00    +0.000 N 
ATOM      4  C   UNL     1      -0.707  13.695  18.617  0.00  0.00    +0.000 C 
ATOM      5  C   UNL     1       0.059  14.676  19.501  0.00  0.00    +0.000 C 
ATOM      6  N   UNL     1       1.487  14.399  19.464  0.00  0.00    +0.000 N 
ATOM      7  C   UNL     1       2.362  15.481  19.304  0.00  0.00    +0.000 C 
ATOM      8  O   UNL     1       1.907  16.625  19.235  0.00  0.00    +0.000 OA
ATOM      9  C   UNL     1       1.811  13.011  19.832  0.00  0.00    +0.000 C 
ATOM     10  C   UNL     1       1.080  12.010  18.916  0.00  0.00    +0.000 C 
ENDROOT
BRANCH   7  11
ATOM     11  C   UNL     1       3.791  15.255  19.224  0.00  0.00    +0.000 A 
ATOM     12  S   UNL     1       4.583  15.157  17.714  0.00  0.00    +0.000 S 
ATOM     13  C   UNL     1       6.092  14.800  18.438  0.00  0.00    +0.000 A 
ATOM     14  C   UNL     1       7.263  14.393  17.777  0.00  0.00    +0.000 A 
ATOM     15  C   UNL     1       8.432  14.255  18.521  0.00  0.00    +0.000 A 
ATOM     16 CL   UNL     1       9.877  13.763  17.727  0.00  0.00    +0.000 Cl
ATOM     17  C   UNL     1       8.452  14.518  19.884  0.00  0.00    +0.000 A 
ATOM     18  C   UNL     1       7.272  14.889  20.540  0.00  0.00    +0.000 A 
ATOM     19  C   UNL     1       6.054  15.000  19.819  0.00  0.00    +0.000 A 
ATOM     20  C   UNL     1       4.705  15.266  20.260  0.00  0.00    +0.000 A 
ATOM     21 CL   UNL     1       4.324  15.487  21.923  0.00  0.00    +0.000 Cl
ENDBRANCH   7  11
BRANCH   1  28
ATOM     22  C   UNL     1      -3.837  12.401  20.127  0.00  0.00    +0.000 C 
ATOM     23  C   UNL     1      -3.714  11.943  18.719  0.00  0.00    +0.000 A 
ATOM     24  N   UNL     1      -4.791  12.001  17.936  0.00  0.00    +0.000 NA
ATOM     25  O   UNL     1      -4.411  11.465  16.735  0.00  0.00    +0.000 OA
ATOM     26  C   UNL     1      -3.109  11.080  16.786  0.00  0.00    +0.000 A 
ATOM     27  C   UNL     1      -2.664  10.397  15.553  0.00  0.00    +0.000 C 
ATOM     28  C   UNL     1      -2.570  11.423  18.020  0.00  0.00    +0.000 A 
ENDBRANCH   1  28
TORSDOF 2
ENDMDL
MODEL 8
REMARK VINA RESULT:      -7.0      6.748      9.500
REMARK  Name = 
REMARK  4 active torsions:
REMARK  status: ('A' for Active; 'I' for Inactive)
REMARK    1  A    between atoms: C_1  and  C_2
REMARK    2  A    between atoms: C_5  and  C_6
REMARK    3  A    between atoms: C_7  and  C_8
REMARK    4  A    between atoms: C_14  and  C_16
REMARK                            x       y       z     vdW  Elec       q    Type
REMARK                         _______ _______ _______ _____ _____    ______ ____
ROOT
ATOM      1  C   UNL     1       4.384  16.306  18.724  0.00  0.00    +0.000 C 
ATOM      2  O   UNL     1       3.933  17.235  18.051  0.00  0.00    +0.000 OA
ATOM      3  N   UNL     1       3.512  15.347  19.262  0.00  0.00    +0.000 N 
ATOM      4  C   UNL     1       3.904  14.280  20.178  0.00  0.00    +0.000 C 
ATOM      5  C   UNL     1       2.808  13.806  21.130  0.00  0.00    +0.000 C 
ATOM      6  N   UNL     1       1.571  13.550  20.406  0.00  0.00    +0.000 N 
ATOM      7  C   UNL     1       0.878  12.366  20.690  0.00  0.00    +0.000 C 
ATOM      8  O   UNL     1       1.309  11.602  21.556  0.00  0.00    +0.000 OA
ATOM      9  C   UNL     1       1.112  14.711  19.627  0.00  0.00    +0.000 C 
ATOM     10  C   UNL     1       2.193  15.171  18.629  0.00  0.00    +0.000 C 
ENDROOT
BRANCH   7  11
ATOM     11  C   UNL     1      -0.339  12.047  19.971  0.00  0.00    +0.000 A 
ATOM     12  S   UNL     1      -1.763  12.962  20.203  0.00  0.00    +0.000 S 
ATOM     13  C   UNL     1      -2.675  11.954  19.162  0.00  0.00    +0.000 A 
ATOM     14  C   UNL     1      -4.068  11.983  18.978  0.00  0.00    +0.000 A 
ATOM     15  C   UNL     1      -4.625  11.161  18.002  0.00  0.00    +0.000 A 
ATOM     16 CL   UNL     1      -6.329  11.187  17.758  0.00  0.00    +0.000 Cl
ATOM     17  C   UNL     1      -3.832  10.334  17.220  0.00  0.00    +0.000 A 
ATOM     18  C   UNL     1      -2.449  10.287  17.434  0.00  0.00    +0.000 A 
ATOM     19  C   UNL     1      -1.852  11.082  18.447  0.00  0.00    +0.000 A 
ATOM     20  C   UNL     1      -0.494  11.150  18.931  0.00  0.00    +0.000 A 
ATOM     21 CL   UNL     1       0.745  10.139  18.295  0.00  0.00    +0.000 Cl
ENDBRANCH   7  11
BRANCH   1  28
ATOM     22  C   UNL     1       6.169  18.401  20.456  0.00  0.00    +0.000 C 
ATOM     23  C   UNL     1       6.605  17.177  19.734  0.00  0.00    +0.000 A 
ATOM     24  N   UNL     1       7.896  16.848  19.763  0.00  0.00    +0.000 NA
ATOM     25  O   UNL     1       8.017  15.736  18.976  0.00  0.00    +0.000 OA
ATOM     26  C   UNL     1       6.805  15.388  18.468  0.00  0.00    +0.000 A 
ATOM     27  C   UNL     1       6.883  14.254  17.524  0.00  0.00    +0.000 C 
ATOM     28  C   UNL     1       5.828  16.237  18.973  0.00  0.00    +0.000 A 
ENDBRANCH   1  28
TORSDOF 2
ENDMDL
MODEL 9
REMARK VINA RESULT:      -7.0      3.667      6.351
REMARK  Name = 
REMARK  4 active torsions:
REMARK  status: ('A' for Active; 'I' for Inactive)
REMARK    1  A    between atoms: C_1  and  C_2
REMARK    2  A    between atoms: C_5  and  C_6
REMARK    3  A    between atoms: C_7  and  C_8
REMARK    4  A    between atoms: C_14  and  C_16
REMARK                            x       y       z     vdW  Elec       q    Type
REMARK                         _______ _______ _______ _____ _____    ______ ____
ROOT
ATOM      1  C   UNL     1      -1.656  13.965  23.246  0.00  0.00    +0.000 C 
ATOM      2  O   UNL     1      -0.804  14.115  24.124  0.00  0.00    +0.000 OA
ATOM      3  N   UNL     1      -1.345  13.230  22.092  0.00  0.00    +0.000 N 
ATOM      4  C   UNL     1      -2.217  13.093  20.928  0.00  0.00    +0.000 C 
ATOM      5  C   UNL     1      -1.496  12.866  19.601  0.00  0.00    +0.000 C 
ATOM      6  N   UNL     1      -0.498  11.815  19.729  0.00  0.00    +0.000 N 
ATOM      7  C   UNL     1      -0.442  10.837  18.727  0.00  0.00    +0.000 C 
ATOM      8  O   UNL     1      -1.206  10.911  17.763  0.00  0.00    +0.000 OA
ATOM      9  C   UNL     1       0.473  12.075  20.805  0.00  0.00    +0.000 C 
ATOM     10  C   UNL     1      -0.239  12.259  22.159  0.00  0.00    +0.000 C 
ENDROOT
BRANCH   7  11
ATOM     11  C   UNL     1       0.511   9.749  18.826  0.00  0.00    +0.000 A 
ATOM     12  S   UNL     1       1.823   9.628  17.740  0.00  0.00    +0.000 S 
ATOM     13  C   UNL     1       2.348   8.145  18.414  0.00  0.00    +0.000 A 
ATOM     14  C   UNL     1       3.339   7.294  17.897  0.00  0.00    +0.000 A 
ATOM     15  C   UNL     1       3.715   6.181  18.644  0.00  0.00    +0.000 A 
ATOM     16 CL   UNL     1       4.931   5.130  18.029  0.00  0.00    +0.000 Cl
ATOM     17  C   UNL     1       3.134   5.912  19.876  0.00  0.00    +0.000 A 
ATOM     18  C   UNL     1       2.123   6.747  20.366  0.00  0.00    +0.000 A 
ATOM     19  C   UNL     1       1.688   7.868  19.613  0.00  0.00    +0.000 A 
ATOM     20  C   UNL     1       0.621   8.814  19.838  0.00  0.00    +0.000 A 
ATOM     21 CL   UNL     1      -0.423   8.693  21.200  0.00  0.00    +0.000 Cl
ENDBRANCH   7  11
BRANCH   1  28
ATOM     22  C   UNL     1      -4.297  12.613  24.576  0.00  0.00    +0.000 C 
ATOM     23  C   UNL     1      -4.135  13.972  23.997  0.00  0.00    +0.000 A 
ATOM     24  N   UNL     1      -5.187  14.790  23.992  0.00  0.00    +0.000 NA
ATOM     25  O   UNL     1      -4.774  15.927  23.352  0.00  0.00    +0.000 OA
ATOM     26  C   UNL     1      -3.477  15.803  22.968  0.00  0.00    +0.000 A 
ATOM     27  C   UNL     1      -2.999  16.958  22.179  0.00  0.00    +0.000 C 
ATOM     28  C   UNL     1      -2.974  14.587  23.414  0.00  0.00    +0.000 A 
ENDBRANCH   1  28
TORSDOF 2
ENDMDL
