MODEL 1
REMARK VINA RESULT:      -7.2      0.000      0.000
REMARK  Name = 
REMARK  7 active torsions:
REMARK  status: ('A' for Active; 'I' for Inactive)
REMARK    1  A    between atoms: C_1  and  C_2
REMARK    2  A    between atoms: C_2  and  C_3
REMARK    3  A    between atoms: N_5  and  S_6
REMARK    4  A    between atoms: S_6  and  C_9
REMARK    5  A    between atoms: C_9  and  C_10
REMARK    6  A    between atoms: C_12  and  O_13
REMARK    7  A    between atoms: O_13  and  C_14
REMARK                            x       y       z     vdW  Elec       q    Type
REMARK                         _______ _______ _______ _____ _____    ______ ____
ROOT
ATOM      1  C   UNL     1       6.587   3.989  16.319  0.00  0.00    +0.000 C 
ENDROOT
BRANCH   1   2
ATOM      2  C   UNL     1       5.500   4.388  17.281  0.00  0.00    +0.000 A 
ATOM      3  C   UNL     1       4.189   3.918  17.045  0.00  0.00    +0.000 A 
ATOM      4  C   UNL     1       3.114   4.298  17.856  0.00  0.00    +0.000 A 
ATOM      5  C   UNL     1       3.345   5.149  18.932  0.00  0.00    +0.000 A 
ATOM      6  C   UNL     1       4.638   5.606  19.197  0.00  0.00    +0.000 A 
ATOM      7  C   UNL     1       5.710   5.229  18.381  0.00  0.00    +0.000 A 
ATOM      8 BR   UNL     1       7.416   5.937  18.822  0.00  0.00    +0.000 Br
BRANCH   4   9
ATOM      9  O   UNL     1       1.903   3.780  17.484  0.00  0.00    +0.000 OA
ATOM     10  C   UNL     1       1.231   2.963  18.436  0.00  0.00    +0.000 C 
ENDBRANCH   4   9
ENDBRANCH   1   2
BRANCH   1  11
ATOM     11  S   UNL     1       6.443   4.942  14.791  0.00  0.00    +0.000 S 
ATOM     12  O   UNL     1       7.747   5.258  14.254  0.00  0.00    +0.000 OA
ATOM     13  O   UNL     1       5.443   5.976  14.960  0.00  0.00    +0.000 OA
BRANCH  11  16
ATOM     14  C   UNL     1       6.154   3.629  12.433  0.00  0.00    +0.000 C 
ATOM     15  O   UNL     1       7.180   4.123  11.981  0.00  0.00    +0.000 OA
ATOM     16  N   UNL     1       5.723   3.859  13.747  0.00  0.00    +0.000 N 
ATOM     17  H   UNL     1       4.874   3.440  14.122  0.00  0.00    +0.000 HD
BRANCH  14  19
ATOM     18  C   UNL     1       4.006   3.259  11.250  0.00  0.00    +0.000 C 
ATOM     19  C   UNL     1       5.338   2.645  11.637  0.00  0.00    +0.000 C 
ENDBRANCH  14  19
ENDBRANCH  11  16
ENDBRANCH   1  11
TORSDOF 5
ENDMDL
MODEL 2
REMARK VINA RESULT:      -7.1      2.511      3.173
REMARK  Name = 
REMARK  7 active torsions:
REMARK  status: ('A' for Active; 'I' for Inactive)
REMARK    1  A    between atoms: C_1  and  C_2
REMARK    2  A    between atoms: C_2  and  C_3
REMARK    3  A    between atoms: N_5  and  S_6
REMARK    4  A    between atoms: S_6  and  C_9
REMARK    5  A    between atoms: C_9  and  C_10
REMARK    6  A    between atoms: C_12  and  O_13
REMARK    7  A    between atoms: O_13  and  C_14
REMARK                            x       y       z     vdW  Elec       q    Type
REMARK                         _______ _______ _______ _____ _____    ______ ____
ROOT
ATOM      1  C   UNL     1       5.916   4.308  18.555  0.00  0.00    +0.000 C 
ENDROOT
BRANCH   1   2
ATOM      2  C   UNL     1       4.531   4.829  18.274  0.00  0.00    +0.000 A 
ATOM      3  C   UNL     1       4.340   6.227  18.211  0.00  0.00    +0.000 A 
ATOM      4  C   UNL     1       3.072   6.788  18.020  0.00  0.00    +0.000 A 
ATOM      5  C   UNL     1       1.974   5.948  17.873  0.00  0.00    +0.000 A 
ATOM      6  C   UNL     1       2.145   4.562  17.909  0.00  0.00    +0.000 A 
ATOM      7  C   UNL     1       3.412   4.003  18.106  0.00  0.00    +0.000 A 
ATOM      8 BR   UNL     1       3.517   2.108  18.165  0.00  0.00    +0.000 Br
BRANCH   4   9
ATOM      9  O   UNL     1       3.046   8.156  18.008  0.00  0.00    +0.000 OA
ATOM     10  C   UNL     1       1.770   8.777  17.907  0.00  0.00    +0.000 C 
ENDBRANCH   4   9
ENDBRANCH   1   2
BRANCH   1  11
ATOM     11  S   UNL     1       7.046   4.811  17.239  0.00  0.00    +0.000 S 
ATOM     12  O   UNL     1       8.328   4.160  17.382  0.00  0.00    +0.000 OA
ATOM     13  O   UNL     1       6.962   6.246  17.053  0.00  0.00    +0.000 OA
BRANCH  11  16
ATOM     14  C   UNL     1       6.688   4.533  14.563  0.00  0.00    +0.000 C 
ATOM     15  O   UNL     1       7.663   5.234  14.315  0.00  0.00    +0.000 OA
ATOM     16  N   UNL     1       6.322   4.190  15.872  0.00  0.00    +0.000 N 
ATOM     17  H   UNL     1       5.516   3.601  16.074  0.00  0.00    +0.000 HD
BRANCH  14  19
ATOM     18  C   UNL     1       6.726   3.723  12.220  0.00  0.00    +0.000 C 
ATOM     19  C   UNL     1       5.878   3.896  13.466  0.00  0.00    +0.000 C 
ENDBRANCH  14  19
ENDBRANCH  11  16
ENDBRANCH   1  11
TORSDOF 5
ENDMDL
MODEL 3
REMARK VINA RESULT:      -7.1      1.099      1.217
REMARK  Name = 
REMARK  7 active torsions:
REMARK  status: ('A' for Active; 'I' for Inactive)
REMARK    1  A    between atoms: C_1  and  C_2
REMARK    2  A    between atoms: C_2  and  C_3
REMARK    3  A    between atoms: N_5  and  S_6
REMARK    4  A    between atoms: S_6  and  C_9
REMARK    5  A    between atoms: C_9  and  C_10
REMARK    6  A    between atoms: C_12  and  O_13
REMARK    7  A    between atoms: O_13  and  C_14
REMARK                            x       y       z     vdW  Elec       q    Type
REMARK                         _______ _______ _______ _____ _____    ______ ____
ROOT
ATOM      1  C   UNL     1       5.587   5.781  15.439  0.00  0.00    +0.000 C 
ENDROOT
BRANCH   1   2
ATOM      2  C   UNL     1       5.225   5.350  16.836  0.00  0.00    +0.000 A 
ATOM      3  C   UNL     1       4.138   4.463  17.004  0.00  0.00    +0.000 A 
ATOM      4  C   UNL     1       3.700   4.069  18.273  0.00  0.00    +0.000 A 
ATOM      5  C   UNL     1       4.360   4.551  19.398  0.00  0.00    +0.000 A 
ATOM      6  C   UNL     1       5.452   5.411  19.252  0.00  0.00    +0.000 A 
ATOM      7  C   UNL     1       5.885   5.808  17.983  0.00  0.00    +0.000 A 
ATOM      8 BR   UNL     1       7.360   7.001  17.912  0.00  0.00    +0.000 Br
BRANCH   4   9
ATOM      9  O   UNL     1       2.620   3.228  18.272  0.00  0.00    +0.000 OA
ATOM     10  C   UNL     1       1.982   2.995  19.522  0.00  0.00    +0.000 C 
ENDBRANCH   4   9
ENDBRANCH   1   2
BRANCH   1  11
ATOM     11  S   UNL     1       6.968   4.792  14.824  0.00  0.00    +0.000 S 
ATOM     12  O   UNL     1       7.606   4.069  15.899  0.00  0.00    +0.000 OA
ATOM     13  O   UNL     1       7.752   5.583  13.897  0.00  0.00    +0.000 OA
BRANCH  11  16
ATOM     14  C   UNL     1       6.394   3.586  12.461  0.00  0.00    +0.000 C 
ATOM     15  O   UNL     1       7.225   4.260  11.864  0.00  0.00    +0.000 OA
ATOM     16  N   UNL     1       6.212   3.671  13.848  0.00  0.00    +0.000 N 
ATOM     17  H   UNL     1       5.525   3.103  14.342  0.00  0.00    +0.000 HD
BRANCH  14  19
ATOM     18  C   UNL     1       4.261   3.115  11.287  0.00  0.00    +0.000 C 
ATOM     19  C   UNL     1       5.582   2.533  11.755  0.00  0.00    +0.000 C 
ENDBRANCH  14  19
ENDBRANCH  11  16
ENDBRANCH   1  11
TORSDOF 5
ENDMDL
MODEL 4
REMARK VINA RESULT:      -6.7      2.837      3.779
REMARK  Name = 
REMARK  7 active torsions:
REMARK  status: ('A' for Active; 'I' for Inactive)
REMARK    1  A    between atoms: C_1  and  C_2
REMARK    2  A    between atoms: C_2  and  C_3
REMARK    3  A    between atoms: N_5  and  S_6
REMARK    4  A    between atoms: S_6  and  C_9
REMARK    5  A    between atoms: C_9  and  C_10
REMARK    6  A    between atoms: C_12  and  O_13
REMARK    7  A    between atoms: O_13  and  C_14
REMARK                            x       y       z     vdW  Elec       q    Type
REMARK                         _______ _______ _______ _____ _____    ______ ____
ROOT
ATOM      1  C   UNL     1       3.863   4.691  17.374  0.00  0.00    +0.000 C 
ENDROOT
BRANCH   1   2
ATOM      2  C   UNL     1       3.049   4.470  18.622  0.00  0.00    +0.000 A 
ATOM      3  C   UNL     1       2.536   5.600  19.297  0.00  0.00    +0.000 A 
ATOM      4  C   UNL     1       1.827   5.480  20.497  0.00  0.00    +0.000 A 
ATOM      5  C   UNL     1       1.609   4.214  21.032  0.00  0.00    +0.000 A 
ATOM      6  C   UNL     1       2.088   3.083  20.367  0.00  0.00    +0.000 A 
ATOM      7  C   UNL     1       2.802   3.206  19.170  0.00  0.00    +0.000 A 
ATOM      8 BR   UNL     1       3.428   1.599  18.374  0.00  0.00    +0.000 Br
BRANCH   4   9
ATOM      9  O   UNL     1       1.418   6.666  21.043  0.00  0.00    +0.000 OA
ATOM     10  C   UNL     1       1.743   7.852  20.327  0.00  0.00    +0.000 C 
ENDBRANCH   4   9
ENDBRANCH   1   2
BRANCH   1  11
ATOM     11  S   UNL     1       5.579   5.052  17.808  0.00  0.00    +0.000 S 
ATOM     12  O   UNL     1       6.039   4.180  18.865  0.00  0.00    +0.000 OA
ATOM     13  O   UNL     1       5.763   6.486  17.900  0.00  0.00    +0.000 OA
BRANCH  11  16
ATOM     14  C   UNL     1       6.180   5.215  15.167  0.00  0.00    +0.000 C 
ATOM     15  O   UNL     1       5.432   6.173  15.010  0.00  0.00    +0.000 OA
ATOM     16  N   UNL     1       6.406   4.633  16.422  0.00  0.00    +0.000 N 
ATOM     17  H   UNL     1       7.034   3.842  16.549  0.00  0.00    +0.000 HD
BRANCH  14  19
ATOM     18  C   UNL     1       6.151   3.744  13.170  0.00  0.00    +0.000 C 
ATOM     19  C   UNL     1       6.999   4.663  14.030  0.00  0.00    +0.000 C 
ENDBRANCH  14  19
ENDBRANCH  11  16
ENDBRANCH   1  11
TORSDOF 5
ENDMDL
MODEL 5
REMARK VINA RESULT:      -6.7      3.417      4.635
REMARK  Name = 
REMARK  7 active torsions:
REMARK  status: ('A' for Active; 'I' for Inactive)
REMARK    1  A    between atoms: C_1  and  C_2
REMARK    2  A    between atoms: C_2  and  C_3
REMARK    3  A    between atoms: N_5  and  S_6
REMARK    4  A    between atoms: S_6  and  C_9
REMARK    5  A    between atoms: C_9  and  C_10
REMARK    6  A    between atoms: C_12  and  O_13
REMARK    7  A    between atoms: O_13  and  C_14
REMARK                            x       y       z     vdW  Elec       q    Type
REMARK                         _______ _______ _______ _____ _____    ______ ____
ROOT
ATOM      1  C   UNL     1       3.363   4.397  18.186  0.00  0.00    +0.000 C 
ENDROOT
BRANCH   1   2
ATOM      2  C   UNL     1       2.729   5.589  18.855  0.00  0.00    +0.000 A 
ATOM      3  C   UNL     1       2.756   6.829  18.181  0.00  0.00    +0.000 A 
ATOM      4  C   UNL     1       2.246   7.995  18.764  0.00  0.00    +0.000 A 
ATOM      5  C   UNL     1       1.687   7.927  20.036  0.00  0.00    +0.000 A 
ATOM      6  C   UNL     1       1.630   6.704  20.710  0.00  0.00    +0.000 A 
ATOM      7  C   UNL     1       2.145   5.542  20.127  0.00  0.00    +0.000 A 
ATOM      8 BR   UNL     1       2.037   3.946  21.151  0.00  0.00    +0.000 Br
BRANCH   4   9
ATOM      9  O   UNL     1       2.368   9.121  17.997  0.00  0.00    +0.000 OA
ATOM     10  C   UNL     1       1.450  10.178  18.253  0.00  0.00    +0.000 C 
ENDBRANCH   4   9
ENDBRANCH   1   2
BRANCH   1  11
ATOM     11  S   UNL     1       5.028   4.134  18.835  0.00  0.00    +0.000 S 
ATOM     12  O   UNL     1       5.107   2.891  19.567  0.00  0.00    +0.000 OA
ATOM     13  O   UNL     1       5.520   5.367  19.417  0.00  0.00    +0.000 OA
BRANCH  11  16
ATOM     14  C   UNL     1       6.158   4.979  16.517  0.00  0.00    +0.000 C 
ATOM     15  O   UNL     1       5.791   6.133  16.706  0.00  0.00    +0.000 OA
ATOM     16  N   UNL     1       5.940   3.956  17.451  0.00  0.00    +0.000 N 
ATOM     17  H   UNL     1       6.252   3.000  17.293  0.00  0.00    +0.000 HD
BRANCH  14  19
ATOM     18  C   UNL     1       6.077   3.998  14.241  0.00  0.00    +0.000 C 
ATOM     19  C   UNL     1       6.972   4.601  15.308  0.00  0.00    +0.000 C 
ENDBRANCH  14  19
ENDBRANCH  11  16
ENDBRANCH   1  11
TORSDOF 5
ENDMDL
MODEL 6
REMARK VINA RESULT:      -6.7      3.708      5.204
REMARK  Name = 
REMARK  7 active torsions:
REMARK  status: ('A' for Active; 'I' for Inactive)
REMARK    1  A    between atoms: C_1  and  C_2
REMARK    2  A    between atoms: C_2  and  C_3
REMARK    3  A    between atoms: N_5  and  S_6
REMARK    4  A    between atoms: S_6  and  C_9
REMARK    5  A    between atoms: C_9  and  C_10
REMARK    6  A    between atoms: C_12  and  O_13
REMARK    7  A    between atoms: O_13  and  C_14
REMARK                            x       y       z     vdW  Elec       q    Type
REMARK                         _______ _______ _______ _____ _____    ______ ____
ROOT
ATOM      1  C   UNL     1       5.532   4.254  16.984  0.00  0.00    +0.000 C 
ENDROOT
BRANCH   1   2
ATOM      2  C   UNL     1       4.263   4.697  17.663  0.00  0.00    +0.000 A 
ATOM      3  C   UNL     1       4.026   6.082  17.804  0.00  0.00    +0.000 A 
ATOM      4  C   UNL     1       2.903   6.572  18.480  0.00  0.00    +0.000 A 
ATOM      5  C   UNL     1       1.988   5.670  19.015  0.00  0.00    +0.000 A 
ATOM      6  C   UNL     1       2.193   4.296  18.866  0.00  0.00    +0.000 A 
ATOM      7  C   UNL     1       3.319   3.810  18.195  0.00  0.00    +0.000 A 
ATOM      8 BR   UNL     1       3.504   1.923  18.081  0.00  0.00    +0.000 Br
BRANCH   4   9
ATOM      9  O   UNL     1       2.827   7.936  18.555  0.00  0.00    +0.000 OA
ATOM     10  C   UNL     1       1.893   8.578  17.694  0.00  0.00    +0.000 C 
ENDBRANCH   4   9
ENDBRANCH   1   2
BRANCH   1  11
ATOM     11  S   UNL     1       6.968   4.798  17.936  0.00  0.00    +0.000 S 
ATOM     12  O   UNL     1       8.159   4.091  17.526  0.00  0.00    +0.000 OA
ATOM     13  O   UNL     1       6.610   4.893  19.337  0.00  0.00    +0.000 OA
BRANCH  11  16
ATOM     14  C   UNL     1       7.899   7.337  18.164  0.00  0.00    +0.000 C 
ATOM     15  O   UNL     1       8.597   7.042  19.127  0.00  0.00    +0.000 OA
ATOM     16  N   UNL     1       7.144   6.387  17.463  0.00  0.00    +0.000 N 
ATOM     17  H   UNL     1       6.571   6.635  16.658  0.00  0.00    +0.000 HD
BRANCH  14  19
ATOM     18  C   UNL     1       8.733   9.654  18.458  0.00  0.00    +0.000 C 
ATOM     19  C   UNL     1       7.892   8.731  17.595  0.00  0.00    +0.000 C 
ENDBRANCH  14  19
ENDBRANCH  11  16
ENDBRANCH   1  11
TORSDOF 5
ENDMDL
MODEL 7
REMARK VINA RESULT:      -6.6      2.381      3.149
REMARK  Name = 
REMARK  7 active torsions:
REMARK  status: ('A' for Active; 'I' for Inactive)
REMARK    1  A    between atoms: C_1  and  C_2
REMARK    2  A    between atoms: C_2  and  C_3
REMARK    3  A    between atoms: N_5  and  S_6
REMARK    4  A    between atoms: S_6  and  C_9
REMARK    5  A    between atoms: C_9  and  C_10
REMARK    6  A    between atoms: C_12  and  O_13
REMARK    7  A    between atoms: O_13  and  C_14
REMARK                            x       y       z     vdW  Elec       q    Type
REMARK                         _______ _______ _______ _____ _____    ______ ____
ROOT
ATOM      1  C   UNL     1       3.670   4.065  16.616  0.00  0.00    +0.000 C 
ENDROOT
BRANCH   1   2
ATOM      2  C   UNL     1       3.110   4.545  17.929  0.00  0.00    +0.000 A 
ATOM      3  C   UNL     1       2.863   5.926  18.088  0.00  0.00    +0.000 A 
ATOM      4  C   UNL     1       2.406   6.457  19.299  0.00  0.00    +0.000 A 
ATOM      5  C   UNL     1       2.174   5.600  20.370  0.00  0.00    +0.000 A 
ATOM      6  C   UNL     1       2.389   4.227  20.225  0.00  0.00    +0.000 A 
ATOM      7  C   UNL     1       2.853   3.700  19.016  0.00  0.00    +0.000 A 
ATOM      8 BR   UNL     1       3.136   1.823  18.948  0.00  0.00    +0.000 Br
BRANCH   4   9
ATOM      9  O   UNL     1       2.239   7.815  19.305  0.00  0.00    +0.000 OA
ATOM     10  C   UNL     1       2.212   8.467  18.040  0.00  0.00    +0.000 C 
ENDBRANCH   4   9
ENDBRANCH   1   2
BRANCH   1  11
ATOM     11  S   UNL     1       5.270   4.843  16.302  0.00  0.00    +0.000 S 
ATOM     12  O   UNL     1       6.268   4.367  17.232  0.00  0.00    +0.000 OA
ATOM     13  O   UNL     1       5.081   6.263  16.083  0.00  0.00    +0.000 OA
BRANCH  11  16
ATOM     14  C   UNL     1       6.798   4.674  14.066  0.00  0.00    +0.000 C 
ATOM     15  O   UNL     1       7.649   5.420  14.537  0.00  0.00    +0.000 OA
ATOM     16  N   UNL     1       5.674   4.259  14.794  0.00  0.00    +0.000 N 
ATOM     17  H   UNL     1       4.973   3.633  14.401  0.00  0.00    +0.000 HD
BRANCH  14  19
ATOM     18  C   UNL     1       5.706   3.298  12.316  0.00  0.00    +0.000 C 
ATOM     19  C   UNL     1       6.961   4.059  12.701  0.00  0.00    +0.000 C 
ENDBRANCH  14  19
ENDBRANCH  11  16
ENDBRANCH   1  11
TORSDOF 5
ENDMDL
MODEL 8
REMARK VINA RESULT:      -6.6      2.250      2.878
REMARK  Name = 
REMARK  7 active torsions:
REMARK  status: ('A' for Active; 'I' for Inactive)
REMARK    1  A    between atoms: C_1  and  C_2
REMARK    2  A    between atoms: C_2  and  C_3
REMARK    3  A    between atoms: N_5  and  S_6
REMARK    4  A    between atoms: S_6  and  C_9
REMARK    5  A    between atoms: C_9  and  C_10
REMARK    6  A    between atoms: C_12  and  O_13
REMARK    7  A    between atoms: O_13  and  C_14
REMARK                            x       y       z     vdW  Elec       q    Type
REMARK                         _______ _______ _______ _____ _____    ______ ____
ROOT
ATOM      1  C   UNL     1       5.504   5.770  18.826  0.00  0.00    +0.000 C 
ENDROOT
BRANCH   1   2
ATOM      2  C   UNL     1       4.232   5.074  18.418  0.00  0.00    +0.000 A 
ATOM      3  C   UNL     1       4.236   3.665  18.335  0.00  0.00    +0.000 A 
ATOM      4  C   UNL     1       3.113   2.951  17.900  0.00  0.00    +0.000 A 
ATOM      5  C   UNL     1       1.959   3.647  17.554  0.00  0.00    +0.000 A 
ATOM      6  C   UNL     1       1.928   5.040  17.653  0.00  0.00    +0.000 A 
ATOM      7  C   UNL     1       3.053   5.752  18.082  0.00  0.00    +0.000 A 
ATOM      8 BR   UNL     1       2.901   7.644  18.147  0.00  0.00    +0.000 Br
BRANCH   4   9
ATOM      9  O   UNL     1       3.280   1.594  17.849  0.00  0.00    +0.000 OA
ATOM     10  C   UNL     1       3.955   0.985  18.944  0.00  0.00    +0.000 C 
ENDBRANCH   4   9
ENDBRANCH   1   2
BRANCH   1  11
ATOM     11  S   UNL     1       6.531   6.086  17.374  0.00  0.00    +0.000 S 
ATOM     12  O   UNL     1       7.914   5.759  17.638  0.00  0.00    +0.000 OA
ATOM     13  O   UNL     1       6.172   7.366  16.798  0.00  0.00    +0.000 OA
BRANCH  11  16
ATOM     14  C   UNL     1       6.534   4.753  15.010  0.00  0.00    +0.000 C 
ATOM     15  O   UNL     1       7.588   5.275  14.666  0.00  0.00    +0.000 OA
ATOM     16  N   UNL     1       5.959   4.977  16.269  0.00  0.00    +0.000 N 
ATOM     17  H   UNL     1       5.087   4.535  16.554  0.00  0.00    +0.000 HD
BRANCH  14  19
ATOM     18  C   UNL     1       6.382   3.802  12.725  0.00  0.00    +0.000 C 
ATOM     19  C   UNL     1       5.837   3.741  14.140  0.00  0.00    +0.000 C 
ENDBRANCH  14  19
ENDBRANCH  11  16
ENDBRANCH   1  11
TORSDOF 5
ENDMDL
MODEL 9
REMARK VINA RESULT:      -6.5      2.208      2.679
REMARK  Name = 
REMARK  7 active torsions:
REMARK  status: ('A' for Active; 'I' for Inactive)
REMARK    1  A    between atoms: C_1  and  C_2
REMARK    2  A    between atoms: C_2  and  C_3
REMARK    3  A    between atoms: N_5  and  S_6
REMARK    4  A    between atoms: S_6  and  C_9
REMARK    5  A    between atoms: C_9  and  C_10
REMARK    6  A    between atoms: C_12  and  O_13
REMARK    7  A    between atoms: O_13  and  C_14
REMARK                            x       y       z     vdW  Elec       q    Type
REMARK                         _______ _______ _______ _____ _____    ______ ____
ROOT
ATOM      1  C   UNL     1       5.818   4.549  17.009  0.00  0.00    +0.000 C 
ENDROOT
BRANCH   1   2
ATOM      2  C   UNL     1       4.457   5.066  17.397  0.00  0.00    +0.000 A 
ATOM      3  C   UNL     1       4.274   6.463  17.498  0.00  0.00    +0.000 A 
ATOM      4  C   UNL     1       3.059   7.017  17.916  0.00  0.00    +0.000 A 
ATOM      5  C   UNL     1       1.999   6.171  18.227  0.00  0.00    +0.000 A 
ATOM      6  C   UNL     1       2.154   4.787  18.110  0.00  0.00    +0.000 A 
ATOM      7  C   UNL     1       3.371   4.236  17.698  0.00  0.00    +0.000 A 
ATOM      8 BR   UNL     1       3.469   2.341  17.606  0.00  0.00    +0.000 Br
BRANCH   4   9
ATOM      9  O   UNL     1       3.046   8.384  17.988  0.00  0.00    +0.000 OA
ATOM     10  C   UNL     1       1.786   9.026  17.826  0.00  0.00    +0.000 C 
ENDBRANCH   4   9
ENDBRANCH   1   2
BRANCH   1  11
ATOM     11  S   UNL     1       6.287   5.193  15.388  0.00  0.00    +0.000 S 
ATOM     12  O   UNL     1       7.722   5.315  15.276  0.00  0.00    +0.000 OA
ATOM     13  O   UNL     1       5.421   6.301  15.039  0.00  0.00    +0.000 OA
BRANCH  11  16
ATOM     14  C   UNL     1       6.216   3.873  13.018  0.00  0.00    +0.000 C 
ATOM     15  O   UNL     1       7.062   4.613  12.529  0.00  0.00    +0.000 OA
ATOM     16  N   UNL     1       5.809   3.974  14.355  0.00  0.00    +0.000 N 
ATOM     17  H   UNL     1       5.111   3.352  14.759  0.00  0.00    +0.000 HD
BRANCH  14  19
ATOM     18  C   UNL     1       4.480   3.204  11.378  0.00  0.00    +0.000 C 
ATOM     19  C   UNL     1       5.633   2.723  12.239  0.00  0.00    +0.000 C 
ENDBRANCH  14  19
ENDBRANCH  11  16
ENDBRANCH   1  11
TORSDOF 5
ENDMDL
