MODEL 1
REMARK VINA RESULT:      -8.0      0.000      0.000
REMARK  Name = 
REMARK  11 active torsions:
REMARK  status: ('A' for Active; 'I' for Inactive)
REMARK    1  A    between atoms: C_1  and  N_2
REMARK    2  A    between atoms: C_9  and  N_10
REMARK    3  A    between atoms: N_10  and  C_11
REMARK    4  A    between atoms: C_14  and  N_15
REMARK    5  A    between atoms: N_15  and  S_16
REMARK    6  A    between atoms: S_16  and  C_19
REMARK    7  A    between atoms: C_19  and  C_20
REMARK    8  A    between atoms: C_20  and  C_21
REMARK    9  A    between atoms: C_21  and  C_22
REMARK   10  A    between atoms: C_22  and  N_23
REMARK   11  A    between atoms: C_29  and  N_30
REMARK                            x       y       z     vdW  Elec       q    Type
REMARK                         _______ _______ _______ _____ _____    ______ ____
ROOT
ATOM      1  N   UNL     1       0.409  10.680  18.938  0.00  0.00    +0.000 N 
ATOM      2  H   UNL     1       1.084  11.412  19.154  0.00  0.00    +0.000 HD
ENDROOT
BRANCH   1  11
ATOM      3  C   UNL     1      -4.829  12.839  19.713  0.00  0.00    +0.000 C 
ATOM      4  N   UNL     1      -3.488  12.235  19.485  0.00  0.00    +0.000 N 
ATOM      5  C   UNL     1      -3.213  11.549  18.327  0.00  0.00    +0.000 A 
ATOM      6  C   UNL     1      -4.136  11.470  17.250  0.00  0.00    +0.000 A 
ATOM      7  C   UNL     1      -3.886  10.720  16.101  0.00  0.00    +0.000 A 
ATOM      8  C   UNL     1      -2.736   9.969  16.020  0.00  0.00    +0.000 A 
ATOM      9  C   UNL     1      -1.816  10.027  17.062  0.00  0.00    +0.000 A 
ATOM     10  C   UNL     1      -1.968  10.891  18.180  0.00  0.00    +0.000 A 
ATOM     11  C   UNL     1      -0.947  11.109  19.145  0.00  0.00    +0.000 A 
ATOM     12  C   UNL     1      -1.266  11.804  20.341  0.00  0.00    +0.000 A 
ATOM     13  C   UNL     1      -0.342  12.008  21.398  0.00  0.00    +0.000 A 
ATOM     14  C   UNL     1      -0.680  12.699  22.568  0.00  0.00    +0.000 A 
ATOM     15  C   UNL     1      -1.968  13.192  22.752  0.00  0.00    +0.000 A 
ATOM     16  C   UNL     1      -2.868  13.050  21.695  0.00  0.00    +0.000 A 
ATOM     17  C   UNL     1      -2.561  12.353  20.494  0.00  0.00    +0.000 A 
BRANCH  15  18
ATOM     18  N   UNL     1      -2.277  14.017  23.826  0.00  0.00    +0.000 N 
ATOM     19  H   UNL     1      -2.076  15.007  23.695  0.00  0.00    +0.000 HD
ATOM     20  H   UNL     1      -1.994  13.701  24.749  0.00  0.00    +0.000 HD
ENDBRANCH  15  18
ENDBRANCH   1  11
BRANCH   1  21
ATOM     21  C   UNL     1       0.962   9.376  19.044  0.00  0.00    +0.000 A 
ATOM     22  C   UNL     1       1.007   8.680  20.264  0.00  0.00    +0.000 A 
ATOM     23  C   UNL     1       1.848   7.569  20.427  0.00  0.00    +0.000 A 
ATOM     24  C   UNL     1       2.607   7.114  19.350  0.00  0.00    +0.000 A 
ATOM     25  C   UNL     1       2.435   7.687  18.096  0.00  0.00    +0.000 A 
ATOM     26  C   UNL     1       1.611   8.808  17.940  0.00  0.00    +0.000 A 
BRANCH  24  27
ATOM     27  N   UNL     1       3.657   6.165  19.508  0.00  0.00    +0.000 N 
ATOM     28  H   UNL     1       4.271   6.306  20.312  0.00  0.00    +0.000 HD
BRANCH  27  29
ATOM     29  S   UNL     1       3.367   4.528  19.263  0.00  0.00    +0.000 S 
ATOM     30  O   UNL     1       4.582   3.863  19.691  0.00  0.00    +0.000 OA
ATOM     31  O   UNL     1       2.076   4.181  19.818  0.00  0.00    +0.000 OA
BRANCH  29  32
ATOM     32  C   UNL     1       3.287   4.446  17.467  0.00  0.00    +0.000 C 
BRANCH  32  33
ATOM     33  C   UNL     1       4.572   3.845  16.905  0.00  0.00    +0.000 C 
BRANCH  33  34
ATOM     34  C   UNL     1       5.455   4.876  16.197  0.00  0.00    +0.000 C 
BRANCH  34  35
ATOM     35  C   UNL     1       6.893   4.802  16.719  0.00  0.00    +0.000 C 
BRANCH  35  36
ATOM     36  N   UNL     1       6.927   4.204  18.046  0.00  0.00    +0.000 NA
ATOM     37  H   UNL     1       7.677   3.515  18.098  0.00  0.00    +0.000 HD
ATOM     38  H   UNL     1       6.063   3.685  18.202  0.00  0.00    +0.000 HD
ENDBRANCH  35  36
ENDBRANCH  34  35
ENDBRANCH  33  34
ENDBRANCH  32  33
ENDBRANCH  29  32
ENDBRANCH  27  29
ENDBRANCH  24  27
ENDBRANCH   1  21
TORSDOF 10
ENDMDL
MODEL 2
REMARK VINA RESULT:      -8.0      1.501      2.292
REMARK  Name = 
REMARK  11 active torsions:
REMARK  status: ('A' for Active; 'I' for Inactive)
REMARK    1  A    between atoms: C_1  and  N_2
REMARK    2  A    between atoms: C_9  and  N_10
REMARK    3  A    between atoms: N_10  and  C_11
REMARK    4  A    between atoms: C_14  and  N_15
REMARK    5  A    between atoms: N_15  and  S_16
REMARK    6  A    between atoms: S_16  and  C_19
REMARK    7  A    between atoms: C_19  and  C_20
REMARK    8  A    between atoms: C_20  and  C_21
REMARK    9  A    between atoms: C_21  and  C_22
REMARK   10  A    between atoms: C_22  and  N_23
REMARK   11  A    between atoms: C_29  and  N_30
REMARK                            x       y       z     vdW  Elec       q    Type
REMARK                         _______ _______ _______ _____ _____    ______ ____
ROOT
ATOM      1  N   UNL     1       0.391  10.786  19.087  0.00  0.00    +0.000 N 
ATOM      2  H   UNL     1       1.040  11.470  19.471  0.00  0.00    +0.000 HD
ENDROOT
BRANCH   1  11
ATOM      3  C   UNL     1      -4.920  12.812  19.713  0.00  0.00    +0.000 C 
ATOM      4  N   UNL     1      -3.558  12.243  19.522  0.00  0.00    +0.000 N 
ATOM      5  C   UNL     1      -3.231  11.571  18.369  0.00  0.00    +0.000 A 
ATOM      6  C   UNL     1      -4.118  11.476  17.264  0.00  0.00    +0.000 A 
ATOM      7  C   UNL     1      -3.815  10.740  16.119  0.00  0.00    +0.000 A 
ATOM      8  C   UNL     1      -2.645  10.017  16.070  0.00  0.00    +0.000 A 
ATOM      9  C   UNL     1      -1.759  10.091  17.139  0.00  0.00    +0.000 A 
ATOM     10  C   UNL     1      -1.967  10.944  18.257  0.00  0.00    +0.000 A 
ATOM     11  C   UNL     1      -0.980  11.180  19.254  0.00  0.00    +0.000 A 
ATOM     12  C   UNL     1      -1.353  11.859  20.444  0.00  0.00    +0.000 A 
ATOM     13  C   UNL     1      -0.467  12.079  21.529  0.00  0.00    +0.000 A 
ATOM     14  C   UNL     1      -0.857  12.755  22.693  0.00  0.00    +0.000 A 
ATOM     15  C   UNL     1      -2.161  13.215  22.840  0.00  0.00    +0.000 A 
ATOM     16  C   UNL     1      -3.026  13.058  21.755  0.00  0.00    +0.000 A 
ATOM     17  C   UNL     1      -2.666  12.376  20.560  0.00  0.00    +0.000 A 
BRANCH  15  18
ATOM     18  N   UNL     1      -2.524  14.026  23.909  0.00  0.00    +0.000 N 
ATOM     19  H   UNL     1      -1.982  13.900  24.761  0.00  0.00    +0.000 HD
ATOM     20  H   UNL     1      -3.516  14.110  24.110  0.00  0.00    +0.000 HD
ENDBRANCH  15  18
ENDBRANCH   1  11
BRANCH   1  21
ATOM     21  C   UNL     1       0.946   9.480  19.021  0.00  0.00    +0.000 A 
ATOM     22  C   UNL     1       1.094   8.672  20.161  0.00  0.00    +0.000 A 
ATOM     23  C   UNL     1       1.942   7.554  20.144  0.00  0.00    +0.000 A 
ATOM     24  C   UNL     1       2.601   7.205  18.967  0.00  0.00    +0.000 A 
ATOM     25  C   UNL     1       2.322   7.893  17.792  0.00  0.00    +0.000 A 
ATOM     26  C   UNL     1       1.493   9.020  17.816  0.00  0.00    +0.000 A 
BRANCH  24  27
ATOM     27  N   UNL     1       3.658   6.250  18.943  0.00  0.00    +0.000 N 
ATOM     28  H   UNL     1       4.118   6.068  19.836  0.00  0.00    +0.000 HD
BRANCH  27  29
ATOM     29  S   UNL     1       3.498   4.830  18.058  0.00  0.00    +0.000 S 
ATOM     30  O   UNL     1       2.070   4.598  17.975  0.00  0.00    +0.000 OA
ATOM     31  O   UNL     1       4.325   4.907  16.873  0.00  0.00    +0.000 OA
BRANCH  29  32
ATOM     32  C   UNL     1       4.195   3.623  19.196  0.00  0.00    +0.000 C 
BRANCH  32  33
ATOM     33  C   UNL     1       3.150   2.573  19.562  0.00  0.00    +0.000 C 
BRANCH  33  34
ATOM     34  C   UNL     1       2.725   2.638  21.031  0.00  0.00    +0.000 C 
BRANCH  34  35
ATOM     35  C   UNL     1       1.971   3.940  21.316  0.00  0.00    +0.000 C 
BRANCH  35  36
ATOM     36  N   UNL     1       0.757   4.015  20.515  0.00  0.00    +0.000 NA
ATOM     37  H   UNL     1       0.543   3.099  20.122  0.00  0.00    +0.000 HD
ATOM     38  H   UNL     1       0.919   4.629  19.716  0.00  0.00    +0.000 HD
ENDBRANCH  35  36
ENDBRANCH  34  35
ENDBRANCH  33  34
ENDBRANCH  32  33
ENDBRANCH  29  32
ENDBRANCH  27  29
ENDBRANCH  24  27
ENDBRANCH   1  21
TORSDOF 10
ENDMDL
MODEL 3
REMARK VINA RESULT:      -7.9      3.767      9.504
REMARK  Name = 
REMARK  11 active torsions:
REMARK  status: ('A' for Active; 'I' for Inactive)
REMARK    1  A    between atoms: C_1  and  N_2
REMARK    2  A    between atoms: C_9  and  N_10
REMARK    3  A    between atoms: N_10  and  C_11
REMARK    4  A    between atoms: C_14  and  N_15
REMARK    5  A    between atoms: N_15  and  S_16
REMARK    6  A    between atoms: S_16  and  C_19
REMARK    7  A    between atoms: C_19  and  C_20
REMARK    8  A    between atoms: C_20  and  C_21
REMARK    9  A    between atoms: C_21  and  C_22
REMARK   10  A    between atoms: C_22  and  N_23
REMARK   11  A    between atoms: C_29  and  N_30
REMARK                            x       y       z     vdW  Elec       q    Type
REMARK                         _______ _______ _______ _____ _____    ______ ____
ROOT
ATOM      1  N   UNL     1       3.033   7.079  19.762  0.00  0.00    +0.000 N 
ATOM      2  H   UNL     1       3.933   7.506  19.979  0.00  0.00    +0.000 HD
ENDROOT
BRANCH   1  11
ATOM      3  C   UNL     1       4.062   1.982  17.382  0.00  0.00    +0.000 C 
ATOM      4  N   UNL     1       3.744   3.291  18.015  0.00  0.00    +0.000 N 
ATOM      5  C   UNL     1       2.944   3.359  19.130  0.00  0.00    +0.000 A 
ATOM      6  C   UNL     1       2.470   2.200  19.799  0.00  0.00    +0.000 A 
ATOM      7  C   UNL     1       1.604   2.265  20.891  0.00  0.00    +0.000 A 
ATOM      8  C   UNL     1       1.129   3.488  21.305  0.00  0.00    +0.000 A 
ATOM      9  C   UNL     1       1.576   4.639  20.666  0.00  0.00    +0.000 A 
ATOM     10  C   UNL     1       2.567   4.622  19.647  0.00  0.00    +0.000 A 
ATOM     11  C   UNL     1       3.176   5.798  19.129  0.00  0.00    +0.000 A 
ATOM     12  C   UNL     1       3.982   5.700  17.964  0.00  0.00    +0.000 A 
ATOM     13  C   UNL     1       4.572   6.820  17.325  0.00  0.00    +0.000 A 
ATOM     14  C   UNL     1       5.366   6.698  16.177  0.00  0.00    +0.000 A 
ATOM     15  C   UNL     1       5.581   5.453  15.595  0.00  0.00    +0.000 A 
ATOM     16  C   UNL     1       5.056   4.337  16.248  0.00  0.00    +0.000 A 
ATOM     17  C   UNL     1       4.244   4.423  17.413  0.00  0.00    +0.000 A 
BRANCH  15  18
ATOM     18  N   UNL     1       6.492   5.289  14.559  0.00  0.00    +0.000 N 
ATOM     19  H   UNL     1       7.254   5.964  14.530  0.00  0.00    +0.000 HD
ATOM     20  H   UNL     1       6.113   5.121  13.631  0.00  0.00    +0.000 HD
ENDBRANCH  15  18
ENDBRANCH   1  11
BRANCH   1  21
ATOM     21  C   UNL     1       1.992   8.035  19.626  0.00  0.00    +0.000 A 
ATOM     22  C   UNL     1       1.869   8.850  18.487  0.00  0.00    +0.000 A 
ATOM     23  C   UNL     1       1.069  10.002  18.512  0.00  0.00    +0.000 A 
ATOM     24  C   UNL     1       0.342  10.314  19.659  0.00  0.00    +0.000 A 
ATOM     25  C   UNL     1       0.320   9.421  20.724  0.00  0.00    +0.000 A 
ATOM     26  C   UNL     1       1.135   8.284  20.706  0.00  0.00    +0.000 A 
BRANCH  24  27
ATOM     27  N   UNL     1      -0.280  11.582  19.843  0.00  0.00    +0.000 N 
ATOM     28  H   UNL     1       0.340  12.352  20.102  0.00  0.00    +0.000 HD
BRANCH  27  29
ATOM     29  S   UNL     1      -1.464  12.110  18.773  0.00  0.00    +0.000 S 
ATOM     30  O   UNL     1      -2.600  12.448  19.608  0.00  0.00    +0.000 OA
ATOM     31  O   UNL     1      -0.888  13.065  17.851  0.00  0.00    +0.000 OA
BRANCH  29  32
ATOM     32  C   UNL     1      -1.851  10.589  17.893  0.00  0.00    +0.000 C 
BRANCH  32  33
ATOM     33  C   UNL     1      -3.305  10.598  17.430  0.00  0.00    +0.000 C 
BRANCH  33  34
ATOM     34  C   UNL     1      -3.465  11.019  15.967  0.00  0.00    +0.000 C 
BRANCH  34  35
ATOM     35  C   UNL     1      -3.050   9.880  15.030  0.00  0.00    +0.000 C 
BRANCH  35  36
ATOM     36  N   UNL     1      -3.283  10.249  13.641  0.00  0.00    +0.000 NA
ATOM     37  H   UNL     1      -2.429  10.118  13.099  0.00  0.00    +0.000 HD
ATOM     38  H   UNL     1      -3.494  11.245  13.589  0.00  0.00    +0.000 HD
ENDBRANCH  35  36
ENDBRANCH  34  35
ENDBRANCH  33  34
ENDBRANCH  32  33
ENDBRANCH  29  32
ENDBRANCH  27  29
ENDBRANCH  24  27
ENDBRANCH   1  21
TORSDOF 10
ENDMDL
MODEL 4
REMARK VINA RESULT:      -7.9      0.908      1.040
REMARK  Name = 
REMARK  11 active torsions:
REMARK  status: ('A' for Active; 'I' for Inactive)
REMARK    1  A    between atoms: C_1  and  N_2
REMARK    2  A    between atoms: C_9  and  N_10
REMARK    3  A    between atoms: N_10  and  C_11
REMARK    4  A    between atoms: C_14  and  N_15
REMARK    5  A    between atoms: N_15  and  S_16
REMARK    6  A    between atoms: S_16  and  C_19
REMARK    7  A    between atoms: C_19  and  C_20
REMARK    8  A    between atoms: C_20  and  C_21
REMARK    9  A    between atoms: C_21  and  C_22
REMARK   10  A    between atoms: C_22  and  N_23
REMARK   11  A    between atoms: C_29  and  N_30
REMARK                            x       y       z     vdW  Elec       q    Type
REMARK                         _______ _______ _______ _____ _____    ______ ____
ROOT
ATOM      1  N   UNL     1       0.372  10.666  18.897  0.00  0.00    +0.000 N 
ATOM      2  H   UNL     1       1.039  11.405  19.112  0.00  0.00    +0.000 HD
ENDROOT
BRANCH   1  11
ATOM      3  C   UNL     1      -4.888  12.784  19.632  0.00  0.00    +0.000 C 
ATOM      4  N   UNL     1      -3.541  12.191  19.412  0.00  0.00    +0.000 N 
ATOM      5  C   UNL     1      -3.243  11.534  18.243  0.00  0.00    +0.000 A 
ATOM      6  C   UNL     1      -4.146  11.477  17.149  0.00  0.00    +0.000 A 
ATOM      7  C   UNL     1      -3.873  10.756  15.986  0.00  0.00    +0.000 A 
ATOM      8  C   UNL     1      -2.718  10.011  15.908  0.00  0.00    +0.000 A 
ATOM      9  C   UNL     1      -1.816  10.049  16.967  0.00  0.00    +0.000 A 
ATOM     10  C   UNL     1      -1.992  10.885  18.103  0.00  0.00    +0.000 A 
ATOM     11  C   UNL     1      -0.988  11.084  19.090  0.00  0.00    +0.000 A 
ATOM     12  C   UNL     1      -1.332  11.748  20.297  0.00  0.00    +0.000 A 
ATOM     13  C   UNL     1      -0.427  11.931  21.374  0.00  0.00    +0.000 A 
ATOM     14  C   UNL     1      -0.788  12.593  22.554  0.00  0.00    +0.000 A 
ATOM     15  C   UNL     1      -2.081  13.076  22.727  0.00  0.00    +0.000 A 
ATOM     16  C   UNL     1      -2.963  12.955  21.652  0.00  0.00    +0.000 A 
ATOM     17  C   UNL     1      -2.632  12.289  20.440  0.00  0.00    +0.000 A 
BRANCH  15  18
ATOM     18  N   UNL     1      -2.413  13.874  23.815  0.00  0.00    +0.000 N 
ATOM     19  H   UNL     1      -2.208  14.866  23.714  0.00  0.00    +0.000 HD
ATOM     20  H   UNL     1      -2.150  13.534  24.736  0.00  0.00    +0.000 HD
ENDBRANCH  15  18
ENDBRANCH   1  11
BRANCH   1  21
ATOM     21  C   UNL     1       0.936   9.368  19.017  0.00  0.00    +0.000 A 
ATOM     22  C   UNL     1       0.877   8.634  20.214  0.00  0.00    +0.000 A 
ATOM     23  C   UNL     1       1.719   7.531  20.423  0.00  0.00    +0.000 A 
ATOM     24  C   UNL     1       2.585   7.122  19.412  0.00  0.00    +0.000 A 
ATOM     25  C   UNL     1       2.523   7.732  18.165  0.00  0.00    +0.000 A 
ATOM     26  C   UNL     1       1.699   8.845  17.964  0.00  0.00    +0.000 A 
BRANCH  24  27
ATOM     27  N   UNL     1       3.633   6.185  19.642  0.00  0.00    +0.000 N 
ATOM     28  H   UNL     1       4.119   6.267  20.536  0.00  0.00    +0.000 HD
BRANCH  27  29
ATOM     29  S   UNL     1       3.435   4.570  19.222  0.00  0.00    +0.000 S 
ATOM     30  O   UNL     1       3.038   3.909  20.449  0.00  0.00    +0.000 OA
ATOM     31  O   UNL     1       2.635   4.481  18.018  0.00  0.00    +0.000 OA
BRANCH  29  32
ATOM     32  C   UNL     1       5.128   4.089  18.850  0.00  0.00    +0.000 C 
BRANCH  32  33
ATOM     33  C   UNL     1       6.085   5.239  19.153  0.00  0.00    +0.000 C 
BRANCH  33  34
ATOM     34  C   UNL     1       6.701   5.854  17.893  0.00  0.00    +0.000 C 
BRANCH  34  35
ATOM     35  C   UNL     1       7.133   4.757  16.916  0.00  0.00    +0.000 C 
BRANCH  35  36
ATOM     36  N   UNL     1       7.457   5.328  15.616  0.00  0.00    +0.000 NA
ATOM     37  H   UNL     1       7.160   6.302  15.580  0.00  0.00    +0.000 HD
ATOM     38  H   UNL     1       6.918   4.847  14.895  0.00  0.00    +0.000 HD
ENDBRANCH  35  36
ENDBRANCH  34  35
ENDBRANCH  33  34
ENDBRANCH  32  33
ENDBRANCH  29  32
ENDBRANCH  27  29
ENDBRANCH  24  27
ENDBRANCH   1  21
TORSDOF 10
ENDMDL
MODEL 5
REMARK VINA RESULT:      -7.9      3.643      9.443
REMARK  Name = 
REMARK  11 active torsions:
REMARK  status: ('A' for Active; 'I' for Inactive)
REMARK    1  A    between atoms: C_1  and  N_2
REMARK    2  A    between atoms: C_9  and  N_10
REMARK    3  A    between atoms: N_10  and  C_11
REMARK    4  A    between atoms: C_14  and  N_15
REMARK    5  A    between atoms: N_15  and  S_16
REMARK    6  A    between atoms: S_16  and  C_19
REMARK    7  A    between atoms: C_19  and  C_20
REMARK    8  A    between atoms: C_20  and  C_21
REMARK    9  A    between atoms: C_21  and  C_22
REMARK   10  A    between atoms: C_22  and  N_23
REMARK   11  A    between atoms: C_29  and  N_30
REMARK                            x       y       z     vdW  Elec       q    Type
REMARK                         _______ _______ _______ _____ _____    ______ ____
ROOT
ATOM      1  N   UNL     1       3.102   7.124  19.701  0.00  0.00    +0.000 N 
ATOM      2  H   UNL     1       4.021   7.479  19.959  0.00  0.00    +0.000 HD
ENDROOT
BRANCH   1  11
ATOM      3  C   UNL     1       3.849   2.049  17.174  0.00  0.00    +0.000 C 
ATOM      4  N   UNL     1       3.604   3.355  17.844  0.00  0.00    +0.000 N 
ATOM      5  C   UNL     1       2.790   3.438  18.948  0.00  0.00    +0.000 A 
ATOM      6  C   UNL     1       2.232   2.291  19.572  0.00  0.00    +0.000 A 
ATOM      7  C   UNL     1       1.353   2.377  20.652  0.00  0.00    +0.000 A 
ATOM      8  C   UNL     1       0.948   3.613  21.098  0.00  0.00    +0.000 A 
ATOM      9  C   UNL     1       1.478   4.754  20.503  0.00  0.00    +0.000 A 
ATOM     10  C   UNL     1       2.484   4.706  19.500  0.00  0.00    +0.000 A 
ATOM     11  C   UNL     1       3.175   5.856  19.030  0.00  0.00    +0.000 A 
ATOM     12  C   UNL     1       3.993   5.744  17.874  0.00  0.00    +0.000 A 
ATOM     13  C   UNL     1       4.664   6.844  17.281  0.00  0.00    +0.000 A 
ATOM     14  C   UNL     1       5.468   6.707  16.142  0.00  0.00    +0.000 A 
ATOM     15  C   UNL     1       5.615   5.470  15.524  0.00  0.00    +0.000 A 
ATOM     16  C   UNL     1       5.009   4.370  16.133  0.00  0.00    +0.000 A 
ATOM     17  C   UNL     1       4.184   4.470  17.287  0.00  0.00    +0.000 A 
BRANCH  15  18
ATOM     18  N   UNL     1       6.532   5.282  14.497  0.00  0.00    +0.000 N 
ATOM     19  H   UNL     1       7.225   4.552  14.652  0.00  0.00    +0.000 HD
ATOM     20  H   UNL     1       6.955   6.114  14.096  0.00  0.00    +0.000 HD
ENDBRANCH  15  18
ENDBRANCH   1  11
BRANCH   1  21
ATOM     21  C   UNL     1       2.134   8.155  19.566  0.00  0.00    +0.000 A 
ATOM     22  C   UNL     1       1.307   8.548  20.632  0.00  0.00    +0.000 A 
ATOM     23  C   UNL     1       0.147   9.303  20.400  0.00  0.00    +0.000 A 
ATOM     24  C   UNL     1      -0.160   9.716  19.105  0.00  0.00    +0.000 A 
ATOM     25  C   UNL     1       0.743   9.483  18.075  0.00  0.00    +0.000 A 
ATOM     26  C   UNL     1       1.889   8.712  18.304  0.00  0.00    +0.000 A 
BRANCH  24  27
ATOM     27  N   UNL     1      -1.432  10.257  18.762  0.00  0.00    +0.000 N 
ATOM     28  H   UNL     1      -2.243   9.688  19.010  0.00  0.00    +0.000 HD
BRANCH  27  29
ATOM     29  S   UNL     1      -1.756  11.888  19.010  0.00  0.00    +0.000 S 
ATOM     30  O   UNL     1      -1.527  12.105  20.425  0.00  0.00    +0.000 OA
ATOM     31  O   UNL     1      -1.076  12.672  18.001  0.00  0.00    +0.000 OA
BRANCH  29  32
ATOM     32  C   UNL     1      -3.531  11.946  18.717  0.00  0.00    +0.000 C 
BRANCH  32  33
ATOM     33  C   UNL     1      -3.981  10.713  17.940  0.00  0.00    +0.000 C 
BRANCH  33  34
ATOM     34  C   UNL     1      -4.370  11.025  16.492  0.00  0.00    +0.000 C 
BRANCH  34  35
ATOM     35  C   UNL     1      -3.135  10.999  15.586  0.00  0.00    +0.000 C 
BRANCH  35  36
ATOM     36  N   UNL     1      -2.337   9.808  15.842  0.00  0.00    +0.000 NA
ATOM     37  H   UNL     1      -2.915   9.089  16.276  0.00  0.00    +0.000 HD
ATOM     38  H   UNL     1      -1.611  10.030  16.523  0.00  0.00    +0.000 HD
ENDBRANCH  35  36
ENDBRANCH  34  35
ENDBRANCH  33  34
ENDBRANCH  32  33
ENDBRANCH  29  32
ENDBRANCH  27  29
ENDBRANCH  24  27
ENDBRANCH   1  21
TORSDOF 10
ENDMDL
MODEL 6
REMARK VINA RESULT:      -7.8      3.461      9.928
REMARK  Name = 
REMARK  11 active torsions:
REMARK  status: ('A' for Active; 'I' for Inactive)
REMARK    1  A    between atoms: C_1  and  N_2
REMARK    2  A    between atoms: C_9  and  N_10
REMARK    3  A    between atoms: N_10  and  C_11
REMARK    4  A    between atoms: C_14  and  N_15
REMARK    5  A    between atoms: N_15  and  S_16
REMARK    6  A    between atoms: S_16  and  C_19
REMARK    7  A    between atoms: C_19  and  C_20
REMARK    8  A    between atoms: C_20  and  C_21
REMARK    9  A    between atoms: C_21  and  C_22
REMARK   10  A    between atoms: C_22  and  N_23
REMARK   11  A    between atoms: C_29  and  N_30
REMARK                            x       y       z     vdW  Elec       q    Type
REMARK                         _______ _______ _______ _____ _____    ______ ____
ROOT
ATOM      1  N   UNL     1       3.113   7.048  19.658  0.00  0.00    +0.000 N 
ATOM      2  H   UNL     1       4.021   7.487  19.800  0.00  0.00    +0.000 HD
ENDROOT
BRANCH   1  11
ATOM      3  C   UNL     1       4.003   1.915  17.299  0.00  0.00    +0.000 C 
ATOM      4  N   UNL     1       3.722   3.235  17.928  0.00  0.00    +0.000 N 
ATOM      5  C   UNL     1       2.940   3.326  19.054  0.00  0.00    +0.000 A 
ATOM      6  C   UNL     1       2.455   2.181  19.739  0.00  0.00    +0.000 A 
ATOM      7  C   UNL     1       1.608   2.270  20.845  0.00  0.00    +0.000 A 
ATOM      8  C   UNL     1       1.163   3.505  21.257  0.00  0.00    +0.000 A 
ATOM      9  C   UNL     1       1.622   4.643  20.602  0.00  0.00    +0.000 A 
ATOM     10  C   UNL     1       2.597   4.599  19.568  0.00  0.00    +0.000 A 
ATOM     11  C   UNL     1       3.220   5.759  19.033  0.00  0.00    +0.000 A 
ATOM     12  C   UNL     1       4.005   5.637  17.855  0.00  0.00    +0.000 A 
ATOM     13  C   UNL     1       4.607   6.741  17.199  0.00  0.00    +0.000 A 
ATOM     14  C   UNL     1       5.379   6.596  16.040  0.00  0.00    +0.000 A 
ATOM     15  C   UNL     1       5.561   5.343  15.463  0.00  0.00    +0.000 A 
ATOM     16  C   UNL     1       5.024   4.242  16.133  0.00  0.00    +0.000 A 
ATOM     17  C   UNL     1       4.234   4.352  17.309  0.00  0.00    +0.000 A 
BRANCH  15  18
ATOM     18  N   UNL     1       6.452   5.155  14.414  0.00  0.00    +0.000 N 
ATOM     19  H   UNL     1       6.261   4.357  13.810  0.00  0.00    +0.000 HD
ATOM     20  H   UNL     1       7.443   5.227  14.629  0.00  0.00    +0.000 HD
ENDBRANCH  15  18
ENDBRANCH   1  11
BRANCH   1  21
ATOM     21  C   UNL     1       2.053   7.991  19.591  0.00  0.00    +0.000 A 
ATOM     22  C   UNL     1       1.812   8.764  18.441  0.00  0.00    +0.000 A 
ATOM     23  C   UNL     1       1.007   9.911  18.503  0.00  0.00    +0.000 A 
ATOM     24  C   UNL     1       0.393  10.260  19.704  0.00  0.00    +0.000 A 
ATOM     25  C   UNL     1       0.483   9.406  20.796  0.00  0.00    +0.000 A 
ATOM     26  C   UNL     1       1.303   8.273  20.740  0.00  0.00    +0.000 A 
BRANCH  24  27
ATOM     27  N   UNL     1      -0.221  11.530  19.902  0.00  0.00    +0.000 N 
ATOM     28  H   UNL     1       0.414  12.325  19.991  0.00  0.00    +0.000 HD
BRANCH  27  29
ATOM     29  S   UNL     1      -1.589  11.959  19.024  0.00  0.00    +0.000 S 
ATOM     30  O   UNL     1      -1.138  12.985  18.105  0.00  0.00    +0.000 OA
ATOM     31  O   UNL     1      -2.255  10.761  18.558  0.00  0.00    +0.000 OA
BRANCH  29  32
ATOM     32  C   UNL     1      -2.593  12.746  20.293  0.00  0.00    +0.000 C 
BRANCH  32  33
ATOM     33  C   UNL     1      -1.804  12.869  21.594  0.00  0.00    +0.000 C 
BRANCH  33  34
ATOM     34  C   UNL     1      -2.432  12.087  22.751  0.00  0.00    +0.000 C 
BRANCH  34  35
ATOM     35  C   UNL     1      -3.788  12.688  23.132  0.00  0.00    +0.000 C 
BRANCH  35  36
ATOM     36  N   UNL     1      -4.287  12.087  24.361  0.00  0.00    +0.000 NA
ATOM     37  H   UNL     1      -3.802  12.486  25.165  0.00  0.00    +0.000 HD
ATOM     38  H   UNL     1      -4.059  11.093  24.366  0.00  0.00    +0.000 HD
ENDBRANCH  35  36
ENDBRANCH  34  35
ENDBRANCH  33  34
ENDBRANCH  32  33
ENDBRANCH  29  32
ENDBRANCH  27  29
ENDBRANCH  24  27
ENDBRANCH   1  21
TORSDOF 10
ENDMDL
MODEL 7
REMARK VINA RESULT:      -7.8      3.716      9.736
REMARK  Name = 
REMARK  11 active torsions:
REMARK  status: ('A' for Active; 'I' for Inactive)
REMARK    1  A    between atoms: C_1  and  N_2
REMARK    2  A    between atoms: C_9  and  N_10
REMARK    3  A    between atoms: N_10  and  C_11
REMARK    4  A    between atoms: C_14  and  N_15
REMARK    5  A    between atoms: N_15  and  S_16
REMARK    6  A    between atoms: S_16  and  C_19
REMARK    7  A    between atoms: C_19  and  C_20
REMARK    8  A    between atoms: C_20  and  C_21
REMARK    9  A    between atoms: C_21  and  C_22
REMARK   10  A    between atoms: C_22  and  N_23
REMARK   11  A    between atoms: C_29  and  N_30
REMARK                            x       y       z     vdW  Elec       q    Type
REMARK                         _______ _______ _______ _____ _____    ______ ____
ROOT
ATOM      1  N   UNL     1       3.138   6.886  19.680  0.00  0.00    +0.000 N 
ATOM      2  H   UNL     1       4.022   7.277  20.000  0.00  0.00    +0.000 HD
ENDROOT
BRANCH   1  11
ATOM      3  C   UNL     1       4.263   1.914  17.090  0.00  0.00    +0.000 C 
ATOM      4  N   UNL     1       3.918   3.193  17.768  0.00  0.00    +0.000 N 
ATOM      5  C   UNL     1       2.948   3.235  18.740  0.00  0.00    +0.000 A 
ATOM      6  C   UNL     1       2.305   2.066  19.227  0.00  0.00    +0.000 A 
ATOM      7  C   UNL     1       1.274   2.112  20.166  0.00  0.00    +0.000 A 
ATOM      8  C   UNL     1       0.805   3.332  20.596  0.00  0.00    +0.000 A 
ATOM      9  C   UNL     1       1.417   4.493  20.133  0.00  0.00    +0.000 A 
ATOM     10  C   UNL     1       2.561   4.481  19.291  0.00  0.00    +0.000 A 
ATOM     11  C   UNL     1       3.313   5.646  18.976  0.00  0.00    +0.000 A 
ATOM     12  C   UNL     1       4.294   5.577  17.952  0.00  0.00    +0.000 A 
ATOM     13  C   UNL     1       5.045   6.696  17.511  0.00  0.00    +0.000 A 
ATOM     14  C   UNL     1       6.010   6.603  16.500  0.00  0.00    +0.000 A 
ATOM     15  C   UNL     1       6.250   5.391  15.861  0.00  0.00    +0.000 A 
ATOM     16  C   UNL     1       5.562   4.270  16.328  0.00  0.00    +0.000 A 
ATOM     17  C   UNL     1       4.574   4.327  17.349  0.00  0.00    +0.000 A 
BRANCH  15  18
ATOM     18  N   UNL     1       7.311   5.240  14.976  0.00  0.00    +0.000 N 
ATOM     19  H   UNL     1       7.107   4.712  14.129  0.00  0.00    +0.000 HD
ATOM     20  H   UNL     1       8.208   4.974  15.371  0.00  0.00    +0.000 HD
ENDBRANCH  15  18
ENDBRANCH   1  11
BRANCH   1  21
ATOM     21  C   UNL     1       2.128   7.872  19.521  0.00  0.00    +0.000 A 
ATOM     22  C   UNL     1       2.011   8.641  18.349  0.00  0.00    +0.000 A 
ATOM     23  C   UNL     1       1.254   9.822  18.338  0.00  0.00    +0.000 A 
ATOM     24  C   UNL     1       0.562  10.209  19.484  0.00  0.00    +0.000 A 
ATOM     25  C   UNL     1       0.530   9.365  20.587  0.00  0.00    +0.000 A 
ATOM     26  C   UNL     1       1.303   8.199  20.604  0.00  0.00    +0.000 A 
BRANCH  24  27
ATOM     27  N   UNL     1      -0.011  11.506  19.623  0.00  0.00    +0.000 N 
ATOM     28  H   UNL     1       0.649  12.283  19.685  0.00  0.00    +0.000 HD
BRANCH  27  29
ATOM     29  S   UNL     1      -1.356  11.942  18.713  0.00  0.00    +0.000 S 
ATOM     30  O   UNL     1      -2.411  12.155  19.684  0.00  0.00    +0.000 OA
ATOM     31  O   UNL     1      -0.980  12.966  17.762  0.00  0.00    +0.000 OA
BRANCH  29  32
ATOM     32  C   UNL     1      -1.703  10.410  17.837  0.00  0.00    +0.000 C 
BRANCH  32  33
ATOM     33  C   UNL     1      -3.210  10.204  17.703  0.00  0.00    +0.000 C 
BRANCH  33  34
ATOM     34  C   UNL     1      -3.845  11.101  16.638  0.00  0.00    +0.000 C 
BRANCH  34  35
ATOM     35  C   UNL     1      -5.182  11.660  17.133  0.00  0.00    +0.000 C 
BRANCH  35  36
ATOM     36  N   UNL     1      -4.971  12.618  18.209  0.00  0.00    +0.000 NA
ATOM     37  H   UNL     1      -4.723  13.527  17.821  0.00  0.00    +0.000 HD
ATOM     38  H   UNL     1      -4.168  12.325  18.767  0.00  0.00    +0.000 HD
ENDBRANCH  35  36
ENDBRANCH  34  35
ENDBRANCH  33  34
ENDBRANCH  32  33
ENDBRANCH  29  32
ENDBRANCH  27  29
ENDBRANCH  24  27
ENDBRANCH   1  21
TORSDOF 10
ENDMDL
MODEL 8
REMARK VINA RESULT:      -7.8      0.641      1.100
REMARK  Name = 
REMARK  11 active torsions:
REMARK  status: ('A' for Active; 'I' for Inactive)
REMARK    1  A    between atoms: C_1  and  N_2
REMARK    2  A    between atoms: C_9  and  N_10
REMARK    3  A    between atoms: N_10  and  C_11
REMARK    4  A    between atoms: C_14  and  N_15
REMARK    5  A    between atoms: N_15  and  S_16
REMARK    6  A    between atoms: S_16  and  C_19
REMARK    7  A    between atoms: C_19  and  C_20
REMARK    8  A    between atoms: C_20  and  C_21
REMARK    9  A    between atoms: C_21  and  C_22
REMARK   10  A    between atoms: C_22  and  N_23
REMARK   11  A    between atoms: C_29  and  N_30
REMARK                            x       y       z     vdW  Elec       q    Type
REMARK                         _______ _______ _______ _____ _____    ______ ____
ROOT
ATOM      1  N   UNL     1       0.582  10.878  18.763  0.00  0.00    +0.000 N 
ATOM      2  H   UNL     1       1.191  11.694  18.816  0.00  0.00    +0.000 HD
ENDROOT
BRANCH   1  11
ATOM      3  C   UNL     1      -4.770  12.643  19.732  0.00  0.00    +0.000 C 
ATOM      4  N   UNL     1      -3.397  12.140  19.455  0.00  0.00    +0.000 N 
ATOM      5  C   UNL     1      -3.121  11.446  18.302  0.00  0.00    +0.000 A 
ATOM      6  C   UNL     1      -4.082  11.265  17.272  0.00  0.00    +0.000 A 
ATOM      7  C   UNL     1      -3.825  10.505  16.130  0.00  0.00    +0.000 A 
ATOM      8  C   UNL     1      -2.624   9.844  16.014  0.00  0.00    +0.000 A 
ATOM      9  C   UNL     1      -1.665  10.003  17.010  0.00  0.00    +0.000 A 
ATOM     10  C   UNL     1      -1.835  10.883  18.113  0.00  0.00    +0.000 A 
ATOM     11  C   UNL     1      -0.792  11.206  19.023  0.00  0.00    +0.000 A 
ATOM     12  C   UNL     1      -1.111  11.906  20.216  0.00  0.00    +0.000 A 
ATOM     13  C   UNL     1      -0.160  12.211  21.223  0.00  0.00    +0.000 A 
ATOM     14  C   UNL     1      -0.499  12.906  22.391  0.00  0.00    +0.000 A 
ATOM     15  C   UNL     1      -1.812  13.302  22.623  0.00  0.00    +0.000 A 
ATOM     16  C   UNL     1      -2.745  13.061  21.614  0.00  0.00    +0.000 A 
ATOM     17  C   UNL     1      -2.438  12.357  20.417  0.00  0.00    +0.000 A 
BRANCH  15  18
ATOM     18  N   UNL     1      -2.137  14.130  23.691  0.00  0.00    +0.000 N 
ATOM     19  H   UNL     1      -1.351  14.469  24.242  0.00  0.00    +0.000 HD
ATOM     20  H   UNL     1      -2.907  13.837  24.286  0.00  0.00    +0.000 HD
ENDBRANCH  15  18
ENDBRANCH   1  11
BRANCH   1  21
ATOM     21  C   UNL     1       1.275   9.662  19.004  0.00  0.00    +0.000 A 
ATOM     22  C   UNL     1       1.898   8.939  17.972  0.00  0.00    +0.000 A 
ATOM     23  C   UNL     1       2.267   7.598  18.155  0.00  0.00    +0.000 A 
ATOM     24  C   UNL     1       2.066   6.990  19.392  0.00  0.00    +0.000 A 
ATOM     25  C   UNL     1       1.614   7.747  20.466  0.00  0.00    +0.000 A 
ATOM     26  C   UNL     1       1.226   9.078  20.277  0.00  0.00    +0.000 A 
BRANCH  24  27
ATOM     27  N   UNL     1       2.178   5.581  19.573  0.00  0.00    +0.000 N 
ATOM     28  H   UNL     1       1.390   5.022  19.240  0.00  0.00    +0.000 HD
BRANCH  27  29
ATOM     29  S   UNL     1       3.633   4.799  19.261  0.00  0.00    +0.000 S 
ATOM     30  O   UNL     1       4.653   5.808  19.465  0.00  0.00    +0.000 OA
ATOM     31  O   UNL     1       3.661   3.537  19.970  0.00  0.00    +0.000 OA
BRANCH  29  32
ATOM     32  C   UNL     1       3.498   4.489  17.494  0.00  0.00    +0.000 C 
BRANCH  32  33
ATOM     33  C   UNL     1       4.679   5.110  16.754  0.00  0.00    +0.000 C 
BRANCH  33  34
ATOM     34  C   UNL     1       5.658   4.068  16.207  0.00  0.00    +0.000 C 
BRANCH  34  35
ATOM     35  C   UNL     1       7.065   4.662  16.089  0.00  0.00    +0.000 C 
BRANCH  35  36
ATOM     36  N   UNL     1       7.908   4.207  17.185  0.00  0.00    +0.000 NA
ATOM     37  H   UNL     1       8.757   4.769  17.228  0.00  0.00    +0.000 HD
ATOM     38  H   UNL     1       8.215   3.252  16.998  0.00  0.00    +0.000 HD
ENDBRANCH  35  36
ENDBRANCH  34  35
ENDBRANCH  33  34
ENDBRANCH  32  33
ENDBRANCH  29  32
ENDBRANCH  27  29
ENDBRANCH  24  27
ENDBRANCH   1  21
TORSDOF 10
ENDMDL
MODEL 9
REMARK VINA RESULT:      -7.8      3.595      9.687
REMARK  Name = 
REMARK  11 active torsions:
REMARK  status: ('A' for Active; 'I' for Inactive)
REMARK    1  A    between atoms: C_1  and  N_2
REMARK    2  A    between atoms: C_9  and  N_10
REMARK    3  A    between atoms: N_10  and  C_11
REMARK    4  A    between atoms: C_14  and  N_15
REMARK    5  A    between atoms: N_15  and  S_16
REMARK    6  A    between atoms: S_16  and  C_19
REMARK    7  A    between atoms: C_19  and  C_20
REMARK    8  A    between atoms: C_20  and  C_21
REMARK    9  A    between atoms: C_21  and  C_22
REMARK   10  A    between atoms: C_22  and  N_23
REMARK   11  A    between atoms: C_29  and  N_30
REMARK                            x       y       z     vdW  Elec       q    Type
REMARK                         _______ _______ _______ _____ _____    ______ ____
ROOT
ATOM      1  N   UNL     1       3.211   7.077  19.173  0.00  0.00    +0.000 N 
ATOM      2  H   UNL     1       4.120   7.537  19.179  0.00  0.00    +0.000 HD
ENDROOT
BRANCH   1  11
ATOM      3  C   UNL     1       3.996   1.655  17.536  0.00  0.00    +0.000 C 
ATOM      4  N   UNL     1       3.742   3.052  17.980  0.00  0.00    +0.000 N 
ATOM      5  C   UNL     1       2.988   3.310  19.099  0.00  0.00    +0.000 A 
ATOM      6  C   UNL     1       2.507   2.278  19.948  0.00  0.00    +0.000 A 
ATOM      7  C   UNL     1       1.686   2.532  21.047  0.00  0.00    +0.000 A 
ATOM      8  C   UNL     1       1.263   3.817  21.293  0.00  0.00    +0.000 A 
ATOM      9  C   UNL     1       1.719   4.847  20.475  0.00  0.00    +0.000 A 
ATOM     10  C   UNL     1       2.669   4.647  19.437  0.00  0.00    +0.000 A 
ATOM     11  C   UNL     1       3.292   5.713  18.732  0.00  0.00    +0.000 A 
ATOM     12  C   UNL     1       4.048   5.418  17.566  0.00  0.00    +0.000 A 
ATOM     13  C   UNL     1       4.646   6.411  16.749  0.00  0.00    +0.000 A 
ATOM     14  C   UNL     1       5.390   6.095  15.606  0.00  0.00    +0.000 A 
ATOM     15  C   UNL     1       5.546   4.772  15.206  0.00  0.00    +0.000 A 
ATOM     16  C   UNL     1       5.014   3.783  16.034  0.00  0.00    +0.000 A 
ATOM     17  C   UNL     1       4.251   4.066  17.201  0.00  0.00    +0.000 A 
BRANCH  15  18
ATOM     18  N   UNL     1       6.411   4.428  14.175  0.00  0.00    +0.000 N 
ATOM     19  H   UNL     1       6.998   3.613  14.344  0.00  0.00    +0.000 HD
ATOM     20  H   UNL     1       6.939   5.181  13.743  0.00  0.00    +0.000 HD
ENDBRANCH  15  18
ENDBRANCH   1  11
BRANCH   1  21
ATOM     21  C   UNL     1       2.134   7.995  19.055  0.00  0.00    +0.000 A 
ATOM     22  C   UNL     1       1.803   8.607  17.833  0.00  0.00    +0.000 A 
ATOM     23  C   UNL     1       0.986   9.746  17.798  0.00  0.00    +0.000 A 
ATOM     24  C   UNL     1       0.447  10.246  18.982  0.00  0.00    +0.000 A 
ATOM     25  C   UNL     1       0.625   9.546  20.169  0.00  0.00    +0.000 A 
ATOM     26  C   UNL     1       1.458   8.422  20.205  0.00  0.00    +0.000 A 
BRANCH  24  27
ATOM     27  N   UNL     1      -0.172  11.527  19.053  0.00  0.00    +0.000 N 
ATOM     28  H   UNL     1      -1.036  11.577  19.596  0.00  0.00    +0.000 HD
BRANCH  27  29
ATOM     29  S   UNL     1       0.756  12.908  19.289  0.00  0.00    +0.000 S 
ATOM     30  O   UNL     1       2.131  12.451  19.225  0.00  0.00    +0.000 OA
ATOM     31  O   UNL     1       0.268  13.967  18.433  0.00  0.00    +0.000 OA
BRANCH  29  32
ATOM     32  C   UNL     1       0.377  13.302  21.003  0.00  0.00    +0.000 C 
BRANCH  32  33
ATOM     33  C   UNL     1      -0.989  12.741  21.388  0.00  0.00    +0.000 C 
BRANCH  33  34
ATOM     34  C   UNL     1      -1.126  12.474  22.889  0.00  0.00    +0.000 C 
BRANCH  34  35
ATOM     35  C   UNL     1      -1.390  10.988  23.149  0.00  0.00    +0.000 C 
BRANCH  35  36
ATOM     36  N   UNL     1      -0.141  10.282  23.401  0.00  0.00    +0.000 NA
ATOM     37  H   UNL     1       0.543  10.921  23.805  0.00  0.00    +0.000 HD
ATOM     38  H   UNL     1       0.255   9.974  22.514  0.00  0.00    +0.000 HD
ENDBRANCH  35  36
ENDBRANCH  34  35
ENDBRANCH  33  34
ENDBRANCH  32  33
ENDBRANCH  29  32
ENDBRANCH  27  29
ENDBRANCH  24  27
ENDBRANCH   1  21
TORSDOF 10
ENDMDL
