MODEL 1
REMARK VINA RESULT:      -8.5      0.000      0.000
REMARK  Name = 
REMARK  12 active torsions:
REMARK  status: ('A' for Active; 'I' for Inactive)
REMARK    1  A    between atoms: C_1  and  O_2
REMARK    2  A    between atoms: O_2  and  C_3
REMARK    3  A    between atoms: C_3  and  C_5
REMARK    4  A    between atoms: C_10  and  O_11
REMARK    5  A    between atoms: O_11  and  C_12
REMARK    6  A    between atoms: C_12  and  C_13
REMARK    7  A    between atoms: N_15  and  C_16
REMARK    8  A    between atoms: C_19  and  S_20
REMARK    9  A    between atoms: S_20  and  N_23
REMARK   10  A    between atoms: N_23  and  C_24
REMARK   11  A    between atoms: C_24  and  C_25
REMARK   12  A    between atoms: C_25  and  C_26
REMARK                            x       y       z     vdW  Elec       q    Type
REMARK                         _______ _______ _______ _____ _____    ______ ____
ROOT
ATOM      1  C   UNL     1       2.593   7.431  19.191  0.00  0.00    +0.000 A 
ATOM      2  C   UNL     1       2.969   7.785  17.885  0.00  0.00    +0.000 A 
ATOM      3  C   UNL     1       3.950   7.047  17.241  0.00  0.00    +0.000 A 
ATOM      4  C   UNL     1       4.519   5.945  17.887  0.00  0.00    +0.000 A 
ATOM      5  C   UNL     1       4.116   5.566  19.173  0.00  0.00    +0.000 A 
ATOM      6  C   UNL     1       3.161   6.335  19.843  0.00  0.00    +0.000 A 
ENDROOT
BRANCH   1   9
ATOM      7  C   UNL     1       0.433   9.899  20.475  0.00  0.00    +0.000 A 
ATOM      8  C   UNL     1       1.080   9.380  19.386  0.00  0.00    +0.000 A 
ATOM      9  N   UNL     1       1.651   8.229  19.852  0.00  0.00    +0.000 N 
ATOM     10  N   UNL     1       1.219   7.967  21.105  0.00  0.00    +0.000 NA
ATOM     11  N   UNL     1       0.524   9.016  21.518  0.00  0.00    +0.000 NA
BRANCH   7  12
ATOM     12  C   UNL     1      -0.437  11.085  20.535  0.00  0.00    +0.000 C 
BRANCH  12  13
ATOM     13  O   UNL     1      -0.846  11.578  19.248  0.00  0.00    +0.000 OA
BRANCH  13  19
ATOM     14  C   UNL     1      -2.925  11.286  18.024  0.00  0.00    +0.000 A 
ATOM     15  C   UNL     1      -4.322  11.500  17.991  0.00  0.00    +0.000 A 
ATOM     16  C   UNL     1      -4.984  12.221  18.986  0.00  0.00    +0.000 A 
ATOM     17  C   UNL     1      -4.262  12.756  20.037  0.00  0.00    +0.000 A 
ATOM     18  C   UNL     1      -2.894  12.541  20.101  0.00  0.00    +0.000 A 
ATOM     19  C   UNL     1      -2.201  11.783  19.130  0.00  0.00    +0.000 A 
BRANCH  14  20
ATOM     20  C   UNL     1      -2.394  10.558  16.829  0.00  0.00    +0.000 C 
ATOM     21  O   UNL     1      -1.748   9.531  16.928  0.00  0.00    +0.000 OA
BRANCH  20  23
ATOM     22  C   UNL     1      -3.119  10.221  14.621  0.00  0.00    +0.000 C 
ATOM     23  O   UNL     1      -2.743  11.141  15.652  0.00  0.00    +0.000 OA
ENDBRANCH  20  23
ENDBRANCH  14  20
ENDBRANCH  13  19
ENDBRANCH  12  13
ENDBRANCH   7  12
ENDBRANCH   1   9
BRANCH   4  24
ATOM     24  S   UNL     1       5.736   4.991  17.020  0.00  0.00    +0.000 S 
ATOM     25  O   UNL     1       5.699   5.403  15.639  0.00  0.00    +0.000 OA
ATOM     26  O   UNL     1       6.961   5.011  17.791  0.00  0.00    +0.000 OA
BRANCH  24  27
ATOM     27  N   UNL     1       5.110   3.419  17.089  0.00  0.00    +0.000 NA
ATOM     28  H   UNL     1       5.518   2.934  17.890  0.00  0.00    +0.000 HD
BRANCH  27  29
ATOM     29  C   UNL     1       3.647   3.311  16.912  0.00  0.00    +0.000 C 
BRANCH  29  30
ATOM     30  C   UNL     1       3.070   2.089  17.631  0.00  0.00    +0.000 C 
BRANCH  30  31
ATOM     31  C   UNL     1       2.464   2.496  18.958  0.00  0.00    +0.000 A 
ATOM     32  C   UNL     1       1.249   3.194  19.015  0.00  0.00    +0.000 A 
ATOM     33  C   UNL     1       0.738   3.627  20.242  0.00  0.00    +0.000 A 
ATOM     34  C   UNL     1       1.433   3.369  21.422  0.00  0.00    +0.000 A 
ATOM     35  C   UNL     1       2.637   2.670  21.377  0.00  0.00    +0.000 A 
ATOM     36  C   UNL     1       3.152   2.239  20.153  0.00  0.00    +0.000 A 
ENDBRANCH  30  31
ENDBRANCH  29  30
ENDBRANCH  27  29
ENDBRANCH  24  27
ENDBRANCH   4  24
TORSDOF 11
ENDMDL
MODEL 2
REMARK VINA RESULT:      -8.4      0.940      1.125
REMARK  Name = 
REMARK  12 active torsions:
REMARK  status: ('A' for Active; 'I' for Inactive)
REMARK    1  A    between atoms: C_1  and  O_2
REMARK    2  A    between atoms: O_2  and  C_3
REMARK    3  A    between atoms: C_3  and  C_5
REMARK    4  A    between atoms: C_10  and  O_11
REMARK    5  A    between atoms: O_11  and  C_12
REMARK    6  A    between atoms: C_12  and  C_13
REMARK    7  A    between atoms: N_15  and  C_16
REMARK    8  A    between atoms: C_19  and  S_20
REMARK    9  A    between atoms: S_20  and  N_23
REMARK   10  A    between atoms: N_23  and  C_24
REMARK   11  A    between atoms: C_24  and  C_25
REMARK   12  A    between atoms: C_25  and  C_26
REMARK                            x       y       z     vdW  Elec       q    Type
REMARK                         _______ _______ _______ _____ _____    ______ ____
ROOT
ATOM      1  C   UNL     1       1.596   8.360  19.543  0.00  0.00    +0.000 A 
ATOM      2  C   UNL     1       2.134   8.718  18.297  0.00  0.00    +0.000 A 
ATOM      3  C   UNL     1       3.080   7.894  17.706  0.00  0.00    +0.000 A 
ATOM      4  C   UNL     1       3.453   6.707  18.343  0.00  0.00    +0.000 A 
ATOM      5  C   UNL     1       2.888   6.328  19.567  0.00  0.00    +0.000 A 
ATOM      6  C   UNL     1       1.968   7.177  20.186  0.00  0.00    +0.000 A 
ENDROOT
BRANCH   1   9
ATOM      7  C   UNL     1      -0.489  10.977  20.641  0.00  0.00    +0.000 A 
ATOM      8  C   UNL     1       0.093  10.325  19.587  0.00  0.00    +0.000 A 
ATOM      9  N   UNL     1       0.694   9.237  20.156  0.00  0.00    +0.000 N 
ATOM     10  N   UNL     1       0.339   9.133  21.455  0.00  0.00    +0.000 NA
ATOM     11  N   UNL     1      -0.333  10.228  21.778  0.00  0.00    +0.000 NA
BRANCH   7  12
ATOM     12  C   UNL     1      -1.357  12.166  20.607  0.00  0.00    +0.000 C 
BRANCH  12  13
ATOM     13  O   UNL     1      -1.876  12.475  19.303  0.00  0.00    +0.000 OA
BRANCH  13  19
ATOM     14  C   UNL     1      -3.536  11.206  18.062  0.00  0.00    +0.000 A 
ATOM     15  C   UNL     1      -4.890  10.814  17.951  0.00  0.00    +0.000 A 
ATOM     16  C   UNL     1      -5.875  11.304  18.809  0.00  0.00    +0.000 A 
ATOM     17  C   UNL     1      -5.532  12.208  19.798  0.00  0.00    +0.000 A 
ATOM     18  C   UNL     1      -4.207  12.591  19.939  0.00  0.00    +0.000 A 
ATOM     19  C   UNL     1      -3.180  12.083  19.110  0.00  0.00    +0.000 A 
BRANCH  14  20
ATOM     20  C   UNL     1      -2.649  10.632  17.002  0.00  0.00    +0.000 C 
ATOM     21  O   UNL     1      -1.890   9.705  17.221  0.00  0.00    +0.000 OA
BRANCH  20  23
ATOM     22  C   UNL     1      -3.113  10.319  14.722  0.00  0.00    +0.000 C 
ATOM     23  O   UNL     1      -2.816  11.225  15.791  0.00  0.00    +0.000 OA
ENDBRANCH  20  23
ENDBRANCH  14  20
ENDBRANCH  13  19
ENDBRANCH  12  13
ENDBRANCH   7  12
ENDBRANCH   1   9
BRANCH   4  24
ATOM     24  S   UNL     1       4.629   5.650  17.543  0.00  0.00    +0.000 S 
ATOM     25  O   UNL     1       5.103   6.346  16.371  0.00  0.00    +0.000 OA
ATOM     26  O   UNL     1       5.538   5.139  18.547  0.00  0.00    +0.000 OA
BRANCH  24  27
ATOM     27  N   UNL     1       3.677   4.357  17.004  0.00  0.00    +0.000 NA
ATOM     28  H   UNL     1       3.377   4.543  16.045  0.00  0.00    +0.000 HD
BRANCH  27  29
ATOM     29  C   UNL     1       4.215   3.011  17.291  0.00  0.00    +0.000 C 
BRANCH  29  30
ATOM     30  C   UNL     1       3.115   2.029  17.701  0.00  0.00    +0.000 C 
BRANCH  30  31
ATOM     31  C   UNL     1       2.507   2.442  19.025  0.00  0.00    +0.000 A 
ATOM     32  C   UNL     1       1.182   2.894  19.102  0.00  0.00    +0.000 A 
ATOM     33  C   UNL     1       0.656   3.342  20.317  0.00  0.00    +0.000 A 
ATOM     34  C   UNL     1       1.445   3.342  21.466  0.00  0.00    +0.000 A 
ATOM     35  C   UNL     1       2.761   2.889  21.402  0.00  0.00    +0.000 A 
ATOM     36  C   UNL     1       3.291   2.444  20.189  0.00  0.00    +0.000 A 
ENDBRANCH  30  31
ENDBRANCH  29  30
ENDBRANCH  27  29
ENDBRANCH  24  27
ENDBRANCH   4  24
TORSDOF 11
ENDMDL
MODEL 3
REMARK VINA RESULT:      -8.1      2.571      3.451
REMARK  Name = 
REMARK  12 active torsions:
REMARK  status: ('A' for Active; 'I' for Inactive)
REMARK    1  A    between atoms: C_1  and  O_2
REMARK    2  A    between atoms: O_2  and  C_3
REMARK    3  A    between atoms: C_3  and  C_5
REMARK    4  A    between atoms: C_10  and  O_11
REMARK    5  A    between atoms: O_11  and  C_12
REMARK    6  A    between atoms: C_12  and  C_13
REMARK    7  A    between atoms: N_15  and  C_16
REMARK    8  A    between atoms: C_19  and  S_20
REMARK    9  A    between atoms: S_20  and  N_23
REMARK   10  A    between atoms: N_23  and  C_24
REMARK   11  A    between atoms: C_24  and  C_25
REMARK   12  A    between atoms: C_25  and  C_26
REMARK                            x       y       z     vdW  Elec       q    Type
REMARK                         _______ _______ _______ _____ _____    ______ ____
ROOT
ATOM      1  C   UNL     1       2.553   7.759  18.622  0.00  0.00    +0.000 A 
ATOM      2  C   UNL     1       3.353   7.814  17.470  0.00  0.00    +0.000 A 
ATOM      3  C   UNL     1       4.353   6.871  17.294  0.00  0.00    +0.000 A 
ATOM      4  C   UNL     1       4.523   5.862  18.246  0.00  0.00    +0.000 A 
ATOM      5  C   UNL     1       3.701   5.781  19.377  0.00  0.00    +0.000 A 
ATOM      6  C   UNL     1       2.722   6.756  19.580  0.00  0.00    +0.000 A 
ENDROOT
BRANCH   1   9
ATOM      7  C   UNL     1       0.023   9.978  19.659  0.00  0.00    +0.000 A 
ATOM      8  C   UNL     1       1.073   9.173  20.012  0.00  0.00    +0.000 A 
ATOM      9  N   UNL     1       1.594   8.760  18.817  0.00  0.00    +0.000 N 
ATOM     10  N   UNL     1       1.011   9.425  17.797  0.00  0.00    +0.000 NA
ATOM     11  N   UNL     1       0.004  10.126  18.297  0.00  0.00    +0.000 NA
BRANCH   7  12
ATOM     12  C   UNL     1      -0.844  10.779  20.539  0.00  0.00    +0.000 C 
BRANCH  12  13
ATOM     13  O   UNL     1      -0.183  11.286  21.709  0.00  0.00    +0.000 OA
BRANCH  13  19
ATOM     14  C   UNL     1      -0.378  13.641  22.280  0.00  0.00    +0.000 A 
ATOM     15  C   UNL     1      -1.143  14.649  22.910  0.00  0.00    +0.000 A 
ATOM     16  C   UNL     1      -2.312  14.359  23.614  0.00  0.00    +0.000 A 
ATOM     17  C   UNL     1      -2.743  13.048  23.714  0.00  0.00    +0.000 A 
ATOM     18  C   UNL     1      -2.020  12.046  23.086  0.00  0.00    +0.000 A 
ATOM     19  C   UNL     1      -0.854  12.312  22.334  0.00  0.00    +0.000 A 
BRANCH  14  20
ATOM     20  C   UNL     1       0.881  14.142  21.643  0.00  0.00    +0.000 C 
ATOM     21  O   UNL     1       1.791  14.622  22.293  0.00  0.00    +0.000 OA
BRANCH  20  23
ATOM     22  C   UNL     1       2.212  13.923  19.722  0.00  0.00    +0.000 C 
ATOM     23  O   UNL     1       0.901  13.967  20.296  0.00  0.00    +0.000 OA
ENDBRANCH  20  23
ENDBRANCH  14  20
ENDBRANCH  13  19
ENDBRANCH  12  13
ENDBRANCH   7  12
ENDBRANCH   1   9
BRANCH   4  24
ATOM     24  S   UNL     1       5.778   4.640  17.972  0.00  0.00    +0.000 S 
ATOM     25  O   UNL     1       6.876   5.297  17.308  0.00  0.00    +0.000 OA
ATOM     26  O   UNL     1       5.963   3.896  19.199  0.00  0.00    +0.000 OA
BRANCH  24  27
ATOM     27  N   UNL     1       5.061   3.602  16.842  0.00  0.00    +0.000 NA
ATOM     28  H   UNL     1       5.638   2.764  16.749  0.00  0.00    +0.000 HD
BRANCH  27  29
ATOM     29  C   UNL     1       3.605   3.401  17.001  0.00  0.00    +0.000 C 
BRANCH  29  30
ATOM     30  C   UNL     1       3.283   2.116  17.768  0.00  0.00    +0.000 C 
BRANCH  30  31
ATOM     31  C   UNL     1       2.574   2.441  19.065  0.00  0.00    +0.000 A 
ATOM     32  C   UNL     1       1.273   2.961  19.068  0.00  0.00    +0.000 A 
ATOM     33  C   UNL     1       0.657   3.325  20.269  0.00  0.00    +0.000 A 
ATOM     34  C   UNL     1       1.334   3.172  21.478  0.00  0.00    +0.000 A 
ATOM     35  C   UNL     1       2.625   2.649  21.488  0.00  0.00    +0.000 A 
ATOM     36  C   UNL     1       3.243   2.288  20.289  0.00  0.00    +0.000 A 
ENDBRANCH  30  31
ENDBRANCH  29  30
ENDBRANCH  27  29
ENDBRANCH  24  27
ENDBRANCH   4  24
TORSDOF 11
ENDMDL
MODEL 4
REMARK VINA RESULT:      -8.1      1.561      2.811
REMARK  Name = 
REMARK  12 active torsions:
REMARK  status: ('A' for Active; 'I' for Inactive)
REMARK    1  A    between atoms: C_1  and  O_2
REMARK    2  A    between atoms: O_2  and  C_3
REMARK    3  A    between atoms: C_3  and  C_5
REMARK    4  A    between atoms: C_10  and  O_11
REMARK    5  A    between atoms: O_11  and  C_12
REMARK    6  A    between atoms: C_12  and  C_13
REMARK    7  A    between atoms: N_15  and  C_16
REMARK    8  A    between atoms: C_19  and  S_20
REMARK    9  A    between atoms: S_20  and  N_23
REMARK   10  A    between atoms: N_23  and  C_24
REMARK   11  A    between atoms: C_24  and  C_25
REMARK   12  A    between atoms: C_25  and  C_26
REMARK                            x       y       z     vdW  Elec       q    Type
REMARK                         _______ _______ _______ _____ _____    ______ ____
ROOT
ATOM      1  C   UNL     1       2.264   7.964  18.809  0.00  0.00    +0.000 A 
ATOM      2  C   UNL     1       2.477   6.900  19.700  0.00  0.00    +0.000 A 
ATOM      3  C   UNL     1       3.433   5.943  19.395  0.00  0.00    +0.000 A 
ATOM      4  C   UNL     1       4.192   6.076  18.229  0.00  0.00    +0.000 A 
ATOM      5  C   UNL     1       4.009   7.158  17.359  0.00  0.00    +0.000 A 
ATOM      6  C   UNL     1       3.015   8.099  17.639  0.00  0.00    +0.000 A 
ENDROOT
BRANCH   1   9
ATOM      7  C   UNL     1      -0.106  10.562  19.004  0.00  0.00    +0.000 A 
ATOM      8  C   UNL     1       0.611   9.706  18.211  0.00  0.00    +0.000 A 
ATOM      9  N   UNL     1       1.247   8.882  19.098  0.00  0.00    +0.000 N 
ATOM     10  N   UNL     1       0.796   9.106  20.351  0.00  0.00    +0.000 NA
ATOM     11  N   UNL     1       0.014  10.175  20.312  0.00  0.00    +0.000 NA
BRANCH   7  12
ATOM     12  C   UNL     1      -1.060  11.602  18.586  0.00  0.00    +0.000 C 
BRANCH  12  13
ATOM     13  O   UNL     1      -2.127  11.830  19.521  0.00  0.00    +0.000 OA
BRANCH  13  19
ATOM     14  C   UNL     1      -4.474  12.445  19.652  0.00  0.00    +0.000 A 
ATOM     15  C   UNL     1      -5.713  12.544  18.979  0.00  0.00    +0.000 A 
ATOM     16  C   UNL     1      -5.882  12.094  17.669  0.00  0.00    +0.000 A 
ATOM     17  C   UNL     1      -4.815  11.524  16.999  0.00  0.00    +0.000 A 
ATOM     18  C   UNL     1      -3.584  11.437  17.632  0.00  0.00    +0.000 A 
ATOM     19  C   UNL     1      -3.371  11.918  18.944  0.00  0.00    +0.000 A 
BRANCH  14  20
ATOM     20  C   UNL     1      -4.516  12.911  21.074  0.00  0.00    +0.000 C 
ATOM     21  O   UNL     1      -5.024  12.247  21.960  0.00  0.00    +0.000 OA
BRANCH  20  23
ATOM     22  C   UNL     1      -4.746  15.130  21.805  0.00  0.00    +0.000 C 
ATOM     23  O   UNL     1      -3.903  14.109  21.260  0.00  0.00    +0.000 OA
ENDBRANCH  20  23
ENDBRANCH  14  20
ENDBRANCH  13  19
ENDBRANCH  12  13
ENDBRANCH   7  12
ENDBRANCH   1   9
BRANCH   4  24
ATOM     24  S   UNL     1       5.441   4.864  17.888  0.00  0.00    +0.000 S 
ATOM     25  O   UNL     1       6.476   5.520  17.128  0.00  0.00    +0.000 OA
ATOM     26  O   UNL     1       5.728   4.152  19.115  0.00  0.00    +0.000 OA
BRANCH  24  27
ATOM     27  N   UNL     1       4.656   3.790  16.840  0.00  0.00    +0.000 NA
ATOM     28  H   UNL     1       5.151   3.777  15.947  0.00  0.00    +0.000 HD
BRANCH  27  29
ATOM     29  C   UNL     1       4.294   2.483  17.427  0.00  0.00    +0.000 C 
BRANCH  29  30
ATOM     30  C   UNL     1       2.777   2.296  17.519  0.00  0.00    +0.000 C 
BRANCH  30  31
ATOM     31  C   UNL     1       2.295   2.591  18.924  0.00  0.00    +0.000 A 
ATOM     32  C   UNL     1       1.052   3.200  19.149  0.00  0.00    +0.000 A 
ATOM     33  C   UNL     1       0.651   3.533  20.446  0.00  0.00    +0.000 A 
ATOM     34  C   UNL     1       1.484   3.261  21.530  0.00  0.00    +0.000 A 
ATOM     35  C   UNL     1       2.718   2.649  21.318  0.00  0.00    +0.000 A 
ATOM     36  C   UNL     1       3.123   2.318  20.023  0.00  0.00    +0.000 A 
ENDBRANCH  30  31
ENDBRANCH  29  30
ENDBRANCH  27  29
ENDBRANCH  24  27
ENDBRANCH   4  24
TORSDOF 11
ENDMDL
MODEL 5
REMARK VINA RESULT:      -8.1      2.760      9.523
REMARK  Name = 
REMARK  12 active torsions:
REMARK  status: ('A' for Active; 'I' for Inactive)
REMARK    1  A    between atoms: C_1  and  O_2
REMARK    2  A    between atoms: O_2  and  C_3
REMARK    3  A    between atoms: C_3  and  C_5
REMARK    4  A    between atoms: C_10  and  O_11
REMARK    5  A    between atoms: O_11  and  C_12
REMARK    6  A    between atoms: C_12  and  C_13
REMARK    7  A    between atoms: N_15  and  C_16
REMARK    8  A    between atoms: C_19  and  S_20
REMARK    9  A    between atoms: S_20  and  N_23
REMARK   10  A    between atoms: N_23  and  C_24
REMARK   11  A    between atoms: C_24  and  C_25
REMARK   12  A    between atoms: C_25  and  C_26
REMARK                            x       y       z     vdW  Elec       q    Type
REMARK                         _______ _______ _______ _____ _____    ______ ____
ROOT
ATOM      1  C   UNL     1       1.853   7.701  19.958  0.00  0.00    +0.000 A 
ATOM      2  C   UNL     1       1.846   8.526  18.823  0.00  0.00    +0.000 A 
ATOM      3  C   UNL     1       1.341   9.813  18.925  0.00  0.00    +0.000 A 
ATOM      4  C   UNL     1       0.883  10.276  20.162  0.00  0.00    +0.000 A 
ATOM      5  C   UNL     1       0.925   9.468  21.304  0.00  0.00    +0.000 A 
ATOM      6  C   UNL     1       1.392   8.156  21.195  0.00  0.00    +0.000 A 
ENDROOT
BRANCH   1   9
ATOM      7  C   UNL     1       3.457   4.639  19.276  0.00  0.00    +0.000 A 
ATOM      8  C   UNL     1       3.580   5.976  19.549  0.00  0.00    +0.000 A 
ATOM      9  N   UNL     1       2.303   6.381  19.820  0.00  0.00    +0.000 N 
ATOM     10  N   UNL     1       1.478   5.315  19.892  0.00  0.00    +0.000 NA
ATOM     11  N   UNL     1       2.162   4.250  19.497  0.00  0.00    +0.000 NA
BRANCH   7  12
ATOM     12  C   UNL     1       4.527   3.663  19.013  0.00  0.00    +0.000 C 
BRANCH  12  13
ATOM     13  O   UNL     1       5.811   4.255  18.758  0.00  0.00    +0.000 OA
BRANCH  13  19
ATOM     14  C   UNL     1       6.875   5.544  16.994  0.00  0.00    +0.000 A 
ATOM     15  C   UNL     1       7.144   5.666  15.611  0.00  0.00    +0.000 A 
ATOM     16  C   UNL     1       6.610   4.783  14.672  0.00  0.00    +0.000 A 
ATOM     17  C   UNL     1       5.784   3.756  15.093  0.00  0.00    +0.000 A 
ATOM     18  C   UNL     1       5.523   3.604  16.446  0.00  0.00    +0.000 A 
ATOM     19  C   UNL     1       6.080   4.459  17.424  0.00  0.00    +0.000 A 
BRANCH  14  20
ATOM     20  C   UNL     1       7.476   6.633  17.827  0.00  0.00    +0.000 C 
ATOM     21  O   UNL     1       8.032   6.408  18.887  0.00  0.00    +0.000 OA
BRANCH  20  23
ATOM     22  C   UNL     1       8.139   8.884  17.894  0.00  0.00    +0.000 C 
ATOM     23  O   UNL     1       7.365   7.861  17.257  0.00  0.00    +0.000 OA
ENDBRANCH  20  23
ENDBRANCH  14  20
ENDBRANCH  13  19
ENDBRANCH  12  13
ENDBRANCH   7  12
ENDBRANCH   1   9
BRANCH   4  24
ATOM     24  S   UNL     1       0.286  11.942  20.274  0.00  0.00    +0.000 S 
ATOM     25  O   UNL     1       0.869  12.526  21.457  0.00  0.00    +0.000 OA
ATOM     26  O   UNL     1       0.419  12.561  18.973  0.00  0.00    +0.000 OA
BRANCH  24  27
ATOM     27  N   UNL     1      -1.367  11.737  20.581  0.00  0.00    +0.000 NA
ATOM     28  H   UNL     1      -1.511  11.676  21.591  0.00  0.00    +0.000 HD
BRANCH  27  29
ATOM     29  C   UNL     1      -2.267  12.631  19.825  0.00  0.00    +0.000 C 
BRANCH  29  30
ATOM     30  C   UNL     1      -3.545  11.915  19.379  0.00  0.00    +0.000 C 
BRANCH  30  31
ATOM     31  C   UNL     1      -3.321  11.212  18.057  0.00  0.00    +0.000 A 
ATOM     32  C   UNL     1      -2.226  10.356  17.870  0.00  0.00    +0.000 A 
ATOM     33  C   UNL     1      -1.990   9.771  16.622  0.00  0.00    +0.000 A 
ATOM     34  C   UNL     1      -2.843  10.033  15.552  0.00  0.00    +0.000 A 
ATOM     35  C   UNL     1      -3.938  10.876  15.729  0.00  0.00    +0.000 A 
ATOM     36  C   UNL     1      -4.175  11.465  16.973  0.00  0.00    +0.000 A 
ENDBRANCH  30  31
ENDBRANCH  29  30
ENDBRANCH  27  29
ENDBRANCH  24  27
ENDBRANCH   4  24
TORSDOF 11
ENDMDL
MODEL 6
REMARK VINA RESULT:      -8.0      2.722      3.203
REMARK  Name = 
REMARK  12 active torsions:
REMARK  status: ('A' for Active; 'I' for Inactive)
REMARK    1  A    between atoms: C_1  and  O_2
REMARK    2  A    between atoms: O_2  and  C_3
REMARK    3  A    between atoms: C_3  and  C_5
REMARK    4  A    between atoms: C_10  and  O_11
REMARK    5  A    between atoms: O_11  and  C_12
REMARK    6  A    between atoms: C_12  and  C_13
REMARK    7  A    between atoms: N_15  and  C_16
REMARK    8  A    between atoms: C_19  and  S_20
REMARK    9  A    between atoms: S_20  and  N_23
REMARK   10  A    between atoms: N_23  and  C_24
REMARK   11  A    between atoms: C_24  and  C_25
REMARK   12  A    between atoms: C_25  and  C_26
REMARK                            x       y       z     vdW  Elec       q    Type
REMARK                         _______ _______ _______ _____ _____    ______ ____
ROOT
ATOM      1  C   UNL     1       2.299   7.750  19.402  0.00  0.00    +0.000 A 
ATOM      2  C   UNL     1       2.812   6.621  20.060  0.00  0.00    +0.000 A 
ATOM      3  C   UNL     1       3.697   5.791  19.389  0.00  0.00    +0.000 A 
ATOM      4  C   UNL     1       4.090   6.113  18.087  0.00  0.00    +0.000 A 
ATOM      5  C   UNL     1       3.611   7.261  17.443  0.00  0.00    +0.000 A 
ATOM      6  C   UNL     1       2.685   8.075  18.099  0.00  0.00    +0.000 A 
ENDROOT
BRANCH   1   9
ATOM      7  C   UNL     1      -0.044   9.291  21.533  0.00  0.00    +0.000 A 
ATOM      8  C   UNL     1       1.108   8.560  21.414  0.00  0.00    +0.000 A 
ATOM      9  N   UNL     1       1.354   8.539  20.070  0.00  0.00    +0.000 N 
ATOM     10  N   UNL     1       0.504   9.367  19.425  0.00  0.00    +0.000 NA
ATOM     11  N   UNL     1      -0.396   9.783  20.304  0.00  0.00    +0.000 NA
BRANCH   7  12
ATOM     12  C   UNL     1      -0.724   9.722  22.766  0.00  0.00    +0.000 C 
BRANCH  12  13
ATOM     13  O   UNL     1      -0.383  11.051  23.190  0.00  0.00    +0.000 OA
BRANCH  13  19
ATOM     14  C   UNL     1      -1.030  13.119  22.089  0.00  0.00    +0.000 A 
ATOM     15  C   UNL     1      -2.070  14.028  21.789  0.00  0.00    +0.000 A 
ATOM     16  C   UNL     1      -3.359  13.872  22.300  0.00  0.00    +0.000 A 
ATOM     17  C   UNL     1      -3.640  12.804  23.132  0.00  0.00    +0.000 A 
ATOM     18  C   UNL     1      -2.640  11.888  23.423  0.00  0.00    +0.000 A 
ATOM     19  C   UNL     1      -1.335  11.998  22.891  0.00  0.00    +0.000 A 
BRANCH  14  20
ATOM     20  C   UNL     1       0.297  13.502  21.510  0.00  0.00    +0.000 C 
ATOM     21  O   UNL     1       1.138  14.102  22.153  0.00  0.00    +0.000 OA
BRANCH  20  23
ATOM     22  C   UNL     1       1.794  12.668  19.905  0.00  0.00    +0.000 C 
ATOM     23  O   UNL     1       0.461  13.076  20.230  0.00  0.00    +0.000 OA
ENDBRANCH  20  23
ENDBRANCH  14  20
ENDBRANCH  13  19
ENDBRANCH  12  13
ENDBRANCH   7  12
ENDBRANCH   1   9
BRANCH   4  24
ATOM     24  S   UNL     1       5.259   5.060  17.270  0.00  0.00    +0.000 S 
ATOM     25  O   UNL     1       6.072   5.899  16.424  0.00  0.00    +0.000 OA
ATOM     26  O   UNL     1       5.843   4.179  18.258  0.00  0.00    +0.000 OA
BRANCH  24  27
ATOM     27  N   UNL     1       4.284   4.121  16.253  0.00  0.00    +0.000 NA
ATOM     28  H   UNL     1       4.871   3.441  15.766  0.00  0.00    +0.000 HD
BRANCH  27  29
ATOM     29  C   UNL     1       3.035   3.618  16.861  0.00  0.00    +0.000 C 
BRANCH  29  30
ATOM     30  C   UNL     1       3.281   2.394  17.747  0.00  0.00    +0.000 C 
BRANCH  30  31
ATOM     31  C   UNL     1       2.600   2.570  19.088  0.00  0.00    +0.000 A 
ATOM     32  C   UNL     1       1.271   3.008  19.173  0.00  0.00    +0.000 A 
ATOM     33  C   UNL     1       0.678   3.236  20.419  0.00  0.00    +0.000 A 
ATOM     34  C   UNL     1       1.405   3.028  21.589  0.00  0.00    +0.000 A 
ATOM     35  C   UNL     1       2.724   2.585  21.517  0.00  0.00    +0.000 A 
ATOM     36  C   UNL     1       3.320   2.360  20.275  0.00  0.00    +0.000 A 
ENDBRANCH  30  31
ENDBRANCH  29  30
ENDBRANCH  27  29
ENDBRANCH  24  27
ENDBRANCH   4  24
TORSDOF 11
ENDMDL
MODEL 7
REMARK VINA RESULT:      -8.0      1.035      1.701
REMARK  Name = 
REMARK  12 active torsions:
REMARK  status: ('A' for Active; 'I' for Inactive)
REMARK    1  A    between atoms: C_1  and  O_2
REMARK    2  A    between atoms: O_2  and  C_3
REMARK    3  A    between atoms: C_3  and  C_5
REMARK    4  A    between atoms: C_10  and  O_11
REMARK    5  A    between atoms: O_11  and  C_12
REMARK    6  A    between atoms: C_12  and  C_13
REMARK    7  A    between atoms: N_15  and  C_16
REMARK    8  A    between atoms: C_19  and  S_20
REMARK    9  A    between atoms: S_20  and  N_23
REMARK   10  A    between atoms: N_23  and  C_24
REMARK   11  A    between atoms: C_24  and  C_25
REMARK   12  A    between atoms: C_25  and  C_26
REMARK                            x       y       z     vdW  Elec       q    Type
REMARK                         _______ _______ _______ _____ _____    ______ ____
ROOT
ATOM      1  C   UNL     1       2.838   7.888  18.491  0.00  0.00    +0.000 A 
ATOM      2  C   UNL     1       2.907   6.927  19.512  0.00  0.00    +0.000 A 
ATOM      3  C   UNL     1       3.772   5.852  19.373  0.00  0.00    +0.000 A 
ATOM      4  C   UNL     1       4.585   5.766  18.239  0.00  0.00    +0.000 A 
ATOM      5  C   UNL     1       4.547   6.744  17.238  0.00  0.00    +0.000 A 
ATOM      6  C   UNL     1       3.643   7.803  17.353  0.00  0.00    +0.000 A 
ENDROOT
BRANCH   1   9
ATOM      7  C   UNL     1       0.197  10.109  19.196  0.00  0.00    +0.000 A 
ATOM      8  C   UNL     1       1.038   9.129  19.651  0.00  0.00    +0.000 A 
ATOM      9  N   UNL     1       1.909   8.928  18.616  0.00  0.00    +0.000 N 
ATOM     10  N   UNL     1       1.723   9.864  17.660  0.00  0.00    +0.000 NA
ATOM     11  N   UNL     1       0.637  10.552  17.976  0.00  0.00    +0.000 NA
BRANCH   7  12
ATOM     12  C   UNL     1      -0.880  10.795  19.929  0.00  0.00    +0.000 C 
BRANCH  12  13
ATOM     13  O   UNL     1      -1.426  11.932  19.242  0.00  0.00    +0.000 OA
BRANCH  13  19
ATOM     14  C   UNL     1      -3.588  11.388  18.275  0.00  0.00    +0.000 A 
ATOM     15  C   UNL     1      -4.994  11.465  18.396  0.00  0.00    +0.000 A 
ATOM     16  C   UNL     1      -5.611  12.163  19.434  0.00  0.00    +0.000 A 
ATOM     17  C   UNL     1      -4.834  12.812  20.377  0.00  0.00    +0.000 A 
ATOM     18  C   UNL     1      -3.453  12.733  20.290  0.00  0.00    +0.000 A 
ATOM     19  C   UNL     1      -2.799  12.001  19.273  0.00  0.00    +0.000 A 
BRANCH  14  20
ATOM     20  C   UNL     1      -3.122  10.660  17.052  0.00  0.00    +0.000 C 
ATOM     21  O   UNL     1      -2.581   9.571  17.111  0.00  0.00    +0.000 OA
BRANCH  20  23
ATOM     22  C   UNL     1      -3.526  10.482  14.746  0.00  0.00    +0.000 C 
ATOM     23  O   UNL     1      -3.404  11.322  15.900  0.00  0.00    +0.000 OA
ENDBRANCH  20  23
ENDBRANCH  14  20
ENDBRANCH  13  19
ENDBRANCH  12  13
ENDBRANCH   7  12
ENDBRANCH   1   9
BRANCH   4  24
ATOM     24  S   UNL     1       5.716   4.407  18.110  0.00  0.00    +0.000 S 
ATOM     25  O   UNL     1       6.941   4.923  17.549  0.00  0.00    +0.000 OA
ATOM     26  O   UNL     1       5.696   3.679  19.361  0.00  0.00    +0.000 OA
BRANCH  24  27
ATOM     27  N   UNL     1       5.002   3.425  16.930  0.00  0.00    +0.000 NA
ATOM     28  H   UNL     1       5.492   2.529  16.903  0.00  0.00    +0.000 HD
BRANCH  27  29
ATOM     29  C   UNL     1       3.525   3.383  16.950  0.00  0.00    +0.000 C 
BRANCH  29  30
ATOM     30  C   UNL     1       2.996   2.170  17.719  0.00  0.00    +0.000 C 
BRANCH  30  31
ATOM     31  C   UNL     1       2.481   2.592  19.079  0.00  0.00    +0.000 A 
ATOM     32  C   UNL     1       3.198   2.298  20.247  0.00  0.00    +0.000 A 
ATOM     33  C   UNL     1       2.676   2.629  21.501  0.00  0.00    +0.000 A 
ATOM     34  C   UNL     1       1.436   3.257  21.601  0.00  0.00    +0.000 A 
ATOM     35  C   UNL     1       0.719   3.561  20.446  0.00  0.00    +0.000 A 
ATOM     36  C   UNL     1       1.236   3.229  19.192  0.00  0.00    +0.000 A 
ENDBRANCH  30  31
ENDBRANCH  29  30
ENDBRANCH  27  29
ENDBRANCH  24  27
ENDBRANCH   4  24
TORSDOF 11
ENDMDL
MODEL 8
REMARK VINA RESULT:      -7.8      2.044      3.469
REMARK  Name = 
REMARK  12 active torsions:
REMARK  status: ('A' for Active; 'I' for Inactive)
REMARK    1  A    between atoms: C_1  and  O_2
REMARK    2  A    between atoms: O_2  and  C_3
REMARK    3  A    between atoms: C_3  and  C_5
REMARK    4  A    between atoms: C_10  and  O_11
REMARK    5  A    between atoms: O_11  and  C_12
REMARK    6  A    between atoms: C_12  and  C_13
REMARK    7  A    between atoms: N_15  and  C_16
REMARK    8  A    between atoms: C_19  and  S_20
REMARK    9  A    between atoms: S_20  and  N_23
REMARK   10  A    between atoms: N_23  and  C_24
REMARK   11  A    between atoms: C_24  and  C_25
REMARK   12  A    between atoms: C_25  and  C_26
REMARK                            x       y       z     vdW  Elec       q    Type
REMARK                         _______ _______ _______ _____ _____    ______ ____
ROOT
ATOM      1  C   UNL     1       1.457   8.775  19.040  0.00  0.00    +0.000 A 
ATOM      2  C   UNL     1       1.720   7.705  19.910  0.00  0.00    +0.000 A 
ATOM      3  C   UNL     1       2.689   6.775  19.565  0.00  0.00    +0.000 A 
ATOM      4  C   UNL     1       3.409   6.939  18.378  0.00  0.00    +0.000 A 
ATOM      5  C   UNL     1       3.176   8.028  17.528  0.00  0.00    +0.000 A 
ATOM      6  C   UNL     1       2.169   8.942  17.851  0.00  0.00    +0.000 A 
ENDROOT
BRANCH   1   9
ATOM      7  C   UNL     1      -1.079  11.208  19.272  0.00  0.00    +0.000 A 
ATOM      8  C   UNL     1      -0.446  10.264  18.508  0.00  0.00    +0.000 A 
ATOM      9  N   UNL     1       0.428   9.665  19.371  0.00  0.00    +0.000 N 
ATOM     10  N   UNL     1       0.206  10.093  20.633  0.00  0.00    +0.000 NA
ATOM     11  N   UNL     1      -0.671  11.084  20.574  0.00  0.00    +0.000 NA
BRANCH   7  12
ATOM     12  C   UNL     1      -2.195  12.089  18.888  0.00  0.00    +0.000 C 
BRANCH  12  13
ATOM     13  O   UNL     1      -3.099  12.391  19.963  0.00  0.00    +0.000 OA
BRANCH  13  19
ATOM     14  C   UNL     1      -5.451  12.585  20.543  0.00  0.00    +0.000 A 
ATOM     15  C   UNL     1      -6.792  12.401  20.136  0.00  0.00    +0.000 A 
ATOM     16  C   UNL     1      -7.121  11.817  18.912  0.00  0.00    +0.000 A 
ATOM     17  C   UNL     1      -6.113  11.392  18.065  0.00  0.00    +0.000 A 
ATOM     18  C   UNL     1      -4.790  11.581  18.435  0.00  0.00    +0.000 A 
ATOM     19  C   UNL     1      -4.425  12.204  19.650  0.00  0.00    +0.000 A 
BRANCH  14  20
ATOM     20  C   UNL     1      -5.308  13.156  21.920  0.00  0.00    +0.000 C 
ATOM     21  O   UNL     1      -5.579  14.316  22.174  0.00  0.00    +0.000 OA
BRANCH  20  23
ATOM     22  C   UNL     1      -3.845  12.702  23.699  0.00  0.00    +0.000 C 
ATOM     23  O   UNL     1      -4.888  12.242  22.833  0.00  0.00    +0.000 OA
ENDBRANCH  20  23
ENDBRANCH  14  20
ENDBRANCH  13  19
ENDBRANCH  12  13
ENDBRANCH   7  12
ENDBRANCH   1   9
BRANCH   4  24
ATOM     24  S   UNL     1       4.675   5.762  17.985  0.00  0.00    +0.000 S 
ATOM     25  O   UNL     1       5.560   6.388  17.034  0.00  0.00    +0.000 OA
ATOM     26  O   UNL     1       5.163   5.191  19.222  0.00  0.00    +0.000 OA
BRANCH  24  27
ATOM     27  N   UNL     1       3.827   4.552  17.157  0.00  0.00    +0.000 NA
ATOM     28  H   UNL     1       3.648   4.867  16.202  0.00  0.00    +0.000 HD
BRANCH  27  29
ATOM     29  C   UNL     1       4.354   3.181  17.326  0.00  0.00    +0.000 C 
BRANCH  29  30
ATOM     30  C   UNL     1       3.254   2.188  17.712  0.00  0.00    +0.000 C 
BRANCH  30  31
ATOM     31  C   UNL     1       2.611   2.597  19.020  0.00  0.00    +0.000 A 
ATOM     32  C   UNL     1       3.300   2.470  20.235  0.00  0.00    +0.000 A 
ATOM     33  C   UNL     1       2.669   2.783  21.443  0.00  0.00    +0.000 A 
ATOM     34  C   UNL     1       1.347   3.225  21.450  0.00  0.00    +0.000 A 
ATOM     35  C   UNL     1       0.656   3.361  20.248  0.00  0.00    +0.000 A 
ATOM     36  C   UNL     1       1.282   3.047  19.040  0.00  0.00    +0.000 A 
ENDBRANCH  30  31
ENDBRANCH  29  30
ENDBRANCH  27  29
ENDBRANCH  24  27
ENDBRANCH   4  24
TORSDOF 11
ENDMDL
MODEL 9
REMARK VINA RESULT:      -7.8      2.814      3.765
REMARK  Name = 
REMARK  12 active torsions:
REMARK  status: ('A' for Active; 'I' for Inactive)
REMARK    1  A    between atoms: C_1  and  O_2
REMARK    2  A    between atoms: O_2  and  C_3
REMARK    3  A    between atoms: C_3  and  C_5
REMARK    4  A    between atoms: C_10  and  O_11
REMARK    5  A    between atoms: O_11  and  C_12
REMARK    6  A    between atoms: C_12  and  C_13
REMARK    7  A    between atoms: N_15  and  C_16
REMARK    8  A    between atoms: C_19  and  S_20
REMARK    9  A    between atoms: S_20  and  N_23
REMARK   10  A    between atoms: N_23  and  C_24
REMARK   11  A    between atoms: C_24  and  C_25
REMARK   12  A    between atoms: C_25  and  C_26
REMARK                            x       y       z     vdW  Elec       q    Type
REMARK                         _______ _______ _______ _____ _____    ______ ____
ROOT
ATOM      1  C   UNL     1       2.088   8.023  19.308  0.00  0.00    +0.000 A 
ATOM      2  C   UNL     1       2.557   8.527  18.085  0.00  0.00    +0.000 A 
ATOM      3  C   UNL     1       3.474   7.787  17.354  0.00  0.00    +0.000 A 
ATOM      4  C   UNL     1       3.885   6.539  17.829  0.00  0.00    +0.000 A 
ATOM      5  C   UNL     1       3.389   6.015  19.030  0.00  0.00    +0.000 A 
ATOM      6  C   UNL     1       2.500   6.779  19.791  0.00  0.00    +0.000 A 
ENDROOT
BRANCH   1   9
ATOM      7  C   UNL     1       0.192  10.503  20.939  0.00  0.00    +0.000 A 
ATOM      8  C   UNL     1       0.841  10.103  19.802  0.00  0.00    +0.000 A 
ATOM      9  N   UNL     1       1.217   8.815  20.066  0.00  0.00    +0.000 N 
ATOM     10  N   UNL     1       0.664   8.394  21.223  0.00  0.00    +0.000 NA
ATOM     11  N   UNL     1       0.087   9.440  21.798  0.00  0.00    +0.000 NA
BRANCH   7  12
ATOM     12  C   UNL     1      -0.513  11.772  21.185  0.00  0.00    +0.000 C 
BRANCH  12  13
ATOM     13  O   UNL     1      -0.387  12.262  22.529  0.00  0.00    +0.000 OA
BRANCH  13  19
ATOM     14  C   UNL     1      -1.690  14.178  23.261  0.00  0.00    +0.000 A 
ATOM     15  C   UNL     1      -2.927  14.652  23.756  0.00  0.00    +0.000 A 
ATOM     16  C   UNL     1      -3.975  13.789  24.078  0.00  0.00    +0.000 A 
ATOM     17  C   UNL     1      -3.810  12.425  23.921  0.00  0.00    +0.000 A 
ATOM     18  C   UNL     1      -2.613  11.939  23.418  0.00  0.00    +0.000 A 
ATOM     19  C   UNL     1      -1.547  12.789  23.046  0.00  0.00    +0.000 A 
BRANCH  14  20
ATOM     20  C   UNL     1      -0.669  15.252  23.049  0.00  0.00    +0.000 C 
ATOM     21  O   UNL     1       0.213  15.478  23.858  0.00  0.00    +0.000 OA
BRANCH  20  23
ATOM     22  C   UNL     1       0.092  15.475  20.840  0.00  0.00    +0.000 C 
ATOM     23  O   UNL     1      -0.815  15.898  21.863  0.00  0.00    +0.000 OA
ENDBRANCH  20  23
ENDBRANCH  14  20
ENDBRANCH  13  19
ENDBRANCH  12  13
ENDBRANCH   7  12
ENDBRANCH   1   9
BRANCH   4  24
ATOM     24  S   UNL     1       5.021   5.592  16.851  0.00  0.00    +0.000 S 
ATOM     25  O   UNL     1       5.243   6.322  15.628  0.00  0.00    +0.000 OA
ATOM     26  O   UNL     1       6.116   5.177  17.702  0.00  0.00    +0.000 OA
BRANCH  24  27
ATOM     27  N   UNL     1       4.125   4.211  16.453  0.00  0.00    +0.000 NA
ATOM     28  H   UNL     1       4.181   4.060  15.444  0.00  0.00    +0.000 HD
BRANCH  27  29
ATOM     29  C   UNL     1       4.349   3.038  17.323  0.00  0.00    +0.000 C 
BRANCH  29  30
ATOM     30  C   UNL     1       3.052   2.273  17.599  0.00  0.00    +0.000 C 
BRANCH  30  31
ATOM     31  C   UNL     1       2.521   2.615  18.975  0.00  0.00    +0.000 A 
ATOM     32  C   UNL     1       3.320   2.463  20.117  0.00  0.00    +0.000 A 
ATOM     33  C   UNL     1       2.795   2.713  21.388  0.00  0.00    +0.000 A 
ATOM     34  C   UNL     1       1.469   3.118  21.532  0.00  0.00    +0.000 A 
ATOM     35  C   UNL     1       0.668   3.279  20.403  0.00  0.00    +0.000 A 
ATOM     36  C   UNL     1       1.189   3.027  19.133  0.00  0.00    +0.000 A 
ENDBRANCH  30  31
ENDBRANCH  29  30
ENDBRANCH  27  29
ENDBRANCH  24  27
ENDBRANCH   4  24
TORSDOF 11
ENDMDL
