MODEL 1
REMARK VINA RESULT:      -7.9      0.000      0.000
REMARK  Name = 
REMARK  3 active torsions:
REMARK  status: ('A' for Active; 'I' for Inactive)
REMARK    1  A    between atoms: C_1  and  C_2
REMARK    2  A    between atoms: C_2  and  C_3
REMARK    3  A    between atoms: C_6  and  C_7
REMARK                            x       y       z     vdW  Elec       q    Type
REMARK                         _______ _______ _______ _____ _____    ______ ____
ROOT
ATOM      1  C   UNL     1       5.602   5.036  18.777  0.00  0.00    +0.000 A 
ATOM      2  N   UNL     1       4.576   5.799  19.093  0.00  0.00    +0.000 NA
ATOM      3  C   UNL     1       3.636   4.972  19.667  0.00  0.00    +0.000 A 
ATOM      4  C   UNL     1       2.380   5.272  20.222  0.00  0.00    +0.000 A 
ATOM      5  C   UNL     1       1.612   4.214  20.739  0.00  0.00    +0.000 A 
ATOM      6  C   UNL     1       2.087   2.897  20.705  0.00  0.00    +0.000 A 
ATOM      7  C   UNL     1       3.341   2.591  20.165  0.00  0.00    +0.000 A 
ATOM      8  C   UNL     1       4.086   3.658  19.660  0.00  0.00    +0.000 A 
ATOM      9  N   UNL     1       5.333   3.721  19.086  0.00  0.00    +0.000 N 
ATOM     10  H   UNL     1       5.953   2.940  18.935  0.00  0.00    +0.000 HD
ENDROOT
BRANCH   1  12
ATOM     11  C   UNL     1       7.931   5.727  19.303  0.00  0.00    +0.000 C 
ATOM     12  C   UNL     1       6.910   5.511  18.170  0.00  0.00    +0.000 C 
ATOM     13  C   UNL     1       7.461   4.444  17.189  0.00  0.00    +0.000 C 
ATOM     14  C   UNL     1       6.613   4.321  15.918  0.00  0.00    +0.000 C 
ATOM     15  N   UNL     1       6.466   5.608  15.239  0.00  0.00    +0.000 NA
ATOM     16  C   UNL     1       5.873   6.616  16.117  0.00  0.00    +0.000 C 
ATOM     17  C   UNL     1       6.712   6.823  17.380  0.00  0.00    +0.000 C 
ATOM     18  H   UNL     1       5.856   5.477  14.430  0.00  0.00    +0.000 HD
ENDBRANCH   1  12
BRANCH   4  19
ATOM     19  C   UNL     1       1.864   6.661  20.288  0.00  0.00    +0.000 C 
ATOM     20  N   UNL     1       2.247   7.524  19.302  0.00  0.00    +0.000 N 
ATOM     21  O   UNL     1       1.127   7.026  21.196  0.00  0.00    +0.000 OA
ATOM     22  H   UNL     1       2.841   7.211  18.538  0.00  0.00    +0.000 HD
ATOM     23  H   UNL     1       1.902   8.471  19.313  0.00  0.00    +0.000 HD
ENDBRANCH   4  19
TORSDOF 2
ENDMDL
MODEL 2
REMARK VINA RESULT:      -7.9      2.366      5.631
REMARK  Name = 
REMARK  3 active torsions:
REMARK  status: ('A' for Active; 'I' for Inactive)
REMARK    1  A    between atoms: C_1  and  C_2
REMARK    2  A    between atoms: C_2  and  C_3
REMARK    3  A    between atoms: C_6  and  C_7
REMARK                            x       y       z     vdW  Elec       q    Type
REMARK                         _______ _______ _______ _____ _____    ______ ____
ROOT
ATOM      1  C   UNL     1       3.560   4.849  19.037  0.00  0.00    +0.000 A 
ATOM      2  N   UNL     1       4.779   5.262  19.314  0.00  0.00    +0.000 NA
ATOM      3  C   UNL     1       5.546   4.994  18.201  0.00  0.00    +0.000 A 
ATOM      4  C   UNL     1       6.899   5.270  17.943  0.00  0.00    +0.000 A 
ATOM      5  C   UNL     1       7.434   4.872  16.705  0.00  0.00    +0.000 A 
ATOM      6  C   UNL     1       6.639   4.220  15.755  0.00  0.00    +0.000 A 
ATOM      7  C   UNL     1       5.287   3.952  15.999  0.00  0.00    +0.000 A 
ATOM      8  C   UNL     1       4.778   4.358  17.233  0.00  0.00    +0.000 A 
ATOM      9  N   UNL     1       3.524   4.272  17.787  0.00  0.00    +0.000 N 
ATOM     10  H   UNL     1       2.710   3.872  17.344  0.00  0.00    +0.000 HD
ENDROOT
BRANCH   1  12
ATOM     11  C   UNL     1       2.022   6.483  20.106  0.00  0.00    +0.000 C 
ATOM     12  C   UNL     1       2.348   4.986  19.940  0.00  0.00    +0.000 C 
ATOM     13  C   UNL     1       1.127   4.270  19.306  0.00  0.00    +0.000 C 
ATOM     14  C   UNL     1       1.278   2.745  19.302  0.00  0.00    +0.000 C 
ATOM     15  N   UNL     1       1.533   2.223  20.644  0.00  0.00    +0.000 NA
ATOM     16  C   UNL     1       2.727   2.822  21.238  0.00  0.00    +0.000 C 
ATOM     17  C   UNL     1       2.607   4.346  21.320  0.00  0.00    +0.000 C 
ATOM     18  H   UNL     1       1.672   1.213  20.576  0.00  0.00    +0.000 HD
ENDBRANCH   1  12
BRANCH   4  19
ATOM     19  C   UNL     1       7.756   5.978  18.925  0.00  0.00    +0.000 C 
ATOM     20  N   UNL     1       8.001   5.353  20.114  0.00  0.00    +0.000 N 
ATOM     21  O   UNL     1       8.225   7.084  18.684  0.00  0.00    +0.000 OA
ATOM     22  H   UNL     1       7.628   4.425  20.301  0.00  0.00    +0.000 HD
ATOM     23  H   UNL     1       8.590   5.804  20.797  0.00  0.00    +0.000 HD
ENDBRANCH   4  19
TORSDOF 2
ENDMDL
MODEL 3
REMARK VINA RESULT:      -7.8      2.366      5.555
REMARK  Name = 
REMARK  3 active torsions:
REMARK  status: ('A' for Active; 'I' for Inactive)
REMARK    1  A    between atoms: C_1  and  C_2
REMARK    2  A    between atoms: C_2  and  C_3
REMARK    3  A    between atoms: C_6  and  C_7
REMARK                            x       y       z     vdW  Elec       q    Type
REMARK                         _______ _______ _______ _____ _____    ______ ____
ROOT
ATOM      1  C   UNL     1       4.237   3.521  18.804  0.00  0.00    +0.000 A 
ATOM      2  N   UNL     1       4.344   4.148  17.651  0.00  0.00    +0.000 NA
ATOM      3  C   UNL     1       5.451   4.961  17.748  0.00  0.00    +0.000 A 
ATOM      4  C   UNL     1       6.042   5.808  16.795  0.00  0.00    +0.000 A 
ATOM      5  C   UNL     1       7.181   6.541  17.173  0.00  0.00    +0.000 A 
ATOM      6  C   UNL     1       7.714   6.427  18.463  0.00  0.00    +0.000 A 
ATOM      7  C   UNL     1       7.139   5.576  19.414  0.00  0.00    +0.000 A 
ATOM      8  C   UNL     1       6.010   4.858  19.015  0.00  0.00    +0.000 A 
ATOM      9  N   UNL     1       5.221   3.944  19.670  0.00  0.00    +0.000 N 
ATOM     10  H   UNL     1       5.352   3.622  20.617  0.00  0.00    +0.000 HD
ENDROOT
BRANCH   1  12
ATOM     11  C   UNL     1       3.739   1.086  18.751  0.00  0.00    +0.000 C 
ATOM     12  C   UNL     1       3.198   2.472  19.153  0.00  0.00    +0.000 C 
ATOM     13  C   UNL     1       2.920   2.483  20.678  0.00  0.00    +0.000 C 
ATOM     14  C   UNL     1       2.178   3.745  21.131  0.00  0.00    +0.000 C 
ATOM     15  N   UNL     1       0.934   3.937  20.386  0.00  0.00    +0.000 NA
ATOM     16  C   UNL     1       1.173   4.011  18.946  0.00  0.00    +0.000 C 
ATOM     17  C   UNL     1       1.864   2.747  18.427  0.00  0.00    +0.000 C 
ATOM     18  H   UNL     1       0.507   4.813  20.693  0.00  0.00    +0.000 HD
ENDBRANCH   1  12
BRANCH   4  19
ATOM     19  C   UNL     1       5.509   5.930  15.416  0.00  0.00    +0.000 C 
ATOM     20  N   UNL     1       5.505   4.807  14.640  0.00  0.00    +0.000 N 
ATOM     21  O   UNL     1       5.092   6.998  14.985  0.00  0.00    +0.000 OA
ATOM     22  H   UNL     1       5.832   3.917  15.010  0.00  0.00    +0.000 HD
ATOM     23  H   UNL     1       5.138   4.856  13.703  0.00  0.00    +0.000 HD
ENDBRANCH   4  19
TORSDOF 2
ENDMDL
MODEL 4
REMARK VINA RESULT:      -7.7      1.936      3.080
REMARK  Name = 
REMARK  3 active torsions:
REMARK  status: ('A' for Active; 'I' for Inactive)
REMARK    1  A    between atoms: C_1  and  C_2
REMARK    2  A    between atoms: C_2  and  C_3
REMARK    3  A    between atoms: C_6  and  C_7
REMARK                            x       y       z     vdW  Elec       q    Type
REMARK                         _______ _______ _______ _____ _____    ______ ____
ROOT
ATOM      1  C   UNL     1       5.625   5.216  18.563  0.00  0.00    +0.000 A 
ATOM      2  N   UNL     1       5.681   4.019  19.110  0.00  0.00    +0.000 NA
ATOM      3  C   UNL     1       4.469   3.815  19.731  0.00  0.00    +0.000 A 
ATOM      4  C   UNL     1       3.981   2.694  20.424  0.00  0.00    +0.000 A 
ATOM      5  C   UNL     1       2.689   2.763  20.973  0.00  0.00    +0.000 A 
ATOM      6  C   UNL     1       1.909   3.917  20.833  0.00  0.00    +0.000 A 
ATOM      7  C   UNL     1       2.382   5.033  20.134  0.00  0.00    +0.000 A 
ATOM      8  C   UNL     1       3.667   4.941  19.596  0.00  0.00    +0.000 A 
ATOM      9  N   UNL     1       4.422   5.819  18.856  0.00  0.00    +0.000 N 
ATOM     10  H   UNL     1       4.135   6.739  18.561  0.00  0.00    +0.000 HD
ENDROOT
BRANCH   1  12
ATOM     11  C   UNL     1       7.792   6.431  18.653  0.00  0.00    +0.000 C 
ATOM     12  C   UNL     1       6.709   5.860  17.718  0.00  0.00    +0.000 C 
ATOM     13  C   UNL     1       7.353   4.805  16.783  0.00  0.00    +0.000 C 
ATOM     14  C   UNL     1       6.400   4.341  15.676  0.00  0.00    +0.000 C 
ATOM     15  N   UNL     1       5.889   5.467  14.896  0.00  0.00    +0.000 NA
ATOM     16  C   UNL     1       5.204   6.443  15.742  0.00  0.00    +0.000 C 
ATOM     17  C   UNL     1       6.129   6.985  16.834  0.00  0.00    +0.000 C 
ATOM     18  H   UNL     1       5.226   5.107  14.207  0.00  0.00    +0.000 HD
ENDBRANCH   1  12
BRANCH   4  19
ATOM     19  C   UNL     1       4.780   1.453  20.568  0.00  0.00    +0.000 C 
ATOM     20  N   UNL     1       4.811   0.595  19.506  0.00  0.00    +0.000 N 
ATOM     21  O   UNL     1       5.387   1.200  21.602  0.00  0.00    +0.000 OA
ATOM     22  H   UNL     1       4.323   0.819  18.642  0.00  0.00    +0.000 HD
ATOM     23  H   UNL     1       5.355  -0.251  19.570  0.00  0.00    +0.000 HD
ENDBRANCH   4  19
TORSDOF 2
ENDMDL
MODEL 5
REMARK VINA RESULT:      -7.7      2.232      3.370
REMARK  Name = 
REMARK  3 active torsions:
REMARK  status: ('A' for Active; 'I' for Inactive)
REMARK    1  A    between atoms: C_1  and  C_2
REMARK    2  A    between atoms: C_2  and  C_3
REMARK    3  A    between atoms: C_6  and  C_7
REMARK                            x       y       z     vdW  Elec       q    Type
REMARK                         _______ _______ _______ _____ _____    ______ ____
ROOT
ATOM      1  C   UNL     1       5.121   4.397  17.276  0.00  0.00    +0.000 A 
ATOM      2  N   UNL     1       5.031   3.758  18.424  0.00  0.00    +0.000 NA
ATOM      3  C   UNL     1       3.687   3.586  18.671  0.00  0.00    +0.000 A 
ATOM      4  C   UNL     1       3.034   2.931  19.730  0.00  0.00    +0.000 A 
ATOM      5  C   UNL     1       1.629   2.915  19.736  0.00  0.00    +0.000 A 
ATOM      6  C   UNL     1       0.898   3.533  18.714  0.00  0.00    +0.000 A 
ATOM      7  C   UNL     1       1.539   4.177  17.650  0.00  0.00    +0.000 A 
ATOM      8  C   UNL     1       2.935   4.178  17.664  0.00  0.00    +0.000 A 
ATOM      9  N   UNL     1       3.866   4.691  16.792  0.00  0.00    +0.000 N 
ATOM     10  H   UNL     1       3.663   5.182  15.935  0.00  0.00    +0.000 HD
ENDROOT
BRANCH   1  12
ATOM     11  C   UNL     1       6.528   3.898  15.288  0.00  0.00    +0.000 C 
ATOM     12  C   UNL     1       6.409   4.761  16.559  0.00  0.00    +0.000 C 
ATOM     13  C   UNL     1       6.390   6.257  16.155  0.00  0.00    +0.000 C 
ATOM     14  C   UNL     1       6.491   7.193  17.364  0.00  0.00    +0.000 C 
ATOM     15  N   UNL     1       7.672   6.902  18.176  0.00  0.00    +0.000 NA
ATOM     16  C   UNL     1       7.677   5.515  18.641  0.00  0.00    +0.000 C 
ATOM     17  C   UNL     1       7.635   4.532  17.469  0.00  0.00    +0.000 C 
ATOM     18  H   UNL     1       7.664   7.520  18.989  0.00  0.00    +0.000 HD
ENDBRANCH   1  12
BRANCH   4  19
ATOM     19  C   UNL     1       3.786   2.251  20.812  0.00  0.00    +0.000 C 
ATOM     20  N   UNL     1       5.012   1.736  20.502  0.00  0.00    +0.000 N 
ATOM     21  O   UNL     1       3.325   2.149  21.943  0.00  0.00    +0.000 OA
ATOM     22  H   UNL     1       5.400   1.843  19.568  0.00  0.00    +0.000 HD
ATOM     23  H   UNL     1       5.552   1.279  21.221  0.00  0.00    +0.000 HD
ENDBRANCH   4  19
TORSDOF 2
ENDMDL
MODEL 6
REMARK VINA RESULT:      -7.7      2.433      5.581
REMARK  Name = 
REMARK  3 active torsions:
REMARK  status: ('A' for Active; 'I' for Inactive)
REMARK    1  A    between atoms: C_1  and  C_2
REMARK    2  A    between atoms: C_2  and  C_3
REMARK    3  A    between atoms: C_6  and  C_7
REMARK                            x       y       z     vdW  Elec       q    Type
REMARK                         _______ _______ _______ _____ _____    ______ ____
ROOT
ATOM      1  C   UNL     1       4.466   3.357  18.904  0.00  0.00    +0.000 A 
ATOM      2  N   UNL     1       5.471   4.169  19.155  0.00  0.00    +0.000 NA
ATOM      3  C   UNL     1       5.958   4.579  17.934  0.00  0.00    +0.000 A 
ATOM      4  C   UNL     1       6.991   5.479  17.624  0.00  0.00    +0.000 A 
ATOM      5  C   UNL     1       7.287   5.709  16.269  0.00  0.00    +0.000 A 
ATOM      6  C   UNL     1       6.570   5.062  15.256  0.00  0.00    +0.000 A 
ATOM      7  C   UNL     1       5.531   4.173  15.555  0.00  0.00    +0.000 A 
ATOM      8  C   UNL     1       5.254   3.962  16.907  0.00  0.00    +0.000 A 
ATOM      9  N   UNL     1       4.316   3.187  17.546  0.00  0.00    +0.000 N 
ATOM     10  H   UNL     1       3.624   2.609  17.095  0.00  0.00    +0.000 HD
ENDROOT
BRANCH   1  12
ATOM     11  C   UNL     1       4.432   1.744  20.796  0.00  0.00    +0.000 C 
ATOM     12  C   UNL     1       3.575   2.697  19.941  0.00  0.00    +0.000 C 
ATOM     13  C   UNL     1       2.942   3.771  20.862  0.00  0.00    +0.000 C 
ATOM     14  C   UNL     1       1.903   4.630  20.134  0.00  0.00    +0.000 C 
ATOM     15  N   UNL     1       0.860   3.811  19.517  0.00  0.00    +0.000 NA
ATOM     16  C   UNL     1       1.421   2.839  18.580  0.00  0.00    +0.000 C 
ATOM     17  C   UNL     1       2.427   1.913  19.269  0.00  0.00    +0.000 C 
ATOM     18  H   UNL     1       0.224   4.429  19.009  0.00  0.00    +0.000 HD
ENDBRANCH   1  12
BRANCH   4  19
ATOM     19  C   UNL     1       7.751   6.194  18.678  0.00  0.00    +0.000 C 
ATOM     20  N   UNL     1       7.977   5.532  19.850  0.00  0.00    +0.000 N 
ATOM     21  O   UNL     1       8.159   7.337  18.509  0.00  0.00    +0.000 OA
ATOM     22  H   UNL     1       7.657   4.575  19.978  0.00  0.00    +0.000 HD
ATOM     23  H   UNL     1       8.502   5.987  20.581  0.00  0.00    +0.000 HD
ENDBRANCH   4  19
TORSDOF 2
ENDMDL
MODEL 7
REMARK VINA RESULT:      -7.6      1.638      1.850
REMARK  Name = 
REMARK  3 active torsions:
REMARK  status: ('A' for Active; 'I' for Inactive)
REMARK    1  A    between atoms: C_1  and  C_2
REMARK    2  A    between atoms: C_2  and  C_3
REMARK    3  A    between atoms: C_6  and  C_7
REMARK                            x       y       z     vdW  Elec       q    Type
REMARK                         _______ _______ _______ _____ _____    ______ ____
ROOT
ATOM      1  C   UNL     1       5.228   4.558  18.177  0.00  0.00    +0.000 A 
ATOM      2  N   UNL     1       4.471   4.698  19.246  0.00  0.00    +0.000 NA
ATOM      3  C   UNL     1       3.490   3.735  19.160  0.00  0.00    +0.000 A 
ATOM      4  C   UNL     1       2.454   3.411  20.052  0.00  0.00    +0.000 A 
ATOM      5  C   UNL     1       1.577   2.370  19.702  0.00  0.00    +0.000 A 
ATOM      6  C   UNL     1       1.733   1.672  18.499  0.00  0.00    +0.000 A 
ATOM      7  C   UNL     1       2.769   1.979  17.610  0.00  0.00    +0.000 A 
ATOM      8  C   UNL     1       3.629   3.015  17.979  0.00  0.00    +0.000 A 
ATOM      9  N   UNL     1       4.734   3.558  17.370  0.00  0.00    +0.000 N 
ATOM     10  H   UNL     1       5.128   3.260  16.490  0.00  0.00    +0.000 HD
ENDROOT
BRANCH   1  12
ATOM     11  C   UNL     1       7.253   5.605  19.169  0.00  0.00    +0.000 C 
ATOM     12  C   UNL     1       6.477   5.360  17.860  0.00  0.00    +0.000 C 
ATOM     13  C   UNL     1       7.380   4.574  16.876  0.00  0.00    +0.000 C 
ATOM     14  C   UNL     1       6.771   4.474  15.473  0.00  0.00    +0.000 C 
ATOM     15  N   UNL     1       6.451   5.792  14.927  0.00  0.00    +0.000 NA
ATOM     16  C   UNL     1       5.535   6.528  15.796  0.00  0.00    +0.000 C 
ATOM     17  C   UNL     1       6.118   6.709  17.200  0.00  0.00    +0.000 C 
ATOM     18  H   UNL     1       6.007   5.663  14.015  0.00  0.00    +0.000 HD
ENDBRANCH   1  12
BRANCH   4  19
ATOM     19  C   UNL     1       2.280   4.122  21.342  0.00  0.00    +0.000 C 
ATOM     20  N   UNL     1       2.241   5.486  21.310  0.00  0.00    +0.000 N 
ATOM     21  O   UNL     1       2.180   3.512  22.400  0.00  0.00    +0.000 OA
ATOM     22  H   UNL     1       2.301   5.989  20.428  0.00  0.00    +0.000 HD
ATOM     23  H   UNL     1       2.111   5.997  22.170  0.00  0.00    +0.000 HD
ENDBRANCH   4  19
TORSDOF 2
ENDMDL
MODEL 8
REMARK VINA RESULT:      -7.5      2.108      3.333
REMARK  Name = 
REMARK  3 active torsions:
REMARK  status: ('A' for Active; 'I' for Inactive)
REMARK    1  A    between atoms: C_1  and  C_2
REMARK    2  A    between atoms: C_2  and  C_3
REMARK    3  A    between atoms: C_6  and  C_7
REMARK                            x       y       z     vdW  Elec       q    Type
REMARK                         _______ _______ _______ _____ _____    ______ ____
ROOT
ATOM      1  C   UNL     1       4.296   5.613  17.342  0.00  0.00    +0.000 A 
ATOM      2  N   UNL     1       3.605   4.495  17.426  0.00  0.00    +0.000 NA
ATOM      3  C   UNL     1       2.775   4.629  18.517  0.00  0.00    +0.000 A 
ATOM      4  C   UNL     1       1.801   3.756  19.030  0.00  0.00    +0.000 A 
ATOM      5  C   UNL     1       1.095   4.150  20.180  0.00  0.00    +0.000 A 
ATOM      6  C   UNL     1       1.353   5.380  20.796  0.00  0.00    +0.000 A 
ATOM      7  C   UNL     1       2.313   6.261  20.285  0.00  0.00    +0.000 A 
ATOM      8  C   UNL     1       3.000   5.850  19.142  0.00  0.00    +0.000 A 
ATOM      9  N   UNL     1       3.972   6.455  18.383  0.00  0.00    +0.000 N 
ATOM     10  H   UNL     1       4.367   7.368  18.549  0.00  0.00    +0.000 HD
ENDROOT
BRANCH   1  12
ATOM     11  C   UNL     1       4.742   7.116  15.413  0.00  0.00    +0.000 C 
ATOM     12  C   UNL     1       5.303   5.958  16.259  0.00  0.00    +0.000 C 
ATOM     13  C   UNL     1       6.643   6.402  16.899  0.00  0.00    +0.000 C 
ATOM     14  C   UNL     1       7.380   5.244  17.581  0.00  0.00    +0.000 C 
ATOM     15  N   UNL     1       7.601   4.128  16.663  0.00  0.00    +0.000 NA
ATOM     16  C   UNL     1       6.344   3.633  16.103  0.00  0.00    +0.000 C 
ATOM     17  C   UNL     1       5.590   4.737  15.358  0.00  0.00    +0.000 C 
ATOM     18  H   UNL     1       8.051   3.370  17.180  0.00  0.00    +0.000 HD
ENDBRANCH   1  12
BRANCH   4  19
ATOM     19  C   UNL     1       1.494   2.457  18.383  0.00  0.00    +0.000 C 
ATOM     20  N   UNL     1       2.532   1.773  17.818  0.00  0.00    +0.000 N 
ATOM     21  O   UNL     1       0.353   2.013  18.350  0.00  0.00    +0.000 OA
ATOM     22  H   UNL     1       3.482   2.134  17.867  0.00  0.00    +0.000 HD
ATOM     23  H   UNL     1       2.357   0.881  17.382  0.00  0.00    +0.000 HD
ENDBRANCH   4  19
TORSDOF 2
ENDMDL
MODEL 9
REMARK VINA RESULT:      -7.5      2.049      3.439
REMARK  Name = 
REMARK  3 active torsions:
REMARK  status: ('A' for Active; 'I' for Inactive)
REMARK    1  A    between atoms: C_1  and  C_2
REMARK    2  A    between atoms: C_2  and  C_3
REMARK    3  A    between atoms: C_6  and  C_7
REMARK                            x       y       z     vdW  Elec       q    Type
REMARK                         _______ _______ _______ _____ _____    ______ ____
ROOT
ATOM      1  C   UNL     1       4.387   5.404  18.182  0.00  0.00    +0.000 A 
ATOM      2  N   UNL     1       4.742   4.248  18.703  0.00  0.00    +0.000 NA
ATOM      3  C   UNL     1       3.743   3.892  19.582  0.00  0.00    +0.000 A 
ATOM      4  C   UNL     1       3.593   2.736  20.367  0.00  0.00    +0.000 A 
ATOM      5  C   UNL     1       2.460   2.636  21.193  0.00  0.00    +0.000 A 
ATOM      6  C   UNL     1       1.504   3.658  21.230  0.00  0.00    +0.000 A 
ATOM      7  C   UNL     1       1.638   4.807  20.441  0.00  0.00    +0.000 A 
ATOM      8  C   UNL     1       2.770   4.883  19.628  0.00  0.00    +0.000 A 
ATOM      9  N   UNL     1       3.202   5.835  18.737  0.00  0.00    +0.000 N 
ATOM     10  H   UNL     1       2.723   6.694  18.512  0.00  0.00    +0.000 HD
ENDROOT
BRANCH   1  12
ATOM     11  C   UNL     1       4.374   7.462  16.787  0.00  0.00    +0.000 C 
ATOM     12  C   UNL     1       5.147   6.170  17.114  0.00  0.00    +0.000 C 
ATOM     13  C   UNL     1       6.561   6.543  17.629  0.00  0.00    +0.000 C 
ATOM     14  C   UNL     1       7.474   5.321  17.775  0.00  0.00    +0.000 C 
ATOM     15  N   UNL     1       7.571   4.567  16.525  0.00  0.00    +0.000 NA
ATOM     16  C   UNL     1       6.257   4.131  16.055  0.00  0.00    +0.000 C 
ATOM     17  C   UNL     1       5.318   5.319  15.837  0.00  0.00    +0.000 C 
ATOM     18  H   UNL     1       8.151   3.742  16.691  0.00  0.00    +0.000 HD
ENDBRANCH   1  12
BRANCH   4  19
ATOM     19  C   UNL     1       4.581   1.631  20.331  0.00  0.00    +0.000 C 
ATOM     20  N   UNL     1       4.590   0.829  19.225  0.00  0.00    +0.000 N 
ATOM     21  O   UNL     1       5.359   1.437  21.257  0.00  0.00    +0.000 OA
ATOM     22  H   UNL     1       3.958   1.007  18.448  0.00  0.00    +0.000 HD
ATOM     23  H   UNL     1       5.259   0.077  19.166  0.00  0.00    +0.000 HD
ENDBRANCH   4  19
TORSDOF 2
ENDMDL
