MODEL 1
REMARK VINA RESULT:      -6.7      0.000      0.000
REMARK  Name = 
REMARK  8 active torsions:
REMARK  status: ('A' for Active; 'I' for Inactive)
REMARK    1  A    between atoms: C_1  and  O_2
REMARK    2  A    between atoms: O_2  and  C_3
REMARK    3  A    between atoms: C_3  and  C_4
REMARK    4  A    between atoms: C_4  and  N_5
REMARK    5  A    between atoms: C_9  and  O_10
REMARK    6  A    between atoms: C_9  and  C_11
REMARK    7  A    between atoms: C_11  and  N_12
REMARK    8  A    between atoms: C_18  and  C_19
REMARK                            x       y       z     vdW  Elec       q    Type
REMARK                         _______ _______ _______ _____ _____    ______ ____
ROOT
ATOM      1  C   UNL     1       1.738   6.894  18.278  0.00  0.00    +0.000 C 
ENDROOT
BRANCH   1   2
ATOM      2  N   UNL     1       2.249   8.052  19.038  0.00  0.00    +0.000 NA
ATOM      3  C   UNL     1       2.120   9.336  18.311  0.00  0.00    +0.000 C 
ATOM      4  C   UNL     1       0.743  10.054  18.441  0.00  0.00    +0.000 C 
ATOM      5  N   UNL     1       0.393  10.153  19.863  0.00  0.00    +0.000 N 
ATOM      6  C   UNL     1      -0.657  11.006  20.186  0.00  0.00    +0.000 A 
ATOM      7  C   UNL     1      -0.621  11.633  21.437  0.00  0.00    +0.000 A 
ATOM      8  C   UNL     1      -1.577  12.586  21.782  0.00  0.00    +0.000 A 
ATOM      9  C   UNL     1      -1.463  13.346  23.068  0.00  0.00    +0.000 C 
ATOM     10  C   UNL     1      -2.588  12.861  20.866  0.00  0.00    +0.000 A 
ATOM     11  C   UNL     1      -2.571  12.186  19.655  0.00  0.00    +0.000 A 
ATOM     12  N   UNL     1      -1.629  11.285  19.293  0.00  0.00    +0.000 NA
ATOM     13  C   UNL     1       0.362   8.850  20.541  0.00  0.00    +0.000 C 
ATOM     14  C   UNL     1       1.765   8.221  20.424  0.00  0.00    +0.000 C 
ENDBRANCH   1   2
BRANCH   1  19
ATOM     15  N   UNL     1       4.726   4.654  17.504  0.00  0.00    +0.000 N 
ATOM     16  C   UNL     1       4.163   3.359  17.165  0.00  0.00    +0.000 C 
ATOM     17  C   UNL     1       2.788   3.127  17.790  0.00  0.00    +0.000 C 
ATOM     18  C   UNL     1       1.889   4.373  17.678  0.00  0.00    +0.000 C 
ATOM     19  C   UNL     1       2.610   5.598  18.270  0.00  0.00    +0.000 C 
ATOM     20  C   UNL     1       3.917   5.783  17.454  0.00  0.00    +0.000 C 
ATOM     21  O   UNL     1       4.254   6.809  16.873  0.00  0.00    +0.000 OA
BRANCH  19  22
ATOM     22  O   UNL     1       2.917   5.226  19.633  0.00  0.00    +0.000 OA
ATOM     23  H   UNL     1       3.790   5.606  19.843  0.00  0.00    +0.000 HD
ENDBRANCH  19  22
BRANCH  15  24
ATOM     24  C   UNL     1       6.113   4.817  17.918  0.00  0.00    +0.000 C 
BRANCH  24  25
ATOM     25  C   UNL     1       7.159   4.828  16.809  0.00  0.00    +0.000 C 
BRANCH  25  27
ATOM     26  C   UNL     1       7.587   7.004  17.593  0.00  0.00    +0.000 C 
ATOM     27  O   UNL     1       7.496   6.164  16.453  0.00  0.00    +0.000 OA
ENDBRANCH  25  27
ENDBRANCH  24  25
ENDBRANCH  15  24
ENDBRANCH   1  19
TORSDOF 6
ENDMDL
MODEL 2
REMARK VINA RESULT:      -6.6      1.620      2.917
REMARK  Name = 
REMARK  8 active torsions:
REMARK  status: ('A' for Active; 'I' for Inactive)
REMARK    1  A    between atoms: C_1  and  O_2
REMARK    2  A    between atoms: O_2  and  C_3
REMARK    3  A    between atoms: C_3  and  C_4
REMARK    4  A    between atoms: C_4  and  N_5
REMARK    5  A    between atoms: C_9  and  O_10
REMARK    6  A    between atoms: C_9  and  C_11
REMARK    7  A    between atoms: C_11  and  N_12
REMARK    8  A    between atoms: C_18  and  C_19
REMARK                            x       y       z     vdW  Elec       q    Type
REMARK                         _______ _______ _______ _____ _____    ______ ____
ROOT
ATOM      1  C   UNL     1       1.942   6.710  18.466  0.00  0.00    +0.000 C 
ENDROOT
BRANCH   1   2
ATOM      2  N   UNL     1       2.318   8.025  19.024  0.00  0.00    +0.000 NA
ATOM      3  C   UNL     1       2.088   9.149  18.086  0.00  0.00    +0.000 C 
ATOM      4  C   UNL     1       0.645   9.737  18.075  0.00  0.00    +0.000 C 
ATOM      5  N   UNL     1       0.246  10.040  19.455  0.00  0.00    +0.000 N 
ATOM      6  C   UNL     1      -0.890  10.827  19.614  0.00  0.00    +0.000 A 
ATOM      7  C   UNL     1      -0.950  11.656  20.740  0.00  0.00    +0.000 A 
ATOM      8  C   UNL     1      -2.002  12.554  20.906  0.00  0.00    +0.000 A 
ATOM      9  C   UNL     1      -2.000  13.527  22.045  0.00  0.00    +0.000 C 
ATOM     10  C   UNL     1      -3.009  12.568  19.945  0.00  0.00    +0.000 A 
ATOM     11  C   UNL     1      -2.892  11.703  18.866  0.00  0.00    +0.000 A 
ATOM     12  N   UNL     1      -1.858  10.853  18.676  0.00  0.00    +0.000 NA
ATOM     13  C   UNL     1       0.321   8.873  20.345  0.00  0.00    +0.000 C 
ATOM     14  C   UNL     1       1.780   8.376  20.354  0.00  0.00    +0.000 C 
ENDBRANCH   1   2
BRANCH   1  19
ATOM     15  N   UNL     1       4.322   3.876  19.389  0.00  0.00    +0.000 N 
ATOM     16  C   UNL     1       5.601   4.237  18.804  0.00  0.00    +0.000 C 
ATOM     17  C   UNL     1       5.461   5.163  17.597  0.00  0.00    +0.000 C 
ATOM     18  C   UNL     1       4.424   6.276  17.844  0.00  0.00    +0.000 C 
ATOM     19  C   UNL     1       3.082   5.658  18.276  0.00  0.00    +0.000 C 
ATOM     20  C   UNL     1       3.356   4.858  19.577  0.00  0.00    +0.000 C 
ATOM     21  O   UNL     1       2.769   5.009  20.642  0.00  0.00    +0.000 OA
BRANCH  19  22
ATOM     22  O   UNL     1       2.722   4.761  17.200  0.00  0.00    +0.000 OA
ATOM     23  H   UNL     1       1.864   5.063  16.852  0.00  0.00    +0.000 HD
ENDBRANCH  19  22
BRANCH  15  24
ATOM     24  C   UNL     1       3.998   2.509  19.773  0.00  0.00    +0.000 C 
BRANCH  24  25
ATOM     25  C   UNL     1       3.542   1.576  18.657  0.00  0.00    +0.000 C 
BRANCH  25  27
ATOM     26  C   UNL     1       1.242   2.042  18.809  0.00  0.00    +0.000 C 
ATOM     27  O   UNL     1       2.401   2.110  17.994  0.00  0.00    +0.000 OA
ENDBRANCH  25  27
ENDBRANCH  24  25
ENDBRANCH  15  24
ENDBRANCH   1  19
TORSDOF 6
ENDMDL
MODEL 3
REMARK VINA RESULT:      -6.6      1.622      1.975
REMARK  Name = 
REMARK  8 active torsions:
REMARK  status: ('A' for Active; 'I' for Inactive)
REMARK    1  A    between atoms: C_1  and  O_2
REMARK    2  A    between atoms: O_2  and  C_3
REMARK    3  A    between atoms: C_3  and  C_4
REMARK    4  A    between atoms: C_4  and  N_5
REMARK    5  A    between atoms: C_9  and  O_10
REMARK    6  A    between atoms: C_9  and  C_11
REMARK    7  A    between atoms: C_11  and  N_12
REMARK    8  A    between atoms: C_18  and  C_19
REMARK                            x       y       z     vdW  Elec       q    Type
REMARK                         _______ _______ _______ _____ _____    ______ ____
ROOT
ATOM      1  C   UNL     1       1.261   6.392  20.005  0.00  0.00    +0.000 C 
ENDROOT
BRANCH   1   2
ATOM      2  N   UNL     1       1.908   7.681  20.327  0.00  0.00    +0.000 NA
ATOM      3  C   UNL     1       1.879   8.649  19.206  0.00  0.00    +0.000 C 
ATOM      4  C   UNL     1       0.583   9.505  19.083  0.00  0.00    +0.000 C 
ATOM      5  N   UNL     1       0.292  10.115  20.387  0.00  0.00    +0.000 N 
ATOM      6  C   UNL     1      -0.659  11.129  20.399  0.00  0.00    +0.000 A 
ATOM      7  C   UNL     1      -0.520  12.135  21.363  0.00  0.00    +0.000 A 
ATOM      8  C   UNL     1      -1.367  13.242  21.363  0.00  0.00    +0.000 A 
ATOM      9  C   UNL     1      -1.137  14.376  22.315  0.00  0.00    +0.000 C 
ATOM     10  C   UNL     1      -2.378  13.292  20.408  0.00  0.00    +0.000 A 
ATOM     11  C   UNL     1      -2.467  12.249  19.498  0.00  0.00    +0.000 A 
ATOM     12  N   UNL     1      -1.629  11.188  19.465  0.00  0.00    +0.000 NA
ATOM     13  C   UNL     1       0.159   9.128  21.467  0.00  0.00    +0.000 C 
ATOM     14  C   UNL     1       1.490   8.356  21.572  0.00  0.00    +0.000 C 
ENDBRANCH   1   2
BRANCH   1  19
ATOM     15  N   UNL     1       3.044   3.339  18.575  0.00  0.00    +0.000 N 
ATOM     16  C   UNL     1       2.912   2.304  19.584  0.00  0.00    +0.000 C 
ATOM     17  C   UNL     1       2.724   2.868  20.992  0.00  0.00    +0.000 C 
ATOM     18  C   UNL     1       1.729   4.045  21.010  0.00  0.00    +0.000 C 
ATOM     19  C   UNL     1       2.165   5.118  19.994  0.00  0.00    +0.000 C 
ATOM     20  C   UNL     1       2.186   4.432  18.603  0.00  0.00    +0.000 C 
ATOM     21  O   UNL     1       1.578   4.817  17.610  0.00  0.00    +0.000 OA
BRANCH  19  22
ATOM     22  O   UNL     1       3.505   5.486  20.394  0.00  0.00    +0.000 OA
ATOM     23  H   UNL     1       3.805   6.180  19.780  0.00  0.00    +0.000 HD
ENDBRANCH  19  22
BRANCH  15  24
ATOM     24  C   UNL     1       4.062   3.287  17.534  0.00  0.00    +0.000 C 
BRANCH  24  25
ATOM     25  C   UNL     1       5.192   4.306  17.634  0.00  0.00    +0.000 C 
BRANCH  25  27
ATOM     26  C   UNL     1       6.668   5.362  19.131  0.00  0.00    +0.000 C 
ATOM     27  O   UNL     1       5.784   4.271  18.928  0.00  0.00    +0.000 OA
ENDBRANCH  25  27
ENDBRANCH  24  25
ENDBRANCH  15  24
ENDBRANCH   1  19
TORSDOF 6
ENDMDL
MODEL 4
REMARK VINA RESULT:      -6.3      4.378      8.757
REMARK  Name = 
REMARK  8 active torsions:
REMARK  status: ('A' for Active; 'I' for Inactive)
REMARK    1  A    between atoms: C_1  and  O_2
REMARK    2  A    between atoms: O_2  and  C_3
REMARK    3  A    between atoms: C_3  and  C_4
REMARK    4  A    between atoms: C_4  and  N_5
REMARK    5  A    between atoms: C_9  and  O_10
REMARK    6  A    between atoms: C_9  and  C_11
REMARK    7  A    between atoms: C_11  and  N_12
REMARK    8  A    between atoms: C_18  and  C_19
REMARK                            x       y       z     vdW  Elec       q    Type
REMARK                         _______ _______ _______ _____ _____    ______ ____
ROOT
ATOM      1  C   UNL     1       2.037  11.179  19.113  0.00  0.00    +0.000 C 
ENDROOT
BRANCH   1   2
ATOM      2  N   UNL     1       1.036  10.100  18.987  0.00  0.00    +0.000 NA
ATOM      3  C   UNL     1       1.313   9.169  17.868  0.00  0.00    +0.000 C 
ATOM      4  C   UNL     1       2.302   8.007  18.182  0.00  0.00    +0.000 C 
ATOM      5  N   UNL     1       1.862   7.328  19.408  0.00  0.00    +0.000 N 
ATOM      6  C   UNL     1       2.455   6.102  19.685  0.00  0.00    +0.000 A 
ATOM      7  C   UNL     1       1.692   5.156  20.381  0.00  0.00    +0.000 A 
ATOM      8  C   UNL     1       2.177   3.868  20.593  0.00  0.00    +0.000 A 
ATOM      9  C   UNL     1       1.310   2.823  21.226  0.00  0.00    +0.000 C 
ATOM     10  C   UNL     1       3.456   3.566  20.134  0.00  0.00    +0.000 A 
ATOM     11  C   UNL     1       4.161   4.560  19.471  0.00  0.00    +0.000 A 
ATOM     12  N   UNL     1       3.687   5.802  19.227  0.00  0.00    +0.000 NA
ATOM     13  C   UNL     1       1.749   8.236  20.558  0.00  0.00    +0.000 C 
ATOM     14  C   UNL     1       0.717   9.326  20.204  0.00  0.00    +0.000 C 
ENDBRANCH   1   2
BRANCH   1  19
ATOM     15  N   UNL     1       1.627  14.908  19.799  0.00  0.00    +0.000 N 
ATOM     16  C   UNL     1       0.238  15.207  19.503  0.00  0.00    +0.000 C 
ATOM     17  C   UNL     1      -0.379  14.233  18.501  0.00  0.00    +0.000 C 
ATOM     18  C   UNL     1       0.011  12.773  18.806  0.00  0.00    +0.000 C 
ATOM     19  C   UNL     1       1.543  12.645  18.892  0.00  0.00    +0.000 C 
ATOM     20  C   UNL     1       2.007  13.592  20.030  0.00  0.00    +0.000 C 
ATOM     21  O   UNL     1       2.680  13.261  21.001  0.00  0.00    +0.000 OA
BRANCH  19  22
ATOM     22  O   UNL     1       2.028  13.119  17.614  0.00  0.00    +0.000 OA
ATOM     23  H   UNL     1       2.659  12.454  17.284  0.00  0.00    +0.000 HD
ENDBRANCH  19  22
BRANCH  15  24
ATOM     24  C   UNL     1       2.654  15.941  19.845  0.00  0.00    +0.000 C 
BRANCH  24  25
ATOM     25  C   UNL     1       2.985  16.633  18.527  0.00  0.00    +0.000 C 
BRANCH  25  27
ATOM     26  C   UNL     1       1.429  17.909  17.308  0.00  0.00    +0.000 C 
ATOM     27  O   UNL     1       2.298  17.876  18.429  0.00  0.00    +0.000 OA
ENDBRANCH  25  27
ENDBRANCH  24  25
ENDBRANCH  15  24
ENDBRANCH   1  19
TORSDOF 6
ENDMDL
MODEL 5
REMARK VINA RESULT:      -6.2      2.274      2.817
REMARK  Name = 
REMARK  8 active torsions:
REMARK  status: ('A' for Active; 'I' for Inactive)
REMARK    1  A    between atoms: C_1  and  O_2
REMARK    2  A    between atoms: O_2  and  C_3
REMARK    3  A    between atoms: C_3  and  C_4
REMARK    4  A    between atoms: C_4  and  N_5
REMARK    5  A    between atoms: C_9  and  O_10
REMARK    6  A    between atoms: C_9  and  C_11
REMARK    7  A    between atoms: C_11  and  N_12
REMARK    8  A    between atoms: C_18  and  C_19
REMARK                            x       y       z     vdW  Elec       q    Type
REMARK                         _______ _______ _______ _____ _____    ______ ____
ROOT
ATOM      1  C   UNL     1       1.889   6.570  18.381  0.00  0.00    +0.000 C 
ENDROOT
BRANCH   1   2
ATOM      2  N   UNL     1       2.384   7.816  19.002  0.00  0.00    +0.000 NA
ATOM      3  C   UNL     1       2.245   9.004  18.128  0.00  0.00    +0.000 C 
ATOM      4  C   UNL     1       0.859   9.716  18.169  0.00  0.00    +0.000 C 
ATOM      5  N   UNL     1       0.502   9.978  19.568  0.00  0.00    +0.000 N 
ATOM      6  C   UNL     1      -0.559  10.851  19.785  0.00  0.00    +0.000 A 
ATOM      7  C   UNL     1      -0.535  11.621  20.954  0.00  0.00    +0.000 A 
ATOM      8  C   UNL     1      -1.503  12.597  21.182  0.00  0.00    +0.000 A 
ATOM      9  C   UNL     1      -1.403  13.504  22.370  0.00  0.00    +0.000 C 
ATOM     10  C   UNL     1      -2.513  12.750  20.237  0.00  0.00    +0.000 A 
ATOM     11  C   UNL     1      -2.483  11.938  19.113  0.00  0.00    +0.000 A 
ATOM     12  N   UNL     1      -1.530  11.012  18.863  0.00  0.00    +0.000 NA
ATOM     13  C   UNL     1       0.482   8.763  20.394  0.00  0.00    +0.000 C 
ATOM     14  C   UNL     1       1.892   8.140  20.356  0.00  0.00    +0.000 C 
ENDBRANCH   1   2
BRANCH   1  19
ATOM     15  N   UNL     1       1.812   2.820  19.068  0.00  0.00    +0.000 N 
ATOM     16  C   UNL     1       1.399   2.687  20.454  0.00  0.00    +0.000 C 
ATOM     17  C   UNL     1       1.733   3.919  21.293  0.00  0.00    +0.000 C 
ATOM     18  C   UNL     1       1.403   5.228  20.548  0.00  0.00    +0.000 C 
ATOM     19  C   UNL     1       2.097   5.240  19.174  0.00  0.00    +0.000 C 
ATOM     20  C   UNL     1       1.564   4.009  18.394  0.00  0.00    +0.000 C 
ATOM     21  O   UNL     1       1.037   4.042  17.287  0.00  0.00    +0.000 OA
BRANCH  19  22
ATOM     22  O   UNL     1       3.504   5.080  19.466  0.00  0.00    +0.000 OA
ATOM     23  H   UNL     1       3.994   5.344  18.666  0.00  0.00    +0.000 HD
ENDBRANCH  19  22
BRANCH  15  24
ATOM     24  C   UNL     1       2.498   1.752  18.354  0.00  0.00    +0.000 C 
BRANCH  24  25
ATOM     25  C   UNL     1       4.016   1.863  18.256  0.00  0.00    +0.000 C 
BRANCH  25  27
ATOM     26  C   UNL     1       4.864   1.689  20.443  0.00  0.00    +0.000 C 
ATOM     27  O   UNL     1       4.539   2.567  19.377  0.00  0.00    +0.000 OA
ENDBRANCH  25  27
ENDBRANCH  24  25
ENDBRANCH  15  24
ENDBRANCH   1  19
TORSDOF 6
ENDMDL
MODEL 6
REMARK VINA RESULT:      -6.2      1.940      3.501
REMARK  Name = 
REMARK  8 active torsions:
REMARK  status: ('A' for Active; 'I' for Inactive)
REMARK    1  A    between atoms: C_1  and  O_2
REMARK    2  A    between atoms: O_2  and  C_3
REMARK    3  A    between atoms: C_3  and  C_4
REMARK    4  A    between atoms: C_4  and  N_5
REMARK    5  A    between atoms: C_9  and  O_10
REMARK    6  A    between atoms: C_9  and  C_11
REMARK    7  A    between atoms: C_11  and  N_12
REMARK    8  A    between atoms: C_18  and  C_19
REMARK                            x       y       z     vdW  Elec       q    Type
REMARK                         _______ _______ _______ _____ _____    ______ ____
ROOT
ATOM      1  C   UNL     1       4.082   5.610  19.655  0.00  0.00    +0.000 C 
ENDROOT
BRANCH   1   2
ATOM      2  N   UNL     1       2.707   5.755  19.136  0.00  0.00    +0.000 NA
ATOM      3  C   UNL     1       1.690   5.917  20.202  0.00  0.00    +0.000 C 
ATOM      4  C   UNL     1       1.482   7.371  20.723  0.00  0.00    +0.000 C 
ATOM      5  N   UNL     1       1.269   8.261  19.576  0.00  0.00    +0.000 N 
ATOM      6  C   UNL     1       0.790   9.535  19.858  0.00  0.00    +0.000 A 
ATOM      7  C   UNL     1      -0.015  10.153  18.894  0.00  0.00    +0.000 A 
ATOM      8  C   UNL     1      -0.623  11.379  19.155  0.00  0.00    +0.000 A 
ATOM      9  C   UNL     1      -1.582  11.977  18.172  0.00  0.00    +0.000 C 
ATOM     10  C   UNL     1      -0.370  11.987  20.381  0.00  0.00    +0.000 A 
ATOM     11  C   UNL     1       0.453  11.325  21.279  0.00  0.00    +0.000 A 
ATOM     12  N   UNL     1       1.020  10.118  21.052  0.00  0.00    +0.000 NA
ATOM     13  C   UNL     1       2.367   8.214  18.600  0.00  0.00    +0.000 C 
ATOM     14  C   UNL     1       2.482   6.766  18.084  0.00  0.00    +0.000 C 
ENDBRANCH   1   2
BRANCH   1  19
ATOM     15  N   UNL     1       6.158   4.181  16.793  0.00  0.00    +0.000 N 
ATOM     16  C   UNL     1       7.542   4.400  17.170  0.00  0.00    +0.000 C 
ATOM     17  C   UNL     1       7.717   5.574  18.133  0.00  0.00    +0.000 C 
ATOM     18  C   UNL     1       6.644   5.573  19.239  0.00  0.00    +0.000 C 
ATOM     19  C   UNL     1       5.239   5.527  18.609  0.00  0.00    +0.000 C 
ATOM     20  C   UNL     1       5.170   4.224  17.769  0.00  0.00    +0.000 C 
ATOM     21  O   UNL     1       4.323   3.345  17.888  0.00  0.00    +0.000 OA
BRANCH  19  22
ATOM     22  O   UNL     1       5.180   6.685  17.746  0.00  0.00    +0.000 OA
ATOM     23  H   UNL     1       4.770   6.397  16.910  0.00  0.00    +0.000 HD
ENDBRANCH  19  22
BRANCH  15  24
ATOM     24  C   UNL     1       5.755   3.936  15.415  0.00  0.00    +0.000 C 
BRANCH  24  25
ATOM     25  C   UNL     1       6.280   4.910  14.366  0.00  0.00    +0.000 C 
BRANCH  25  27
ATOM     26  C   UNL     1       5.816   3.417  12.609  0.00  0.00    +0.000 C 
ATOM     27  O   UNL     1       6.808   4.205  13.248  0.00  0.00    +0.000 OA
ENDBRANCH  25  27
ENDBRANCH  24  25
ENDBRANCH  15  24
ENDBRANCH   1  19
TORSDOF 6
ENDMDL
MODEL 7
REMARK VINA RESULT:      -6.2      4.371      8.522
REMARK  Name = 
REMARK  8 active torsions:
REMARK  status: ('A' for Active; 'I' for Inactive)
REMARK    1  A    between atoms: C_1  and  O_2
REMARK    2  A    between atoms: O_2  and  C_3
REMARK    3  A    between atoms: C_3  and  C_4
REMARK    4  A    between atoms: C_4  and  N_5
REMARK    5  A    between atoms: C_9  and  O_10
REMARK    6  A    between atoms: C_9  and  C_11
REMARK    7  A    between atoms: C_11  and  N_12
REMARK    8  A    between atoms: C_18  and  C_19
REMARK                            x       y       z     vdW  Elec       q    Type
REMARK                         _______ _______ _______ _____ _____    ______ ____
ROOT
ATOM      1  C   UNL     1       2.066  11.188  19.061  0.00  0.00    +0.000 C 
ENDROOT
BRANCH   1   2
ATOM      2  N   UNL     1       1.059  10.114  18.940  0.00  0.00    +0.000 NA
ATOM      3  C   UNL     1       1.331   9.175  17.827  0.00  0.00    +0.000 C 
ATOM      4  C   UNL     1       2.313   8.008  18.149  0.00  0.00    +0.000 C 
ATOM      5  N   UNL     1       1.868   7.340  19.378  0.00  0.00    +0.000 N 
ATOM      6  C   UNL     1       2.453   6.111  19.663  0.00  0.00    +0.000 A 
ATOM      7  C   UNL     1       1.684   5.174  20.363  0.00  0.00    +0.000 A 
ATOM      8  C   UNL     1       2.162   3.884  20.584  0.00  0.00    +0.000 A 
ATOM      9  C   UNL     1       1.288   2.848  21.221  0.00  0.00    +0.000 C 
ATOM     10  C   UNL     1       3.439   3.572  20.127  0.00  0.00    +0.000 A 
ATOM     11  C   UNL     1       4.151   4.558  19.459  0.00  0.00    +0.000 A 
ATOM     12  N   UNL     1       3.685   5.802  19.207  0.00  0.00    +0.000 NA
ATOM     13  C   UNL     1       1.759   8.254  20.523  0.00  0.00    +0.000 C 
ATOM     14  C   UNL     1       0.735   9.348  20.161  0.00  0.00    +0.000 C 
ENDBRANCH   1   2
BRANCH   1  19
ATOM     15  N   UNL     1       1.606  14.896  19.821  0.00  0.00    +0.000 N 
ATOM     16  C   UNL     1       0.231  15.198  19.466  0.00  0.00    +0.000 C 
ATOM     17  C   UNL     1      -0.332  14.247  18.411  0.00  0.00    +0.000 C 
ATOM     18  C   UNL     1       0.050  12.782  18.697  0.00  0.00    +0.000 C 
ATOM     19  C   UNL     1       1.577  12.657  18.854  0.00  0.00    +0.000 C 
ATOM     20  C   UNL     1       1.980  13.576  20.037  0.00  0.00    +0.000 C 
ATOM     21  O   UNL     1       2.607  13.223  21.031  0.00  0.00    +0.000 OA
BRANCH  19  22
ATOM     22  O   UNL     1       2.121  13.166  17.614  0.00  0.00    +0.000 OA
ATOM     23  H   UNL     1       3.007  13.517  17.815  0.00  0.00    +0.000 HD
ENDBRANCH  19  22
BRANCH  15  24
ATOM     24  C   UNL     1       2.624  15.931  19.943  0.00  0.00    +0.000 C 
BRANCH  24  25
ATOM     25  C   UNL     1       3.779  15.871  18.949  0.00  0.00    +0.000 C 
BRANCH  25  27
ATOM     26  C   UNL     1       5.796  17.082  18.933  0.00  0.00    +0.000 C 
ATOM     27  O   UNL     1       4.385  17.152  18.809  0.00  0.00    +0.000 OA
ENDBRANCH  25  27
ENDBRANCH  24  25
ENDBRANCH  15  24
ENDBRANCH   1  19
TORSDOF 6
ENDMDL
MODEL 8
REMARK VINA RESULT:      -6.2      3.428      9.452
REMARK  Name = 
REMARK  8 active torsions:
REMARK  status: ('A' for Active; 'I' for Inactive)
REMARK    1  A    between atoms: C_1  and  O_2
REMARK    2  A    between atoms: O_2  and  C_3
REMARK    3  A    between atoms: C_3  and  C_4
REMARK    4  A    between atoms: C_4  and  N_5
REMARK    5  A    between atoms: C_9  and  O_10
REMARK    6  A    between atoms: C_9  and  C_11
REMARK    7  A    between atoms: C_11  and  N_12
REMARK    8  A    between atoms: C_18  and  C_19
REMARK                            x       y       z     vdW  Elec       q    Type
REMARK                         _______ _______ _______ _____ _____    ______ ____
ROOT
ATOM      1  C   UNL     1      -0.282  10.036  19.950  0.00  0.00    +0.000 C 
ENDROOT
BRANCH   1   2
ATOM      2  N   UNL     1       1.194   9.987  19.929  0.00  0.00    +0.000 NA
ATOM      3  C   UNL     1       1.758   8.893  20.753  0.00  0.00    +0.000 C 
ATOM      4  C   UNL     1       1.854   7.501  20.058  0.00  0.00    +0.000 C 
ATOM      5  N   UNL     1       2.530   7.663  18.766  0.00  0.00    +0.000 N 
ATOM      6  C   UNL     1       2.954   6.497  18.137  0.00  0.00    +0.000 A 
ATOM      7  C   UNL     1       4.094   6.576  17.328  0.00  0.00    +0.000 A 
ATOM      8  C   UNL     1       4.643   5.428  16.759  0.00  0.00    +0.000 A 
ATOM      9  C   UNL     1       5.932   5.497  16.000  0.00  0.00    +0.000 C 
ATOM     10  C   UNL     1       3.999   4.215  16.983  0.00  0.00    +0.000 A 
ATOM     11  C   UNL     1       2.862   4.217  17.778  0.00  0.00    +0.000 A 
ATOM     12  N   UNL     1       2.341   5.318  18.365  0.00  0.00    +0.000 NA
ATOM     13  C   UNL     1       1.866   8.635  17.886  0.00  0.00    +0.000 C 
ATOM     14  C   UNL     1       1.854   9.997  18.607  0.00  0.00    +0.000 C 
ENDBRANCH   1   2
BRANCH   1  19
ATOM     15  N   UNL     1      -2.790  12.897  20.209  0.00  0.00    +0.000 N 
ATOM     16  C   UNL     1      -2.007  14.070  20.553  0.00  0.00    +0.000 C 
ATOM     17  C   UNL     1      -0.705  13.724  21.274  0.00  0.00    +0.000 C 
ATOM     18  C   UNL     1       0.012  12.526  20.620  0.00  0.00    +0.000 C 
ATOM     19  C   UNL     1      -0.949  11.327  20.523  0.00  0.00    +0.000 C 
ATOM     20  C   UNL     1      -2.154  11.790  19.662  0.00  0.00    +0.000 C 
ATOM     21  O   UNL     1      -2.559  11.232  18.647  0.00  0.00    +0.000 OA
BRANCH  19  22
ATOM     22  O   UNL     1      -1.371  11.077  21.884  0.00  0.00    +0.000 OA
ATOM     23  H   UNL     1      -1.254  11.910  22.376  0.00  0.00    +0.000 HD
ENDBRANCH  19  22
BRANCH  15  24
ATOM     24  C   UNL     1      -4.228  12.826  20.434  0.00  0.00    +0.000 C 
BRANCH  24  25
ATOM     25  C   UNL     1      -4.707  13.060  21.862  0.00  0.00    +0.000 C 
BRANCH  25  27
ATOM     26  C   UNL     1      -3.719  12.894  23.991  0.00  0.00    +0.000 C 
ATOM     27  O   UNL     1      -3.998  12.225  22.771  0.00  0.00    +0.000 OA
ENDBRANCH  25  27
ENDBRANCH  24  25
ENDBRANCH  15  24
ENDBRANCH   1  19
TORSDOF 6
ENDMDL
MODEL 9
REMARK VINA RESULT:      -6.1      3.845      8.537
REMARK  Name = 
REMARK  8 active torsions:
REMARK  status: ('A' for Active; 'I' for Inactive)
REMARK    1  A    between atoms: C_1  and  O_2
REMARK    2  A    between atoms: O_2  and  C_3
REMARK    3  A    between atoms: C_3  and  C_4
REMARK    4  A    between atoms: C_4  and  N_5
REMARK    5  A    between atoms: C_9  and  O_10
REMARK    6  A    between atoms: C_9  and  C_11
REMARK    7  A    between atoms: C_11  and  N_12
REMARK    8  A    between atoms: C_18  and  C_19
REMARK                            x       y       z     vdW  Elec       q    Type
REMARK                         _______ _______ _______ _____ _____    ______ ____
ROOT
ATOM      1  C   UNL     1       1.891  11.324  19.066  0.00  0.00    +0.000 C 
ENDROOT
BRANCH   1   2
ATOM      2  N   UNL     1       0.925  10.219  18.901  0.00  0.00    +0.000 NA
ATOM      3  C   UNL     1       1.265   9.302  17.788  0.00  0.00    +0.000 C 
ATOM      4  C   UNL     1       2.273   8.165  18.131  0.00  0.00    +0.000 C 
ATOM      5  N   UNL     1       1.811   7.468  19.338  0.00  0.00    +0.000 N 
ATOM      6  C   UNL     1       2.426   6.256  19.630  0.00  0.00    +0.000 A 
ATOM      7  C   UNL     1       1.666   5.287  20.295  0.00  0.00    +0.000 A 
ATOM      8  C   UNL     1       2.178   4.011  20.518  0.00  0.00    +0.000 A 
ATOM      9  C   UNL     1       1.318   2.940  21.116  0.00  0.00    +0.000 C 
ATOM     10  C   UNL     1       3.479   3.746  20.101  0.00  0.00    +0.000 A 
ATOM     11  C   UNL     1       4.180   4.762  19.467  0.00  0.00    +0.000 A 
ATOM     12  N   UNL     1       3.681   5.993  19.213  0.00  0.00    +0.000 NA
ATOM     13  C   UNL     1       1.634   8.366  20.488  0.00  0.00    +0.000 C 
ATOM     14  C   UNL     1       0.586   9.430  20.103  0.00  0.00    +0.000 C 
ENDBRANCH   1   2
BRANCH   1  19
ATOM     15  N   UNL     1       0.475  14.327  20.941  0.00  0.00    +0.000 N 
ATOM     16  C   UNL     1      -0.588  14.846  20.099  0.00  0.00    +0.000 C 
ATOM     17  C   UNL     1      -0.395  14.504  18.622  0.00  0.00    +0.000 C 
ATOM     18  C   UNL     1       0.055  13.043  18.426  0.00  0.00    +0.000 C 
ATOM     19  C   UNL     1       1.312  12.760  19.269  0.00  0.00    +0.000 C 
ATOM     20  C   UNL     1       0.925  13.027  20.748  0.00  0.00    +0.000 C 
ATOM     21  O   UNL     1       1.047  12.228  21.670  0.00  0.00    +0.000 OA
BRANCH  19  22
ATOM     22  O   UNL     1       2.286  13.731  18.821  0.00  0.00    +0.000 OA
ATOM     23  H   UNL     1       1.790  14.506  18.502  0.00  0.00    +0.000 HD
ENDBRANCH  19  22
BRANCH  15  24
ATOM     24  C   UNL     1       1.107  15.129  21.980  0.00  0.00    +0.000 C 
BRANCH  24  25
ATOM     25  C   UNL     1       2.586  15.448  21.789  0.00  0.00    +0.000 C 
BRANCH  25  27
ATOM     26  C   UNL     1       4.650  14.333  21.969  0.00  0.00    +0.000 C 
ATOM     27  O   UNL     1       3.391  14.577  22.577  0.00  0.00    +0.000 OA
ENDBRANCH  25  27
ENDBRANCH  24  25
ENDBRANCH  15  24
ENDBRANCH   1  19
TORSDOF 6
ENDMDL
