MODEL 1
REMARK VINA RESULT:      -7.8      0.000      0.000
REMARK  Name = 
REMARK  4 active torsions:
REMARK  status: ('A' for Active; 'I' for Inactive)
REMARK    1  A    between atoms: C_1  and  C_2
REMARK    2  A    between atoms: C_2  and  C_3
REMARK    3  A    between atoms: C_3  and  O_4
REMARK    4  A    between atoms: C_21  and  C_22
REMARK                            x       y       z     vdW  Elec       q    Type
REMARK                         _______ _______ _______ _____ _____    ______ ____
ROOT
ATOM      1  C   UNL     1      -1.738  12.919  22.430  0.00  0.00    +0.000 C 
ATOM      2  C   UNL     1      -1.167  14.365  22.282  0.00  0.00    +0.000 C 
ATOM      3  O   UNL     1      -0.454  14.942  23.097  0.00  0.00    +0.000 OA
ATOM      4  O   UNL     1      -1.224  14.762  21.001  0.00  0.00    +0.000 OA
ATOM      5  C   UNL     1       0.042  14.327  20.524  0.00  0.00    +0.000 C 
ATOM      6  C   UNL     1       0.216  12.846  20.794  0.00  0.00    +0.000 A 
ATOM      7  C   UNL     1      -0.471  12.081  21.732  0.00  0.00    +0.000 A 
ATOM      8  C   UNL     1      -0.110  10.548  21.656  0.00  0.00    +0.000 A 
ATOM      9  C   UNL     1       0.661  10.005  20.635  0.00  0.00    +0.000 A 
ATOM     10  N   UNL     1       1.083  10.910  19.667  0.00  0.00    +0.000 N 
ATOM     11  C   UNL     1       1.066  12.254  19.746  0.00  0.00    +0.000 A 
ATOM     12  O   UNL     1       1.614  12.977  18.933  0.00  0.00    +0.000 OA
ATOM     13  C   UNL     1       1.653  10.351  18.473  0.00  0.00    +0.000 C 
ATOM     14  C   UNL     1       1.775   8.932  18.814  0.00  0.00    +0.000 A 
ATOM     15  C   UNL     1       2.400   8.010  17.984  0.00  0.00    +0.000 A 
ATOM     16  C   UNL     1       2.653   6.754  18.482  0.00  0.00    +0.000 A 
ATOM     17  C   UNL     1       3.295   5.819  17.627  0.00  0.00    +0.000 A 
ATOM     18  C   UNL     1       3.626   4.544  18.070  0.00  0.00    +0.000 A 
ATOM     19  C   UNL     1       4.249   3.527  17.146  0.00  0.00    +0.000 C 
ATOM     20  C   UNL     1       3.339   4.267  19.399  0.00  0.00    +0.000 A 
ATOM     21  C   UNL     1       2.679   5.214  20.241  0.00  0.00    +0.000 A 
ATOM     22  C   UNL     1       2.255   6.494  19.818  0.00  0.00    +0.000 A 
ATOM     23  N   UNL     1       1.551   7.438  20.628  0.00  0.00    +0.000 NA
ATOM     24  C   UNL     1       1.284   8.654  20.088  0.00  0.00    +0.000 A 
ENDROOT
BRANCH   1  26
ATOM     25  C   UNL     1      -3.927  12.531  24.219  0.00  0.00    +0.000 C 
ATOM     26  C   UNL     1      -2.616  13.244  23.771  0.00  0.00    +0.000 C 
ENDBRANCH   1  26
BRANCH   1  27
ATOM     27  O   UNL     1      -2.764  12.497  21.494  0.00  0.00    +0.000 OA
ATOM     28  H   UNL     1      -3.290  11.771  21.863  0.00  0.00    +0.000 HD
ENDBRANCH   1  27
TORSDOF 2
ENDMDL
MODEL 2
REMARK VINA RESULT:      -7.8      1.232      1.600
REMARK  Name = 
REMARK  4 active torsions:
REMARK  status: ('A' for Active; 'I' for Inactive)
REMARK    1  A    between atoms: C_1  and  C_2
REMARK    2  A    between atoms: C_2  and  C_3
REMARK    3  A    between atoms: C_3  and  O_4
REMARK    4  A    between atoms: C_21  and  C_22
REMARK                            x       y       z     vdW  Elec       q    Type
REMARK                         _______ _______ _______ _____ _____    ______ ____
ROOT
ATOM      1  C   UNL     1      -3.118  12.687  23.204  0.00  0.00    +0.000 C 
ATOM      2  C   UNL     1      -2.818  14.215  23.321  0.00  0.00    +0.000 C 
ATOM      3  O   UNL     1      -2.236  14.763  24.252  0.00  0.00    +0.000 OA
ATOM      4  O   UNL     1      -2.927  14.807  22.121  0.00  0.00    +0.000 OA
ATOM      5  C   UNL     1      -1.595  14.691  21.639  0.00  0.00    +0.000 C 
ATOM      6  C   UNL     1      -1.158  13.241  21.670  0.00  0.00    +0.000 A 
ATOM      7  C   UNL     1      -1.708  12.218  22.437  0.00  0.00    +0.000 A 
ATOM      8  C   UNL     1      -1.071  10.809  22.128  0.00  0.00    +0.000 A 
ATOM      9  C   UNL     1      -0.198  10.593  21.069  0.00  0.00    +0.000 A 
ATOM     10  N   UNL     1       0.067  11.709  20.283  0.00  0.00    +0.000 N 
ATOM     11  C   UNL     1      -0.197  12.996  20.580  0.00  0.00    +0.000 A 
ATOM     12  O   UNL     1       0.222  13.932  19.923  0.00  0.00    +0.000 OA
ATOM     13  C   UNL     1       0.749  11.471  19.041  0.00  0.00    +0.000 C 
ATOM     14  C   UNL     1       1.123  10.060  19.151  0.00  0.00    +0.000 A 
ATOM     15  C   UNL     1       1.919   9.417  18.211  0.00  0.00    +0.000 A 
ATOM     16  C   UNL     1       2.389   8.160  18.507  0.00  0.00    +0.000 A 
ATOM     17  C   UNL     1       3.205   7.513  17.541  0.00  0.00    +0.000 A 
ATOM     18  C   UNL     1       3.757   6.260  17.784  0.00  0.00    +0.000 A 
ATOM     19  C   UNL     1       4.571   5.542  16.737  0.00  0.00    +0.000 C 
ATOM     20  C   UNL     1       3.504   5.716  19.035  0.00  0.00    +0.000 A 
ATOM     21  C   UNL     1       2.669   6.374  19.989  0.00  0.00    +0.000 A 
ATOM     22  C   UNL     1       2.025   7.611  19.763  0.00  0.00    +0.000 A 
ATOM     23  N   UNL     1       1.147   8.264  20.683  0.00  0.00    +0.000 NA
ATOM     24  C   UNL     1       0.671   9.487  20.337  0.00  0.00    +0.000 A 
ENDROOT
BRANCH   1  26
ATOM     25  C   UNL     1      -5.610  12.443  24.573  0.00  0.00    +0.000 C 
ATOM     26  C   UNL     1      -4.062  12.618  24.537  0.00  0.00    +0.000 C 
ENDBRANCH   1  26
BRANCH   1  27
ATOM     27  O   UNL     1      -4.034  12.254  22.165  0.00  0.00    +0.000 OA
ATOM     28  H   UNL     1      -4.000  11.292  22.053  0.00  0.00    +0.000 HD
ENDBRANCH   1  27
TORSDOF 2
ENDMDL
MODEL 3
REMARK VINA RESULT:      -7.6      1.301      1.714
REMARK  Name = 
REMARK  4 active torsions:
REMARK  status: ('A' for Active; 'I' for Inactive)
REMARK    1  A    between atoms: C_1  and  C_2
REMARK    2  A    between atoms: C_2  and  C_3
REMARK    3  A    between atoms: C_3  and  O_4
REMARK    4  A    between atoms: C_21  and  C_22
REMARK                            x       y       z     vdW  Elec       q    Type
REMARK                         _______ _______ _______ _____ _____    ______ ____
ROOT
ATOM      1  C   UNL     1      -0.898  13.088  20.795  0.00  0.00    +0.000 C 
ATOM      2  C   UNL     1      -0.101  14.343  20.318  0.00  0.00    +0.000 C 
ATOM      3  O   UNL     1       0.673  15.004  21.002  0.00  0.00    +0.000 OA
ATOM      4  O   UNL     1      -0.061  14.390  18.977  0.00  0.00    +0.000 OA
ATOM      5  C   UNL     1       1.132  13.664  18.714  0.00  0.00    +0.000 C 
ATOM      6  C   UNL     1       1.062  12.299  19.368  0.00  0.00    +0.000 A 
ATOM      7  C   UNL     1       0.238  11.918  20.424  0.00  0.00    +0.000 A 
ATOM      8  C   UNL     1       0.353  10.385  20.770  0.00  0.00    +0.000 A 
ATOM      9  C   UNL     1       1.054   9.484  19.978  0.00  0.00    +0.000 A 
ATOM     10  N   UNL     1       1.640  10.028  18.840  0.00  0.00    +0.000 N 
ATOM     11  C   UNL     1       1.834  11.332  18.567  0.00  0.00    +0.000 A 
ATOM     12  O   UNL     1       2.511  11.725  17.634  0.00  0.00    +0.000 OA
ATOM     13  C   UNL     1       2.145   9.095  17.871  0.00  0.00    +0.000 C 
ATOM     14  C   UNL     1       2.031   7.816  18.574  0.00  0.00    +0.000 A 
ATOM     15  C   UNL     1       2.523   6.625  18.054  0.00  0.00    +0.000 A 
ATOM     16  C   UNL     1       2.560   5.523  18.874  0.00  0.00    +0.000 A 
ATOM     17  C   UNL     1       3.068   4.311  18.334  0.00  0.00    +0.000 A 
ATOM     18  C   UNL     1       3.180   3.165  19.113  0.00  0.00    +0.000 A 
ATOM     19  C   UNL     1       3.659   1.860  18.527  0.00  0.00    +0.000 C 
ATOM     20  C   UNL     1       2.819   3.296  20.446  0.00  0.00    +0.000 A 
ATOM     21  C   UNL     1       2.296   4.518  20.969  0.00  0.00    +0.000 A 
ATOM     22  C   UNL     1       2.092   5.688  20.203  0.00  0.00    +0.000 A 
ATOM     23  N   UNL     1       1.526   6.906  20.693  0.00  0.00    +0.000 NA
ATOM     24  C   UNL     1       1.469   7.960  19.840  0.00  0.00    +0.000 A 
ENDROOT
BRANCH   1  26
ATOM     25  C   UNL     1      -1.526  13.805  23.485  0.00  0.00    +0.000 C 
ATOM     26  C   UNL     1      -1.748  13.881  21.945  0.00  0.00    +0.000 C 
ENDBRANCH   1  26
BRANCH   1  27
ATOM     27  O   UNL     1      -1.953  12.588  19.933  0.00  0.00    +0.000 OA
ATOM     28  H   UNL     1      -2.807  12.595  20.393  0.00  0.00    +0.000 HD
ENDBRANCH   1  27
TORSDOF 2
ENDMDL
MODEL 4
REMARK VINA RESULT:      -7.4      1.533      3.207
REMARK  Name = 
REMARK  4 active torsions:
REMARK  status: ('A' for Active; 'I' for Inactive)
REMARK    1  A    between atoms: C_1  and  C_2
REMARK    2  A    between atoms: C_2  and  C_3
REMARK    3  A    between atoms: C_3  and  O_4
REMARK    4  A    between atoms: C_21  and  C_22
REMARK                            x       y       z     vdW  Elec       q    Type
REMARK                         _______ _______ _______ _____ _____    ______ ____
ROOT
ATOM      1  C   UNL     1       0.676  14.500  21.349  0.00  0.00    +0.000 C 
ATOM      2  C   UNL     1      -0.648  14.883  22.084  0.00  0.00    +0.000 C 
ATOM      3  O   UNL     1      -1.688  15.248  21.546  0.00  0.00    +0.000 OA
ATOM      4  O   UNL     1      -0.642  14.403  23.338  0.00  0.00    +0.000 OA
ATOM      5  C   UNL     1      -1.243  13.130  23.145  0.00  0.00    +0.000 C 
ATOM      6  C   UNL     1      -0.480  12.352  22.092  0.00  0.00    +0.000 A 
ATOM      7  C   UNL     1       0.368  12.873  21.118  0.00  0.00    +0.000 A 
ATOM      8  C   UNL     1       1.080  11.756  20.264  0.00  0.00    +0.000 A 
ATOM      9  C   UNL     1       1.013  10.406  20.583  0.00  0.00    +0.000 A 
ATOM     10  N   UNL     1       0.283  10.103  21.727  0.00  0.00    +0.000 N 
ATOM     11  C   UNL     1      -0.571  10.911  22.386  0.00  0.00    +0.000 A 
ATOM     12  O   UNL     1      -1.307  10.521  23.274  0.00  0.00    +0.000 OA
ATOM     13  C   UNL     1       0.406   8.764  22.231  0.00  0.00    +0.000 C 
ATOM     14  C   UNL     1       1.157   8.093  21.168  0.00  0.00    +0.000 A 
ATOM     15  C   UNL     1       1.409   6.727  21.171  0.00  0.00    +0.000 A 
ATOM     16  C   UNL     1       1.932   6.159  20.035  0.00  0.00    +0.000 A 
ATOM     17  C   UNL     1       2.183   4.761  20.047  0.00  0.00    +0.000 A 
ATOM     18  C   UNL     1       2.669   4.105  18.922  0.00  0.00    +0.000 A 
ATOM     19  C   UNL     1       2.997   2.632  18.951  0.00  0.00    +0.000 C 
ATOM     20  C   UNL     1       2.839   4.885  17.787  0.00  0.00    +0.000 A 
ATOM     21  C   UNL     1       2.596   6.292  17.797  0.00  0.00    +0.000 A 
ATOM     22  C   UNL     1       2.174   7.019  18.933  0.00  0.00    +0.000 A 
ATOM     23  N   UNL     1       1.971   8.433  18.978  0.00  0.00    +0.000 NA
ATOM     24  C   UNL     1       1.492   8.963  20.132  0.00  0.00    +0.000 A 
ENDROOT
BRANCH   1  26
ATOM     25  C   UNL     1       0.681  16.374  19.197  0.00  0.00    +0.000 C 
ATOM     26  C   UNL     1       0.909  15.977  20.686  0.00  0.00    +0.000 C 
ENDBRANCH   1  26
BRANCH   1  27
ATOM     27  O   UNL     1       1.874  14.339  22.152  0.00  0.00    +0.000 OA
ATOM     28  H   UNL     1       1.873  13.483  22.607  0.00  0.00    +0.000 HD
ENDBRANCH   1  27
TORSDOF 2
ENDMDL
MODEL 5
REMARK VINA RESULT:      -7.4      1.643      3.510
REMARK  Name = 
REMARK  4 active torsions:
REMARK  status: ('A' for Active; 'I' for Inactive)
REMARK    1  A    between atoms: C_1  and  C_2
REMARK    2  A    between atoms: C_2  and  C_3
REMARK    3  A    between atoms: C_3  and  O_4
REMARK    4  A    between atoms: C_21  and  C_22
REMARK                            x       y       z     vdW  Elec       q    Type
REMARK                         _______ _______ _______ _____ _____    ______ ____
ROOT
ATOM      1  C   UNL     1       1.000  13.200  20.299  0.00  0.00    +0.000 C 
ATOM      2  C   UNL     1      -0.303  13.579  21.071  0.00  0.00    +0.000 C 
ATOM      3  O   UNL     1      -1.382  13.866  20.562  0.00  0.00    +0.000 OA
ATOM      4  O   UNL     1      -0.219  13.186  22.352  0.00  0.00    +0.000 OA
ATOM      5  C   UNL     1      -0.773  11.880  22.273  0.00  0.00    +0.000 C 
ATOM      6  C   UNL     1      -0.027  11.064  21.237  0.00  0.00    +0.000 A 
ATOM      7  C   UNL     1       0.751  11.550  20.190  0.00  0.00    +0.000 A 
ATOM      8  C   UNL     1       1.470  10.408  19.377  0.00  0.00    +0.000 A 
ATOM      9  C   UNL     1       1.475   9.080  19.788  0.00  0.00    +0.000 A 
ATOM     10  N   UNL     1       0.812   8.827  20.983  0.00  0.00    +0.000 N 
ATOM     11  C   UNL     1      -0.043   9.643  21.629  0.00  0.00    +0.000 A 
ATOM     12  O   UNL     1      -0.720   9.286  22.576  0.00  0.00    +0.000 OA
ATOM     13  C   UNL     1       1.016   7.531  21.568  0.00  0.00    +0.000 C 
ATOM     14  C   UNL     1       1.744   6.820  20.515  0.00  0.00    +0.000 A 
ATOM     15  C   UNL     1       2.054   5.468  20.596  0.00  0.00    +0.000 A 
ATOM     16  C   UNL     1       2.547   4.845  19.475  0.00  0.00    +0.000 A 
ATOM     17  C   UNL     1       2.858   3.463  19.566  0.00  0.00    +0.000 A 
ATOM     18  C   UNL     1       3.318   2.751  18.465  0.00  0.00    +0.000 A 
ATOM     19  C   UNL     1       3.710   1.298  18.573  0.00  0.00    +0.000 C 
ATOM     20  C   UNL     1       3.402   3.458  17.274  0.00  0.00    +0.000 A 
ATOM     21  C   UNL     1       3.100   4.853  17.203  0.00  0.00    +0.000 A 
ATOM     22  C   UNL     1       2.701   5.638  18.308  0.00  0.00    +0.000 A 
ATOM     23  N   UNL     1       2.440   7.043  18.270  0.00  0.00    +0.000 NA
ATOM     24  C   UNL     1       1.993   7.630  19.409  0.00  0.00    +0.000 A 
ENDROOT
BRANCH   1  26
ATOM     25  C   UNL     1       2.326  15.101  18.633  0.00  0.00    +0.000 C 
ATOM     26  C   UNL     1       1.138  14.637  19.530  0.00  0.00    +0.000 C 
ENDBRANCH   1  26
BRANCH   1  27
ATOM     27  O   UNL     1       2.240  13.142  21.051  0.00  0.00    +0.000 OA
ATOM     28  H   UNL     1       2.164  13.637  21.881  0.00  0.00    +0.000 HD
ENDBRANCH   1  27
TORSDOF 2
ENDMDL
MODEL 6
REMARK VINA RESULT:      -7.2      3.139      8.470
REMARK  Name = 
REMARK  4 active torsions:
REMARK  status: ('A' for Active; 'I' for Inactive)
REMARK    1  A    between atoms: C_1  and  C_2
REMARK    2  A    between atoms: C_2  and  C_3
REMARK    3  A    between atoms: C_3  and  O_4
REMARK    4  A    between atoms: C_21  and  C_22
REMARK                            x       y       z     vdW  Elec       q    Type
REMARK                         _______ _______ _______ _____ _____    ______ ____
ROOT
ATOM      1  C   UNL     1       3.194   4.995  19.679  0.00  0.00    +0.000 C 
ATOM      2  C   UNL     1       3.331   4.688  18.154  0.00  0.00    +0.000 C 
ATOM      3  O   UNL     1       2.568   3.992  17.491  0.00  0.00    +0.000 OA
ATOM      4  O   UNL     1       4.153   5.574  17.570  0.00  0.00    +0.000 OA
ATOM      5  C   UNL     1       3.230   6.581  17.176  0.00  0.00    +0.000 C 
ATOM      6  C   UNL     1       2.431   7.048  18.375  0.00  0.00    +0.000 A 
ATOM      7  C   UNL     1       2.237   6.361  19.571  0.00  0.00    +0.000 A 
ATOM      8  C   UNL     1       1.442   7.202  20.640  0.00  0.00    +0.000 A 
ATOM      9  C   UNL     1       1.143   8.549  20.470  0.00  0.00    +0.000 A 
ATOM     10  N   UNL     1       1.611   9.114  19.288  0.00  0.00    +0.000 N 
ATOM     11  C   UNL     1       2.065   8.465  18.199  0.00  0.00    +0.000 A 
ATOM     12  O   UNL     1       2.291   9.019  17.138  0.00  0.00    +0.000 OA
ATOM     13  C   UNL     1       1.551  10.546  19.195  0.00  0.00    +0.000 C 
ATOM     14  C   UNL     1       0.780  10.909  20.385  0.00  0.00    +0.000 A 
ATOM     15  C   UNL     1       0.366  12.209  20.647  0.00  0.00    +0.000 A 
ATOM     16  C   UNL     1      -0.528  12.415  21.670  0.00  0.00    +0.000 A 
ATOM     17  C   UNL     1      -0.947  13.747  21.927  0.00  0.00    +0.000 A 
ATOM     18  C   UNL     1      -1.883  14.032  22.914  0.00  0.00    +0.000 A 
ATOM     19  C   UNL     1      -2.283  15.451  23.234  0.00  0.00    +0.000 C 
ATOM     20  C   UNL     1      -2.412  12.939  23.585  0.00  0.00    +0.000 A 
ATOM     21  C   UNL     1      -1.969  11.607  23.325  0.00  0.00    +0.000 A 
ATOM     22  C   UNL     1      -0.967  11.271  22.386  0.00  0.00    +0.000 A 
ATOM     23  N   UNL     1      -0.474   9.952  22.142  0.00  0.00    +0.000 NA
ATOM     24  C   UNL     1       0.439   9.796  21.150  0.00  0.00    +0.000 A 
ENDROOT
BRANCH   1  26
ATOM     25  C   UNL     1       2.490   2.712  21.240  0.00  0.00    +0.000 C 
ATOM     26  C   UNL     1       3.342   3.438  20.156  0.00  0.00    +0.000 C 
ENDBRANCH   1  26
BRANCH   1  27
ATOM     27  O   UNL     1       4.320   5.621  20.347  0.00  0.00    +0.000 OA
ATOM     28  H   UNL     1       4.698   5.029  21.015  0.00  0.00    +0.000 HD
ENDBRANCH   1  27
TORSDOF 2
ENDMDL
MODEL 7
REMARK VINA RESULT:      -7.2      1.926      3.950
REMARK  Name = 
REMARK  4 active torsions:
REMARK  status: ('A' for Active; 'I' for Inactive)
REMARK    1  A    between atoms: C_1  and  C_2
REMARK    2  A    between atoms: C_2  and  C_3
REMARK    3  A    between atoms: C_3  and  O_4
REMARK    4  A    between atoms: C_21  and  C_22
REMARK                            x       y       z     vdW  Elec       q    Type
REMARK                         _______ _______ _______ _____ _____    ______ ____
ROOT
ATOM      1  C   UNL     1       1.852  13.441  18.797  0.00  0.00    +0.000 C 
ATOM      2  C   UNL     1       0.492  14.003  19.317  0.00  0.00    +0.000 C 
ATOM      3  O   UNL     1      -0.477  14.296  18.623  0.00  0.00    +0.000 OA
ATOM      4  O   UNL     1       0.362  13.772  20.633  0.00  0.00    +0.000 OA
ATOM      5  C   UNL     1      -0.286  12.507  20.624  0.00  0.00    +0.000 C 
ATOM      6  C   UNL     1       0.524  11.516  19.813  0.00  0.00    +0.000 A 
ATOM      7  C   UNL     1       1.480  11.812  18.845  0.00  0.00    +0.000 A 
ATOM      8  C   UNL     1       2.204  10.528  18.285  0.00  0.00    +0.000 A 
ATOM      9  C   UNL     1       2.038   9.266  18.843  0.00  0.00    +0.000 A 
ATOM     10  N   UNL     1       1.195   9.214  19.948  0.00  0.00    +0.000 N 
ATOM     11  C   UNL     1       0.331  10.161  20.360  0.00  0.00    +0.000 A 
ATOM     12  O   UNL     1      -0.499   9.974  21.231  0.00  0.00    +0.000 OA
ATOM     13  C   UNL     1       1.203   7.991  20.703  0.00  0.00    +0.000 C 
ATOM     14  C   UNL     1       2.008   7.104  19.860  0.00  0.00    +0.000 A 
ATOM     15  C   UNL     1       2.185   5.756  20.142  0.00  0.00    +0.000 A 
ATOM     16  C   UNL     1       2.775   4.963  19.186  0.00  0.00    +0.000 A 
ATOM     17  C   UNL     1       2.950   3.585  19.483  0.00  0.00    +0.000 A 
ATOM     18  C   UNL     1       3.496   2.710  18.552  0.00  0.00    +0.000 A 
ATOM     19  C   UNL     1       3.743   1.259  18.886  0.00  0.00    +0.000 C 
ATOM     20  C   UNL     1       3.806   3.253  17.314  0.00  0.00    +0.000 A 
ATOM     21  C   UNL     1       3.638   4.644  17.037  0.00  0.00    +0.000 A 
ATOM     22  C   UNL     1       3.158   5.588  17.972  0.00  0.00    +0.000 A 
ATOM     23  N   UNL     1       3.026   6.992  17.733  0.00  0.00    +0.000 NA
ATOM     24  C   UNL     1       2.477   7.748  18.717  0.00  0.00    +0.000 A 
ENDROOT
BRANCH   1  26
ATOM     25  C   UNL     1       3.637  15.363  17.673  0.00  0.00    +0.000 C 
ATOM     26  C   UNL     1       2.220  14.755  17.896  0.00  0.00    +0.000 C 
ENDBRANCH   1  26
BRANCH   1  27
ATOM     27  O   UNL     1       2.966  13.394  19.727  0.00  0.00    +0.000 OA
ATOM     28  H   UNL     1       3.692  12.861  19.368  0.00  0.00    +0.000 HD
ENDBRANCH   1  27
TORSDOF 2
ENDMDL
MODEL 8
REMARK VINA RESULT:      -7.2      4.284      9.697
REMARK  Name = 
REMARK  4 active torsions:
REMARK  status: ('A' for Active; 'I' for Inactive)
REMARK    1  A    between atoms: C_1  and  C_2
REMARK    2  A    between atoms: C_2  and  C_3
REMARK    3  A    between atoms: C_3  and  O_4
REMARK    4  A    between atoms: C_21  and  C_22
REMARK                            x       y       z     vdW  Elec       q    Type
REMARK                         _______ _______ _______ _____ _____    ______ ____
ROOT
ATOM      1  C   UNL     1       5.756   5.119  15.470  0.00  0.00    +0.000 C 
ATOM      2  C   UNL     1       6.655   4.205  16.361  0.00  0.00    +0.000 C 
ATOM      3  O   UNL     1       7.813   4.440  16.693  0.00  0.00    +0.000 OA
ATOM      4  O   UNL     1       5.902   3.323  17.037  0.00  0.00    +0.000 OA
ATOM      5  C   UNL     1       5.639   4.048  18.231  0.00  0.00    +0.000 C 
ATOM      6  C   UNL     1       5.021   5.390  17.896  0.00  0.00    +0.000 A 
ATOM      7  C   UNL     1       5.089   6.062  16.679  0.00  0.00    +0.000 A 
ATOM      8  C   UNL     1       4.230   7.384  16.659  0.00  0.00    +0.000 A 
ATOM      9  C   UNL     1       3.353   7.728  17.680  0.00  0.00    +0.000 A 
ATOM     10  N   UNL     1       3.270   6.812  18.723  0.00  0.00    +0.000 N 
ATOM     11  C   UNL     1       4.116   5.797  18.986  0.00  0.00    +0.000 A 
ATOM     12  O   UNL     1       4.079   5.147  20.015  0.00  0.00    +0.000 OA
ATOM     13  C   UNL     1       2.195   7.000  19.657  0.00  0.00    +0.000 C 
ATOM     14  C   UNL     1       1.653   8.300  19.258  0.00  0.00    +0.000 A 
ATOM     15  C   UNL     1       0.656   8.951  19.974  0.00  0.00    +0.000 A 
ATOM     16  C   UNL     1       0.364  10.254  19.646  0.00  0.00    +0.000 A 
ATOM     17  C   UNL     1      -0.654  10.912  20.386  0.00  0.00    +0.000 A 
ATOM     18  C   UNL     1      -0.976  12.242  20.145  0.00  0.00    +0.000 A 
ATOM     19  C   UNL     1      -2.100  12.926  20.884  0.00  0.00    +0.000 C 
ATOM     20  C   UNL     1      -0.212  12.890  19.185  0.00  0.00    +0.000 A 
ATOM     21  C   UNL     1       0.798  12.209  18.440  0.00  0.00    +0.000 A 
ATOM     22  C   UNL     1       1.113  10.840  18.594  0.00  0.00    +0.000 A 
ATOM     23  N   UNL     1       2.086  10.127  17.827  0.00  0.00    +0.000 NA
ATOM     24  C   UNL     1       2.317   8.830  18.154  0.00  0.00    +0.000 A 
ENDROOT
BRANCH   1  26
ATOM     25  C   UNL     1       6.637   3.971  13.010  0.00  0.00    +0.000 C 
ATOM     26  C   UNL     1       6.718   5.030  14.150  0.00  0.00    +0.000 C 
ENDBRANCH   1  26
BRANCH   1  27
ATOM     27  O   UNL     1       4.511   4.565  14.971  0.00  0.00    +0.000 OA
ATOM     28  H   UNL     1       4.401   4.757  14.027  0.00  0.00    +0.000 HD
ENDBRANCH   1  27
TORSDOF 2
ENDMDL
MODEL 9
REMARK VINA RESULT:      -7.2      3.563      8.735
REMARK  Name = 
REMARK  4 active torsions:
REMARK  status: ('A' for Active; 'I' for Inactive)
REMARK    1  A    between atoms: C_1  and  C_2
REMARK    2  A    between atoms: C_2  and  C_3
REMARK    3  A    between atoms: C_3  and  O_4
REMARK    4  A    between atoms: C_21  and  C_22
REMARK                            x       y       z     vdW  Elec       q    Type
REMARK                         _______ _______ _______ _____ _____    ______ ____
ROOT
ATOM      1  C   UNL     1       2.686   4.817  17.962  0.00  0.00    +0.000 C 
ATOM      2  C   UNL     1       2.766   3.936  19.248  0.00  0.00    +0.000 C 
ATOM      3  O   UNL     1       3.794   3.616  19.836  0.00  0.00    +0.000 OA
ATOM      4  O   UNL     1       1.570   3.887  19.857  0.00  0.00    +0.000 OA
ATOM      5  C   UNL     1       1.668   4.997  20.739  0.00  0.00    +0.000 C 
ATOM      6  C   UNL     1       2.008   6.250  19.958  0.00  0.00    +0.000 A 
ATOM      7  C   UNL     1       2.589   6.317  18.695  0.00  0.00    +0.000 A 
ATOM      8  C   UNL     1       2.693   7.790  18.144  0.00  0.00    +0.000 A 
ATOM      9  C   UNL     1       2.092   8.874  18.773  0.00  0.00    +0.000 A 
ATOM     10  N   UNL     1       1.372   8.567  19.922  0.00  0.00    +0.000 N 
ATOM     11  C   UNL     1       1.416   7.421  20.630  0.00  0.00    +0.000 A 
ATOM     12  O   UNL     1       0.893   7.291  21.721  0.00  0.00    +0.000 OA
ATOM     13  C   UNL     1       0.530   9.605  20.448  0.00  0.00    +0.000 C 
ATOM     14  C   UNL     1       0.913  10.763  19.638  0.00  0.00    +0.000 A 
ATOM     15  C   UNL     1       0.431  12.044  19.881  0.00  0.00    +0.000 A 
ATOM     16  C   UNL     1       1.008  13.094  19.208  0.00  0.00    +0.000 A 
ATOM     17  C   UNL     1       0.510  14.399  19.465  0.00  0.00    +0.000 A 
ATOM     18  C   UNL     1       1.070  15.518  18.859  0.00  0.00    +0.000 A 
ATOM     19  C   UNL     1       0.504  16.899  19.080  0.00  0.00    +0.000 C 
ATOM     20  C   UNL     1       2.164  15.283  18.039  0.00  0.00    +0.000 A 
ATOM     21  C   UNL     1       2.642  13.963  17.779  0.00  0.00    +0.000 A 
ATOM     22  C   UNL     1       2.063  12.788  18.310  0.00  0.00    +0.000 A 
ATOM     23  N   UNL     1       2.494  11.455  18.027  0.00  0.00    +0.000 NA
ATOM     24  C   UNL     1       1.872  10.441  18.681  0.00  0.00    +0.000 A 
ENDROOT
BRANCH   1  26
ATOM     25  C   UNL     1       4.908   4.063  16.337  0.00  0.00    +0.000 C 
ATOM     26  C   UNL     1       3.536   3.784  17.022  0.00  0.00    +0.000 C 
ENDBRANCH   1  26
BRANCH   1  27
ATOM     27  O   UNL     1       1.415   4.881  17.262  0.00  0.00    +0.000 OA
ATOM     28  H   UNL     1       1.154   4.005  16.940  0.00  0.00    +0.000 HD
ENDBRANCH   1  27
TORSDOF 2
ENDMDL
