MODEL 1
REMARK VINA RESULT:      -7.8      0.000      0.000
REMARK  Name = 
REMARK  4 active torsions:
REMARK  status: ('A' for Active; 'I' for Inactive)
REMARK    1  A    between atoms: N_3  and  C_4
REMARK    2  A    between atoms: C_7  and  O_8
REMARK    3  A    between atoms: O_8  and  C_9
REMARK    4  A    between atoms: C_13  and  C_15
REMARK                            x       y       z     vdW  Elec       q    Type
REMARK                         _______ _______ _______ _____ _____    ______ ____
ROOT
ATOM      1  C   UNL     1       0.701   9.735  20.184  0.00  0.00    +0.000 A 
ATOM      2  C   UNL     1       1.133   8.635  20.927  0.00  0.00    +0.000 A 
ATOM      3  C   UNL     1       1.831   7.577  20.321  0.00  0.00    +0.000 A 
ATOM      4  C   UNL     1       2.098   7.580  18.952  0.00  0.00    +0.000 A 
ATOM      5  C   UNL     1       1.659   8.673  18.202  0.00  0.00    +0.000 A 
ATOM      6  C   UNL     1       0.963   9.737  18.812  0.00  0.00    +0.000 A 
ENDROOT
BRANCH   1   9
ATOM      7  O   UNL     1      -0.811   9.882  22.669  0.00  0.00    +0.000 OA
ATOM      8  C   UNL     1      -0.717  10.845  21.908  0.00  0.00    +0.000 C 
ATOM      9  N   UNL     1       0.008  10.847  20.738  0.00  0.00    +0.000 N 
ATOM     10  N   UNL     1      -1.366  12.011  22.223  0.00  0.00    +0.000 N 
ATOM     11  C   UNL     1      -1.458  13.278  21.483  0.00  0.00    +0.000 C 
ATOM     12  C   UNL     1      -2.253  14.161  22.395  0.00  0.00    +0.000 A 
ATOM     13  C   UNL     1      -2.608  15.489  22.269  0.00  0.00    +0.000 A 
ATOM     14  C   UNL     1      -3.361  16.034  23.305  0.00  0.00    +0.000 A 
ATOM     15  N   UNL     1      -3.764  15.351  24.407  0.00  0.00    +0.000 NA
ATOM     16  C   UNL     1      -3.400  14.053  24.499  0.00  0.00    +0.000 A 
ATOM     17  C   UNL     1      -2.654  13.442  23.522  0.00  0.00    +0.000 A 
ATOM     18  C   UNL     1      -2.167  12.042  23.450  0.00  0.00    +0.000 C 
ATOM     19  H   UNL     1       0.165  11.741  20.299  0.00  0.00    +0.000 HD
ENDBRANCH   1   9
BRANCH   4  20
ATOM     20  O   UNL     1       2.777   6.477  18.490  0.00  0.00    +0.000 OA
BRANCH  20  21
ATOM     21  C   UNL     1       4.196   6.413  18.696  0.00  0.00    +0.000 C 
ATOM     22  C   UNL     1       4.942   7.067  17.535  0.00  0.00    +0.000 C 
ATOM     23  C   UNL     1       4.935   6.228  16.263  0.00  0.00    +0.000 C 
ATOM     24  N   UNL     1       5.363   4.850  16.480  0.00  0.00    +0.000 N 
ATOM     25  C   UNL     1       5.882   4.054  15.441  0.00  0.00    +0.000 C 
ATOM     26  O   UNL     1       6.042   2.839  15.580  0.00  0.00    +0.000 OA
ATOM     27  C   UNL     1       4.707   4.150  17.582  0.00  0.00    +0.000 C 
ATOM     28  C   UNL     1       4.655   4.960  18.873  0.00  0.00    +0.000 C 
BRANCH  25  29
ATOM     29  C   UNL     1       6.231   4.756  14.099  0.00  0.00    +0.000 C 
ATOM     30  C   UNL     1       6.334   3.795  12.919  0.00  0.00    +0.000 C 
ATOM     31  C   UNL     1       7.259   4.529  11.982  0.00  0.00    +0.000 C 
ATOM     32  C   UNL     1       8.207   5.213  12.939  0.00  0.00    +0.000 C 
ATOM     33  O   UNL     1       7.471   5.480  14.142  0.00  0.00    +0.000 OA
ENDBRANCH  25  29
ENDBRANCH  20  21
ENDBRANCH   4  20
TORSDOF 4
ENDMDL
MODEL 2
REMARK VINA RESULT:      -7.8      0.918      1.452
REMARK  Name = 
REMARK  4 active torsions:
REMARK  status: ('A' for Active; 'I' for Inactive)
REMARK    1  A    between atoms: N_3  and  C_4
REMARK    2  A    between atoms: C_7  and  O_8
REMARK    3  A    between atoms: O_8  and  C_9
REMARK    4  A    between atoms: C_13  and  C_15
REMARK                            x       y       z     vdW  Elec       q    Type
REMARK                         _______ _______ _______ _____ _____    ______ ____
ROOT
ATOM      1  C   UNL     1       0.701   9.533  20.545  0.00  0.00    +0.000 A 
ATOM      2  C   UNL     1       1.143   9.635  19.224  0.00  0.00    +0.000 A 
ATOM      3  C   UNL     1       1.848   8.585  18.611  0.00  0.00    +0.000 A 
ATOM      4  C   UNL     1       2.146   7.414  19.306  0.00  0.00    +0.000 A 
ATOM      5  C   UNL     1       1.715   7.311  20.631  0.00  0.00    +0.000 A 
ATOM      6  C   UNL     1       1.004   8.362  21.245  0.00  0.00    +0.000 A 
ENDROOT
BRANCH   1   9
ATOM      7  O   UNL     1      -1.455  11.203  19.522  0.00  0.00    +0.000 OA
ATOM      8  C   UNL     1      -1.025  11.327  20.668  0.00  0.00    +0.000 C 
ATOM      9  N   UNL     1      -0.033  10.549  21.218  0.00  0.00    +0.000 N 
ATOM     10  N   UNL     1      -1.555  12.298  21.478  0.00  0.00    +0.000 N 
ATOM     11  C   UNL     1      -1.203  12.688  22.851  0.00  0.00    +0.000 C 
ATOM     12  C   UNL     1      -2.193  13.764  23.177  0.00  0.00    +0.000 A 
ATOM     13  C   UNL     1      -2.398  14.467  24.347  0.00  0.00    +0.000 A 
ATOM     14  C   UNL     1      -3.416  15.416  24.334  0.00  0.00    +0.000 A 
ATOM     15  N   UNL     1      -4.200  15.691  23.260  0.00  0.00    +0.000 NA
ATOM     16  C   UNL     1      -3.973  14.985  22.130  0.00  0.00    +0.000 A 
ATOM     17  C   UNL     1      -2.991  14.028  22.063  0.00  0.00    +0.000 A 
ATOM     18  C   UNL     1      -2.599  13.164  20.922  0.00  0.00    +0.000 C 
ATOM     19  H   UNL     1       0.103  10.617  22.215  0.00  0.00    +0.000 HD
ENDBRANCH   1   9
BRANCH   4  20
ATOM     20  O   UNL     1       2.851   6.475  18.589  0.00  0.00    +0.000 OA
BRANCH  20  21
ATOM     21  C   UNL     1       4.275   6.411  18.765  0.00  0.00    +0.000 C 
ATOM     22  C   UNL     1       4.995   7.071  17.591  0.00  0.00    +0.000 C 
ATOM     23  C   UNL     1       4.961   6.237  16.315  0.00  0.00    +0.000 C 
ATOM     24  N   UNL     1       5.394   4.858  16.517  0.00  0.00    +0.000 N 
ATOM     25  C   UNL     1       5.891   4.067  15.464  0.00  0.00    +0.000 C 
ATOM     26  O   UNL     1       6.054   2.851  15.594  0.00  0.00    +0.000 OA
ATOM     27  C   UNL     1       4.762   4.153  17.630  0.00  0.00    +0.000 C 
ATOM     28  C   UNL     1       4.737   4.958  18.926  0.00  0.00    +0.000 C 
BRANCH  25  29
ATOM     29  C   UNL     1       6.211   4.775  14.118  0.00  0.00    +0.000 C 
ATOM     30  C   UNL     1       6.347   3.813  12.943  0.00  0.00    +0.000 C 
ATOM     31  C   UNL     1       7.242   4.575  12.000  0.00  0.00    +0.000 C 
ATOM     32  C   UNL     1       8.166   5.300  12.951  0.00  0.00    +0.000 C 
ATOM     33  O   UNL     1       7.423   5.545  14.154  0.00  0.00    +0.000 OA
ENDBRANCH  25  29
ENDBRANCH  20  21
ENDBRANCH   4  20
TORSDOF 4
ENDMDL
MODEL 3
REMARK VINA RESULT:      -7.6      2.760     12.854
REMARK  Name = 
REMARK  4 active torsions:
REMARK  status: ('A' for Active; 'I' for Inactive)
REMARK    1  A    between atoms: N_3  and  C_4
REMARK    2  A    between atoms: C_7  and  O_8
REMARK    3  A    between atoms: O_8  and  C_9
REMARK    4  A    between atoms: C_13  and  C_15
REMARK                            x       y       z     vdW  Elec       q    Type
REMARK                         _______ _______ _______ _____ _____    ______ ____
ROOT
ATOM      1  C   UNL     1       1.520   8.885  19.552  0.00  0.00    +0.000 A 
ATOM      2  C   UNL     1       1.585   8.845  20.946  0.00  0.00    +0.000 A 
ATOM      3  C   UNL     1       0.690   9.586  21.738  0.00  0.00    +0.000 A 
ATOM      4  C   UNL     1      -0.281  10.401  21.157  0.00  0.00    +0.000 A 
ATOM      5  C   UNL     1      -0.343  10.453  19.763  0.00  0.00    +0.000 A 
ATOM      6  C   UNL     1       0.551   9.707  18.969  0.00  0.00    +0.000 A 
ENDROOT
BRANCH   1   9
ATOM      7  O   UNL     1       2.072   6.026  19.551  0.00  0.00    +0.000 OA
ATOM      8  C   UNL     1       2.623   6.794  18.764  0.00  0.00    +0.000 C 
ATOM      9  N   UNL     1       2.381   8.147  18.694  0.00  0.00    +0.000 N 
ATOM     10  N   UNL     1       3.546   6.297  17.880  0.00  0.00    +0.000 N 
ATOM     11  C   UNL     1       4.372   6.986  16.878  0.00  0.00    +0.000 C 
ATOM     12  C   UNL     1       5.114   5.871  16.206  0.00  0.00    +0.000 A 
ATOM     13  C   UNL     1       5.992   5.894  15.141  0.00  0.00    +0.000 A 
ATOM     14  C   UNL     1       6.522   4.671  14.743  0.00  0.00    +0.000 A 
ATOM     15  N   UNL     1       6.237   3.479  15.330  0.00  0.00    +0.000 NA
ATOM     16  C   UNL     1       5.375   3.491  16.369  0.00  0.00    +0.000 A 
ATOM     17  C   UNL     1       4.805   4.657  16.821  0.00  0.00    +0.000 A 
ATOM     18  C   UNL     1       3.849   4.864  17.937  0.00  0.00    +0.000 C 
ATOM     19  H   UNL     1       2.747   8.637  17.892  0.00  0.00    +0.000 HD
ENDBRANCH   1   9
BRANCH   4  20
ATOM     20  O   UNL     1      -1.080  11.079  22.049  0.00  0.00    +0.000 OA
BRANCH  20  21
ATOM     21  C   UNL     1      -0.995  12.512  22.088  0.00  0.00    +0.000 C 
ATOM     22  C   UNL     1      -1.673  13.059  23.342  0.00  0.00    +0.000 C 
ATOM     23  C   UNL     1      -3.195  12.998  23.282  0.00  0.00    +0.000 C 
ATOM     24  N   UNL     1      -3.746  13.581  22.064  0.00  0.00    +0.000 N 
ATOM     25  C   UNL     1      -5.068  14.061  21.995  0.00  0.00    +0.000 C 
ATOM     26  O   UNL     1      -5.591  14.354  20.916  0.00  0.00    +0.000 OA
ATOM     27  C   UNL     1      -3.147  13.120  20.814  0.00  0.00    +0.000 C 
ATOM     28  C   UNL     1      -1.621  13.128  20.831  0.00  0.00    +0.000 C 
BRANCH  25  29
ATOM     29  C   UNL     1      -5.859  14.193  23.325  0.00  0.00    +0.000 C 
ATOM     30  C   UNL     1      -6.926  13.119  23.508  0.00  0.00    +0.000 C 
ATOM     31  C   UNL     1      -7.910  13.791  24.430  0.00  0.00    +0.000 C 
ATOM     32  C   UNL     1      -7.853  15.228  23.968  0.00  0.00    +0.000 C 
ATOM     33  O   UNL     1      -6.526  15.457  23.468  0.00  0.00    +0.000 OA
ENDBRANCH  25  29
ENDBRANCH  20  21
ENDBRANCH   4  20
TORSDOF 4
ENDMDL
MODEL 4
REMARK VINA RESULT:      -7.5      2.657     12.707
REMARK  Name = 
REMARK  4 active torsions:
REMARK  status: ('A' for Active; 'I' for Inactive)
REMARK    1  A    between atoms: N_3  and  C_4
REMARK    2  A    between atoms: C_7  and  O_8
REMARK    3  A    between atoms: O_8  and  C_9
REMARK    4  A    between atoms: C_13  and  C_15
REMARK                            x       y       z     vdW  Elec       q    Type
REMARK                         _______ _______ _______ _____ _____    ______ ____
ROOT
ATOM      1  C   UNL     1       1.435   8.908  19.466  0.00  0.00    +0.000 A 
ATOM      2  C   UNL     1       1.405   8.800  20.858  0.00  0.00    +0.000 A 
ATOM      3  C   UNL     1       0.503   9.556  21.626  0.00  0.00    +0.000 A 
ATOM      4  C   UNL     1      -0.378  10.455  21.027  0.00  0.00    +0.000 A 
ATOM      5  C   UNL     1      -0.344  10.575  19.635  0.00  0.00    +0.000 A 
ATOM      6  C   UNL     1       0.557   9.813  18.864  0.00  0.00    +0.000 A 
ENDROOT
BRANCH   1   9
ATOM      7  O   UNL     1       1.964   6.044  19.487  0.00  0.00    +0.000 OA
ATOM      8  C   UNL     1       2.538   6.805  18.709  0.00  0.00    +0.000 C 
ATOM      9  N   UNL     1       2.308   8.159  18.629  0.00  0.00    +0.000 N 
ATOM     10  N   UNL     1       3.474   6.296  17.846  0.00  0.00    +0.000 N 
ATOM     11  C   UNL     1       4.327   6.974  16.859  0.00  0.00    +0.000 C 
ATOM     12  C   UNL     1       5.073   5.851  16.207  0.00  0.00    +0.000 A 
ATOM     13  C   UNL     1       5.973   5.863  15.160  0.00  0.00    +0.000 A 
ATOM     14  C   UNL     1       6.501   4.633  14.778  0.00  0.00    +0.000 A 
ATOM     15  N   UNL     1       6.194   3.447  15.364  0.00  0.00    +0.000 NA
ATOM     16  C   UNL     1       5.311   3.470  16.385  0.00  0.00    +0.000 A 
ATOM     17  C   UNL     1       4.742   4.642  16.820  0.00  0.00    +0.000 A 
ATOM     18  C   UNL     1       3.765   4.861  17.915  0.00  0.00    +0.000 C 
ATOM     19  H   UNL     1       2.694   8.643  17.833  0.00  0.00    +0.000 HD
ENDBRANCH   1   9
BRANCH   4  20
ATOM     20  O   UNL     1      -1.195  11.138  21.898  0.00  0.00    +0.000 OA
BRANCH  20  21
ATOM     21  C   UNL     1      -1.836  12.336  21.434  0.00  0.00    +0.000 C 
ATOM     22  C   UNL     1      -0.910  13.540  21.591  0.00  0.00    +0.000 C 
ATOM     23  C   UNL     1      -0.755  14.000  23.036  0.00  0.00    +0.000 C 
ATOM     24  N   UNL     1      -2.030  14.198  23.716  0.00  0.00    +0.000 N 
ATOM     25  C   UNL     1      -2.158  15.042  24.836  0.00  0.00    +0.000 C 
ATOM     26  O   UNL     1      -3.179  15.041  25.529  0.00  0.00    +0.000 OA
ATOM     27  C   UNL     1      -2.983  13.096  23.609  0.00  0.00    +0.000 C 
ATOM     28  C   UNL     1      -3.152  12.573  22.186  0.00  0.00    +0.000 C 
BRANCH  25  29
ATOM     29  C   UNL     1      -0.959  15.965  25.186  0.00  0.00    +0.000 C 
ATOM     30  C   UNL     1      -0.880  16.326  26.666  0.00  0.00    +0.000 C 
ATOM     31  C   UNL     1      -0.135  17.636  26.642  0.00  0.00    +0.000 C 
ATOM     32  C   UNL     1      -0.649  18.273  25.371  0.00  0.00    +0.000 C 
ATOM     33  O   UNL     1      -0.967  17.206  24.465  0.00  0.00    +0.000 OA
ENDBRANCH  25  29
ENDBRANCH  20  21
ENDBRANCH   4  20
TORSDOF 4
ENDMDL
MODEL 5
REMARK VINA RESULT:      -7.5      2.113      2.561
REMARK  Name = 
REMARK  4 active torsions:
REMARK  status: ('A' for Active; 'I' for Inactive)
REMARK    1  A    between atoms: N_3  and  C_4
REMARK    2  A    between atoms: C_7  and  O_8
REMARK    3  A    between atoms: O_8  and  C_9
REMARK    4  A    between atoms: C_13  and  C_15
REMARK                            x       y       z     vdW  Elec       q    Type
REMARK                         _______ _______ _______ _____ _____    ______ ____
ROOT
ATOM      1  C   UNL     1       0.880   9.985  19.356  0.00  0.00    +0.000 A 
ATOM      2  C   UNL     1       1.155   9.072  20.376  0.00  0.00    +0.000 A 
ATOM      3  C   UNL     1       1.811   7.858  20.108  0.00  0.00    +0.000 A 
ATOM      4  C   UNL     1       2.191   7.516  18.811  0.00  0.00    +0.000 A 
ATOM      5  C   UNL     1       1.909   8.421  17.785  0.00  0.00    +0.000 A 
ATOM      6  C   UNL     1       1.255   9.640  18.055  0.00  0.00    +0.000 A 
ENDROOT
BRANCH   1   9
ATOM      7  O   UNL     1       1.719  12.628  18.466  0.00  0.00    +0.000 OA
ATOM      8  C   UNL     1       0.702  12.462  19.140  0.00  0.00    +0.000 C 
ATOM      9  N   UNL     1       0.238  11.238  19.562  0.00  0.00    +0.000 N 
ATOM     10  N   UNL     1      -0.042  13.553  19.507  0.00  0.00    +0.000 N 
ATOM     11  C   UNL     1      -1.255  13.644  20.333  0.00  0.00    +0.000 C 
ATOM     12  C   UNL     1      -1.598  15.102  20.296  0.00  0.00    +0.000 A 
ATOM     13  C   UNL     1      -2.671  15.782  20.836  0.00  0.00    +0.000 A 
ATOM     14  C   UNL     1      -2.707  17.157  20.623  0.00  0.00    +0.000 A 
ATOM     15  N   UNL     1      -1.768  17.856  19.935  0.00  0.00    +0.000 NA
ATOM     16  C   UNL     1      -0.732  17.161  19.420  0.00  0.00    +0.000 A 
ATOM     17  C   UNL     1      -0.624  15.801  19.582  0.00  0.00    +0.000 A 
ATOM     18  C   UNL     1       0.432  14.878  19.096  0.00  0.00    +0.000 C 
ATOM     19  H   UNL     1      -0.696  11.208  19.941  0.00  0.00    +0.000 HD
ENDBRANCH   1   9
BRANCH   4  20
ATOM     20  O   UNL     1       2.812   6.294  18.691  0.00  0.00    +0.000 OA
BRANCH  20  21
ATOM     21  C   UNL     1       4.235   6.231  18.870  0.00  0.00    +0.000 C 
ATOM     22  C   UNL     1       4.957   6.927  17.718  0.00  0.00    +0.000 C 
ATOM     23  C   UNL     1       4.932   6.129  16.420  0.00  0.00    +0.000 C 
ATOM     24  N   UNL     1       5.370   4.747  16.585  0.00  0.00    +0.000 N 
ATOM     25  C   UNL     1       5.876   3.988  15.512  0.00  0.00    +0.000 C 
ATOM     26  O   UNL     1       6.043   2.769  15.609  0.00  0.00    +0.000 OA
ATOM     27  C   UNL     1       4.737   4.008  17.675  0.00  0.00    +0.000 C 
ATOM     28  C   UNL     1       4.703   4.776  18.993  0.00  0.00    +0.000 C 
BRANCH  25  29
ATOM     29  C   UNL     1       6.198   4.734  14.189  0.00  0.00    +0.000 C 
ATOM     30  C   UNL     1       6.258   3.816  12.972  0.00  0.00    +0.000 C 
ATOM     31  C   UNL     1       7.167   4.572  12.038  0.00  0.00    +0.000 C 
ATOM     32  C   UNL     1       8.148   5.211  12.993  0.00  0.00    +0.000 C 
ATOM     33  O   UNL     1       7.447   5.442  14.224  0.00  0.00    +0.000 OA
ENDBRANCH  25  29
ENDBRANCH  20  21
ENDBRANCH   4  20
TORSDOF 4
ENDMDL
MODEL 6
REMARK VINA RESULT:      -7.5      6.974      8.164
REMARK  Name = 
REMARK  4 active torsions:
REMARK  status: ('A' for Active; 'I' for Inactive)
REMARK    1  A    between atoms: N_3  and  C_4
REMARK    2  A    between atoms: C_7  and  O_8
REMARK    3  A    between atoms: O_8  and  C_9
REMARK    4  A    between atoms: C_13  and  C_15
REMARK                            x       y       z     vdW  Elec       q    Type
REMARK                         _______ _______ _______ _____ _____    ______ ____
ROOT
ATOM      1  C   UNL     1       0.515  13.874  20.009  0.00  0.00    +0.000 A 
ATOM      2  C   UNL     1       1.578  13.137  20.536  0.00  0.00    +0.000 A 
ATOM      3  C   UNL     1       2.897  13.618  20.474  0.00  0.00    +0.000 A 
ATOM      4  C   UNL     1       3.192  14.839  19.868  0.00  0.00    +0.000 A 
ATOM      5  C   UNL     1       2.134  15.575  19.330  0.00  0.00    +0.000 A 
ATOM      6  C   UNL     1       0.810  15.095  19.396  0.00  0.00    +0.000 A 
ENDROOT
BRANCH   1   9
ATOM      7  O   UNL     1      -0.929  12.174  18.137  0.00  0.00    +0.000 OA
ATOM      8  C   UNL     1      -1.478  12.672  19.120  0.00  0.00    +0.000 C 
ATOM      9  N   UNL     1      -0.843  13.455  20.055  0.00  0.00    +0.000 N 
ATOM     10  N   UNL     1      -2.815  12.444  19.325  0.00  0.00    +0.000 N 
ATOM     11  C   UNL     1      -3.715  12.944  20.374  0.00  0.00    +0.000 C 
ATOM     12  C   UNL     1      -5.021  12.277  20.065  0.00  0.00    +0.000 A 
ATOM     13  C   UNL     1      -6.224  12.310  20.740  0.00  0.00    +0.000 A 
ATOM     14  C   UNL     1      -7.267  11.570  20.192  0.00  0.00    +0.000 A 
ATOM     15  N   UNL     1      -7.176  10.835  19.053  0.00  0.00    +0.000 NA
ATOM     16  C   UNL     1      -5.984  10.824  18.417  0.00  0.00    +0.000 A 
ATOM     17  C   UNL     1      -4.905  11.525  18.895  0.00  0.00    +0.000 A 
ATOM     18  C   UNL     1      -3.533  11.633  18.338  0.00  0.00    +0.000 C 
ATOM     19  H   UNL     1      -1.345  13.648  20.909  0.00  0.00    +0.000 HD
ENDBRANCH   1   9
BRANCH   4  20
ATOM     20  O   UNL     1       4.525  15.181  19.867  0.00  0.00    +0.000 OA
BRANCH  20  21
ATOM     21  C   UNL     1       5.044  15.898  18.736  0.00  0.00    +0.000 C 
ATOM     22  C   UNL     1       5.631  14.935  17.707  0.00  0.00    +0.000 C 
ATOM     23  C   UNL     1       6.967  14.336  18.134  0.00  0.00    +0.000 C 
ATOM     24  N   UNL     1       7.937  15.338  18.561  0.00  0.00    +0.000 N 
ATOM     25  C   UNL     1       9.324  15.096  18.537  0.00  0.00    +0.000 C 
ATOM     26  O   UNL     1      10.120  15.859  19.092  0.00  0.00    +0.000 OA
ATOM     27  C   UNL     1       7.454  16.310  19.539  0.00  0.00    +0.000 C 
ATOM     28  C   UNL     1       6.101  16.917  19.179  0.00  0.00    +0.000 C 
BRANCH  25  29
ATOM     29  C   UNL     1       9.822  13.822  17.802  0.00  0.00    +0.000 C 
ATOM     30  C   UNL     1      10.170  12.674  18.744  0.00  0.00    +0.000 C 
ATOM     31  C   UNL     1      11.173  11.886  17.939  0.00  0.00    +0.000 C 
ATOM     32  C   UNL     1      11.913  12.974  17.197  0.00  0.00    +0.000 C 
ATOM     33  O   UNL     1      10.986  14.050  16.992  0.00  0.00    +0.000 OA
ENDBRANCH  25  29
ENDBRANCH  20  21
ENDBRANCH   4  20
TORSDOF 4
ENDMDL
MODEL 7
REMARK VINA RESULT:      -7.4      3.524     12.567
REMARK  Name = 
REMARK  4 active torsions:
REMARK  status: ('A' for Active; 'I' for Inactive)
REMARK    1  A    between atoms: N_3  and  C_4
REMARK    2  A    between atoms: C_7  and  O_8
REMARK    3  A    between atoms: O_8  and  C_9
REMARK    4  A    between atoms: C_13  and  C_15
REMARK                            x       y       z     vdW  Elec       q    Type
REMARK                         _______ _______ _______ _____ _____    ______ ____
ROOT
ATOM      1  C   UNL     1       0.847  10.774  18.775  0.00  0.00    +0.000 A 
ATOM      2  C   UNL     1       1.509  11.936  19.177  0.00  0.00    +0.000 A 
ATOM      3  C   UNL     1       0.804  13.129  19.415  0.00  0.00    +0.000 A 
ATOM      4  C   UNL     1      -0.578  13.197  19.239  0.00  0.00    +0.000 A 
ATOM      5  C   UNL     1      -1.243  12.040  18.827  0.00  0.00    +0.000 A 
ATOM      6  C   UNL     1      -0.536  10.843  18.593  0.00  0.00    +0.000 A 
ENDROOT
BRANCH   1   9
ATOM      7  O   UNL     1       1.162   8.509  20.579  0.00  0.00    +0.000 OA
ATOM      8  C   UNL     1       1.638   8.507  19.445  0.00  0.00    +0.000 C 
ATOM      9  N   UNL     1       1.497   9.531  18.537  0.00  0.00    +0.000 N 
ATOM     10  N   UNL     1       2.364   7.421  19.027  0.00  0.00    +0.000 N 
ATOM     11  C   UNL     1       3.070   7.179  17.760  0.00  0.00    +0.000 C 
ATOM     12  C   UNL     1       3.602   5.787  17.915  0.00  0.00    +0.000 A 
ATOM     13  C   UNL     1       4.295   4.991  17.026  0.00  0.00    +0.000 A 
ATOM     14  C   UNL     1       4.655   3.723  17.474  0.00  0.00    +0.000 A 
ATOM     15  N   UNL     1       4.374   3.233  18.709  0.00  0.00    +0.000 NA
ATOM     16  C   UNL     1       3.695   4.038  19.555  0.00  0.00    +0.000 A 
ATOM     17  C   UNL     1       3.301   5.302  19.188  0.00  0.00    +0.000 A 
ATOM     18  C   UNL     1       2.557   6.318  19.972  0.00  0.00    +0.000 C 
ATOM     19  H   UNL     1       1.766   9.339  17.584  0.00  0.00    +0.000 HD
ENDBRANCH   1   9
BRANCH   4  20
ATOM     20  O   UNL     1      -1.137  14.428  19.494  0.00  0.00    +0.000 OA
BRANCH  20  21
ATOM     21  C   UNL     1      -1.077  14.939  20.834  0.00  0.00    +0.000 C 
ATOM     22  C   UNL     1      -1.663  13.934  21.824  0.00  0.00    +0.000 C 
ATOM     23  C   UNL     1      -3.183  13.843  21.763  0.00  0.00    +0.000 C 
ATOM     24  N   UNL     1      -3.842  15.142  21.849  0.00  0.00    +0.000 N 
ATOM     25  C   UNL     1      -5.174  15.279  22.284  0.00  0.00    +0.000 C 
ATOM     26  O   UNL     1      -5.787  16.342  22.153  0.00  0.00    +0.000 OA
ATOM     27  C   UNL     1      -3.335  16.169  20.942  0.00  0.00    +0.000 C 
ATOM     28  C   UNL     1      -1.813  16.281  20.937  0.00  0.00    +0.000 C 
BRANCH  25  29
ATOM     29  C   UNL     1      -5.858  14.037  22.918  0.00  0.00    +0.000 C 
ATOM     30  C   UNL     1      -6.834  13.334  21.980  0.00  0.00    +0.000 C 
ATOM     31  C   UNL     1      -7.780  12.660  22.940  0.00  0.00    +0.000 C 
ATOM     32  C   UNL     1      -7.855  13.659  24.071  0.00  0.00    +0.000 C 
ATOM     33  O   UNL     1      -6.593  14.341  24.114  0.00  0.00    +0.000 OA
ENDBRANCH  25  29
ENDBRANCH  20  21
ENDBRANCH   4  20
TORSDOF 4
ENDMDL
MODEL 8
REMARK VINA RESULT:      -7.4      3.545     12.283
REMARK  Name = 
REMARK  4 active torsions:
REMARK  status: ('A' for Active; 'I' for Inactive)
REMARK    1  A    between atoms: N_3  and  C_4
REMARK    2  A    between atoms: C_7  and  O_8
REMARK    3  A    between atoms: O_8  and  C_9
REMARK    4  A    between atoms: C_13  and  C_15
REMARK                            x       y       z     vdW  Elec       q    Type
REMARK                         _______ _______ _______ _____ _____    ______ ____
ROOT
ATOM      1  C   UNL     1       0.445  10.591  19.831  0.00  0.00    +0.000 A 
ATOM      2  C   UNL     1       0.709  11.249  21.034  0.00  0.00    +0.000 A 
ATOM      3  C   UNL     1      -0.094  12.317  21.469  0.00  0.00    +0.000 A 
ATOM      4  C   UNL     1      -1.169  12.769  20.705  0.00  0.00    +0.000 A 
ATOM      5  C   UNL     1      -1.431  12.120  19.496  0.00  0.00    +0.000 A 
ATOM      6  C   UNL     1      -0.628  11.046  19.062  0.00  0.00    +0.000 A 
ENDROOT
BRANCH   1   9
ATOM      7  O   UNL     1       0.967   8.027  21.110  0.00  0.00    +0.000 OA
ATOM      8  C   UNL     1       1.441   8.313  20.011  0.00  0.00    +0.000 C 
ATOM      9  N   UNL     1       1.205   9.492  19.342  0.00  0.00    +0.000 N 
ATOM     10  N   UNL     1       2.261   7.412  19.383  0.00  0.00    +0.000 N 
ATOM     11  C   UNL     1       2.985   7.513  18.107  0.00  0.00    +0.000 C 
ATOM     12  C   UNL     1       3.643   6.173  17.968  0.00  0.00    +0.000 A 
ATOM     13  C   UNL     1       4.405   5.653  16.942  0.00  0.00    +0.000 A 
ATOM     14  C   UNL     1       4.878   4.356  17.113  0.00  0.00    +0.000 A 
ATOM     15  N   UNL     1       4.645   3.588  18.208  0.00  0.00    +0.000 NA
ATOM     16  C   UNL     1       3.896   4.127  19.195  0.00  0.00    +0.000 A 
ATOM     17  C   UNL     1       3.388   5.400  19.101  0.00  0.00    +0.000 A 
ATOM     18  C   UNL     1       2.555   6.152  20.072  0.00  0.00    +0.000 C 
ATOM     19  H   UNL     1       1.490   9.535  18.376  0.00  0.00    +0.000 HD
ENDBRANCH   1   9
BRANCH   4  20
ATOM     20  O   UNL     1      -1.860  13.829  21.243  0.00  0.00    +0.000 OA
BRANCH  20  21
ATOM     21  C   UNL     1      -2.568  13.627  22.476  0.00  0.00    +0.000 C 
ATOM     22  C   UNL     1      -3.559  12.471  22.348  0.00  0.00    +0.000 C 
ATOM     23  C   UNL     1      -4.790  12.821  21.521  0.00  0.00    +0.000 C 
ATOM     24  N   UNL     1      -5.441  14.054  21.950  0.00  0.00    +0.000 N 
ATOM     25  C   UNL     1      -6.798  14.318  21.680  0.00  0.00    +0.000 C 
ATOM     26  O   UNL     1      -7.282  15.439  21.856  0.00  0.00    +0.000 OA
ATOM     27  C   UNL     1      -4.563  15.210  22.109  0.00  0.00    +0.000 C 
ATOM     28  C   UNL     1      -3.295  14.908  22.902  0.00  0.00    +0.000 C 
BRANCH  25  29
ATOM     29  C   UNL     1      -7.665  13.152  21.132  0.00  0.00    +0.000 C 
ATOM     30  C   UNL     1      -7.578  11.882  21.971  0.00  0.00    +0.000 C 
ATOM     31  C   UNL     1      -7.914  10.807  20.969  0.00  0.00    +0.000 C 
ATOM     32  C   UNL     1      -7.289  11.343  19.702  0.00  0.00    +0.000 C 
ATOM     33  O   UNL     1      -7.328  12.775  19.788  0.00  0.00    +0.000 OA
ENDBRANCH  25  29
ENDBRANCH  20  21
ENDBRANCH   4  20
TORSDOF 4
ENDMDL
MODEL 9
REMARK VINA RESULT:      -7.4      3.629     12.131
REMARK  Name = 
REMARK  4 active torsions:
REMARK  status: ('A' for Active; 'I' for Inactive)
REMARK    1  A    between atoms: N_3  and  C_4
REMARK    2  A    between atoms: C_7  and  O_8
REMARK    3  A    between atoms: O_8  and  C_9
REMARK    4  A    between atoms: C_13  and  C_15
REMARK                            x       y       z     vdW  Elec       q    Type
REMARK                         _______ _______ _______ _____ _____    ______ ____
ROOT
ATOM      1  C   UNL     1       0.402   9.475  21.496  0.00  0.00    +0.000 A 
ATOM      2  C   UNL     1       0.438  10.581  20.644  0.00  0.00    +0.000 A 
ATOM      3  C   UNL     1      -0.105  11.817  21.034  0.00  0.00    +0.000 A 
ATOM      4  C   UNL     1      -0.716  11.977  22.277  0.00  0.00    +0.000 A 
ATOM      5  C   UNL     1      -0.764  10.871  23.129  0.00  0.00    +0.000 A 
ATOM      6  C   UNL     1      -0.215   9.632  22.740  0.00  0.00    +0.000 A 
ENDROOT
BRANCH   1   9
ATOM      7  O   UNL     1       1.974   8.710  19.167  0.00  0.00    +0.000 OA
ATOM      8  C   UNL     1       1.661   7.897  20.035  0.00  0.00    +0.000 C 
ATOM      9  N   UNL     1       0.949   8.203  21.172  0.00  0.00    +0.000 N 
ATOM     10  N   UNL     1       2.038   6.587  19.889  0.00  0.00    +0.000 N 
ATOM     11  C   UNL     1       1.765   5.418  20.738  0.00  0.00    +0.000 C 
ATOM     12  C   UNL     1       2.506   4.307  20.058  0.00  0.00    +0.000 A 
ATOM     13  C   UNL     1       2.674   2.987  20.425  0.00  0.00    +0.000 A 
ATOM     14  C   UNL     1       3.431   2.194  19.569  0.00  0.00    +0.000 A 
ATOM     15  N   UNL     1       4.001   2.630  18.415  0.00  0.00    +0.000 NA
ATOM     16  C   UNL     1       3.818   3.927  18.085  0.00  0.00    +0.000 A 
ATOM     17  C   UNL     1       3.086   4.776  18.879  0.00  0.00    +0.000 A 
ATOM     18  C   UNL     1       2.779   6.215  18.681  0.00  0.00    +0.000 C 
ATOM     19  H   UNL     1       0.917   7.501  21.895  0.00  0.00    +0.000 HD
ENDBRANCH   1   9
BRANCH   4  20
ATOM     20  O   UNL     1      -1.216  13.234  22.522  0.00  0.00    +0.000 OA
BRANCH  20  21
ATOM     21  C   UNL     1      -2.388  13.355  23.343  0.00  0.00    +0.000 C 
ATOM     22  C   UNL     1      -3.463  12.366  22.898  0.00  0.00    +0.000 C 
ATOM     23  C   UNL     1      -4.148  12.763  21.595  0.00  0.00    +0.000 C 
ATOM     24  N   UNL     1      -4.636  14.138  21.597  0.00  0.00    +0.000 N 
ATOM     25  C   UNL     1      -5.676  14.565  20.749  0.00  0.00    +0.000 C 
ATOM     26  O   UNL     1      -5.937  15.762  20.605  0.00  0.00    +0.000 OA
ATOM     27  C   UNL     1      -3.673  15.151  22.022  0.00  0.00    +0.000 C 
ATOM     28  C   UNL     1      -2.932  14.788  23.305  0.00  0.00    +0.000 C 
BRANCH  25  29
ATOM     29  C   UNL     1      -6.474  13.476  19.980  0.00  0.00    +0.000 C 
ATOM     30  C   UNL     1      -5.726  12.908  18.779  0.00  0.00    +0.000 C 
ATOM     31  C   UNL     1      -6.848  12.434  17.891  0.00  0.00    +0.000 C 
ATOM     32  C   UNL     1      -7.915  13.474  18.141  0.00  0.00    +0.000 C 
ATOM     33  O   UNL     1      -7.740  13.941  19.487  0.00  0.00    +0.000 OA
ENDBRANCH  25  29
ENDBRANCH  20  21
ENDBRANCH   4  20
TORSDOF 4
ENDMDL
