MODEL 1
REMARK VINA RESULT:      -8.0      0.000      0.000
REMARK  Name = 
REMARK  8 active torsions:
REMARK  status: ('A' for Active; 'I' for Inactive)
REMARK    1  A    between atoms: C_1  and  C_2
REMARK    2  A    between atoms: C_2  and  O_3
REMARK    3  A    between atoms: O_3  and  C_4
REMARK    4  A    between atoms: C_7  and  N_8
REMARK    5  A    between atoms: C_9  and  C_10
REMARK    6  A    between atoms: C_12  and  C_13
REMARK    7  A    between atoms: C_16  and  C_17
REMARK    8  A    between atoms: C_23  and  C_24
REMARK                            x       y       z     vdW  Elec       q    Type
REMARK                         _______ _______ _______ _____ _____    ______ ____
ROOT
ATOM      1  N   UNL     1       2.454   6.379  19.052  0.00  0.00    +0.000 N 
ATOM      2  C   UNL     1       2.012   5.108  19.463  0.00  0.00    +0.000 A 
ATOM      3  C   UNL     1       1.081   4.882  20.610  0.00  0.00    +0.000 C 
ATOM      4  C   UNL     1       2.664   4.165  18.685  0.00  0.00    +0.000 A 
ATOM      5  C   UNL     1       2.520   2.759  18.708  0.00  0.00    +0.000 A 
ATOM      6  C   UNL     1       1.635   1.848  19.487  0.00  0.00    +0.000 C 
ATOM      7  N   UNL     1       3.356   2.153  17.806  0.00  0.00    +0.000 NA
ATOM      8  N   UNL     1       4.291   2.859  16.932  0.00  0.00    +0.000 NA
ATOM      9  C   UNL     1       4.451   4.215  16.906  0.00  0.00    +0.000 A 
ATOM     10  C   UNL     1       3.581   4.862  17.821  0.00  0.00    +0.000 A 
ATOM     11  C   UNL     1       3.415   6.220  18.032  0.00  0.00    +0.000 A 
ATOM     12  C   UNL     1       4.016   7.383  17.305  0.00  0.00    +0.000 C 
ENDROOT
BRANCH   1  16
ATOM     13  C   UNL     1       0.722  10.012  20.419  0.00  0.00    +0.000 A 
ATOM     14  C   UNL     1       1.032   9.846  19.072  0.00  0.00    +0.000 A 
ATOM     15  C   UNL     1       1.673   8.684  18.633  0.00  0.00    +0.000 A 
ATOM     16  C   UNL     1       1.970   7.647  19.529  0.00  0.00    +0.000 A 
ATOM     17  C   UNL     1       1.708   7.846  20.888  0.00  0.00    +0.000 A 
ATOM     18  C   UNL     1       1.116   9.037  21.333  0.00  0.00    +0.000 A 
BRANCH  13  19
ATOM     19  O   UNL     1       0.033  11.155  20.725  0.00  0.00    +0.000 OA
BRANCH  19  21
ATOM     20  C   UNL     1      -0.748  12.547  22.505  0.00  0.00    +0.000 C 
ATOM     21  C   UNL     1      -0.693  11.134  21.955  0.00  0.00    +0.000 C 
ENDBRANCH  19  21
ENDBRANCH  13  19
ENDBRANCH   1  16
BRANCH   9  22
ATOM     22  C   UNL     1       5.442   4.803  15.952  0.00  0.00    +0.000 C 
ATOM     23  C   UNL     1       6.916   4.702  16.346  0.00  0.00    +0.000 C 
ATOM     24  C   UNL     1       7.625   5.119  15.061  0.00  0.00    +0.000 C 
ATOM     25  C   UNL     1       6.733   4.613  13.924  0.00  0.00    +0.000 C 
ATOM     26  C   UNL     1       5.452   4.114  14.587  0.00  0.00    +0.000 C 
ENDBRANCH   9  22
TORSDOF 4
ENDMDL
MODEL 2
REMARK VINA RESULT:      -7.8      0.389      1.020
REMARK  Name = 
REMARK  8 active torsions:
REMARK  status: ('A' for Active; 'I' for Inactive)
REMARK    1  A    between atoms: C_1  and  C_2
REMARK    2  A    between atoms: C_2  and  O_3
REMARK    3  A    between atoms: O_3  and  C_4
REMARK    4  A    between atoms: C_7  and  N_8
REMARK    5  A    between atoms: C_9  and  C_10
REMARK    6  A    between atoms: C_12  and  C_13
REMARK    7  A    between atoms: C_16  and  C_17
REMARK    8  A    between atoms: C_23  and  C_24
REMARK                            x       y       z     vdW  Elec       q    Type
REMARK                         _______ _______ _______ _____ _____    ______ ____
ROOT
ATOM      1  N   UNL     1       2.335   6.301  19.158  0.00  0.00    +0.000 N 
ATOM      2  C   UNL     1       1.893   5.011  19.506  0.00  0.00    +0.000 A 
ATOM      3  C   UNL     1       0.926   4.734  20.612  0.00  0.00    +0.000 C 
ATOM      4  C   UNL     1       2.580   4.105  18.716  0.00  0.00    +0.000 A 
ATOM      5  C   UNL     1       2.450   2.697  18.682  0.00  0.00    +0.000 A 
ATOM      6  C   UNL     1       1.549   1.750  19.395  0.00  0.00    +0.000 C 
ATOM      7  N   UNL     1       3.322   2.134  17.785  0.00  0.00    +0.000 NA
ATOM      8  N   UNL     1       4.278   2.881  16.971  0.00  0.00    +0.000 NA
ATOM      9  C   UNL     1       4.425   4.239  17.001  0.00  0.00    +0.000 A 
ATOM     10  C   UNL     1       3.518   4.842  17.910  0.00  0.00    +0.000 A 
ATOM     11  C   UNL     1       3.330   6.190  18.166  0.00  0.00    +0.000 A 
ATOM     12  C   UNL     1       3.943   7.386  17.504  0.00  0.00    +0.000 C 
ENDROOT
BRANCH   1  16
ATOM     13  C   UNL     1       1.128  10.080  20.685  0.00  0.00    +0.000 A 
ATOM     14  C   UNL     1       1.349   9.013  21.550  0.00  0.00    +0.000 A 
ATOM     15  C   UNL     1       1.670   7.749  21.046  0.00  0.00    +0.000 A 
ATOM     16  C   UNL     1       1.822   7.546  19.666  0.00  0.00    +0.000 A 
ATOM     17  C   UNL     1       1.542   8.609  18.802  0.00  0.00    +0.000 A 
ATOM     18  C   UNL     1       1.165   9.861  19.310  0.00  0.00    +0.000 A 
BRANCH  13  19
ATOM     19  O   UNL     1       0.891  11.285  21.291  0.00  0.00    +0.000 OA
BRANCH  19  21
ATOM     20  C   UNL     1      -0.999  11.570  22.729  0.00  0.00    +0.000 C 
ATOM     21  C   UNL     1      -0.472  11.713  21.313  0.00  0.00    +0.000 C 
ENDBRANCH  19  21
ENDBRANCH  13  19
ENDBRANCH   1  16
BRANCH   9  22
ATOM     22  C   UNL     1       5.441   4.872  16.104  0.00  0.00    +0.000 C 
ATOM     23  C   UNL     1       6.908   4.693  16.496  0.00  0.00    +0.000 C 
ATOM     24  C   UNL     1       7.639   5.192  15.253  0.00  0.00    +0.000 C 
ATOM     25  C   UNL     1       6.741   4.808  14.074  0.00  0.00    +0.000 C 
ATOM     26  C   UNL     1       5.440   4.297  14.687  0.00  0.00    +0.000 C 
ENDBRANCH   9  22
TORSDOF 4
ENDMDL
MODEL 3
REMARK VINA RESULT:      -7.7      2.889      7.659
REMARK  Name = 
REMARK  8 active torsions:
REMARK  status: ('A' for Active; 'I' for Inactive)
REMARK    1  A    between atoms: C_1  and  C_2
REMARK    2  A    between atoms: C_2  and  O_3
REMARK    3  A    between atoms: O_3  and  C_4
REMARK    4  A    between atoms: C_7  and  N_8
REMARK    5  A    between atoms: C_9  and  C_10
REMARK    6  A    between atoms: C_12  and  C_13
REMARK    7  A    between atoms: C_16  and  C_17
REMARK    8  A    between atoms: C_23  and  C_24
REMARK                            x       y       z     vdW  Elec       q    Type
REMARK                         _______ _______ _______ _____ _____    ______ ____
ROOT
ATOM      1  N   UNL     1       4.183   4.808  17.460  0.00  0.00    +0.000 N 
ATOM      2  C   UNL     1       3.710   3.838  18.363  0.00  0.00    +0.000 A 
ATOM      3  C   UNL     1       3.941   2.370  18.204  0.00  0.00    +0.000 C 
ATOM      4  C   UNL     1       2.948   4.491  19.318  0.00  0.00    +0.000 A 
ATOM      5  C   UNL     1       2.295   3.940  20.445  0.00  0.00    +0.000 A 
ATOM      6  C   UNL     1       2.241   2.561  21.005  0.00  0.00    +0.000 C 
ATOM      7  N   UNL     1       1.612   4.899  21.148  0.00  0.00    +0.000 NA
ATOM      8  N   UNL     1       1.548   6.313  20.783  0.00  0.00    +0.000 NA
ATOM      9  C   UNL     1       2.162   6.859  19.691  0.00  0.00    +0.000 A 
ATOM     10  C   UNL     1       2.890   5.884  18.960  0.00  0.00    +0.000 A 
ATOM     11  C   UNL     1       3.682   6.069  17.839  0.00  0.00    +0.000 A 
ATOM     12  C   UNL     1       4.076   7.334  17.143  0.00  0.00    +0.000 C 
ENDROOT
BRANCH   1  16
ATOM     13  C   UNL     1       6.805   4.456  14.132  0.00  0.00    +0.000 A 
ATOM     14  C   UNL     1       5.456   4.142  13.998  0.00  0.00    +0.000 A 
ATOM     15  C   UNL     1       4.607   4.181  15.108  0.00  0.00    +0.000 A 
ATOM     16  C   UNL     1       5.088   4.584  16.363  0.00  0.00    +0.000 A 
ATOM     17  C   UNL     1       6.456   4.842  16.501  0.00  0.00    +0.000 A 
ATOM     18  C   UNL     1       7.314   4.746  15.396  0.00  0.00    +0.000 A 
BRANCH  13  19
ATOM     19  O   UNL     1       7.525   4.453  12.968  0.00  0.00    +0.000 OA
BRANCH  19  21
ATOM     20  C   UNL     1       7.384   2.615  11.444  0.00  0.00    +0.000 C 
ATOM     21  C   UNL     1       6.833   3.981  11.810  0.00  0.00    +0.000 C 
ENDBRANCH  19  21
ENDBRANCH  13  19
ENDBRANCH   1  16
BRANCH   9  22
ATOM     22  C   UNL     1       2.016   8.326  19.444  0.00  0.00    +0.000 C 
ATOM     23  C   UNL     1       1.361   8.738  18.125  0.00  0.00    +0.000 C 
ATOM     24  C   UNL     1       1.120  10.231  18.335  0.00  0.00    +0.000 C 
ATOM     25  C   UNL     1       0.822  10.385  19.829  0.00  0.00    +0.000 C 
ATOM     26  C   UNL     1       1.108   9.025  20.457  0.00  0.00    +0.000 C 
ENDBRANCH   9  22
TORSDOF 4
ENDMDL
MODEL 4
REMARK VINA RESULT:      -7.2      1.051      1.476
REMARK  Name = 
REMARK  8 active torsions:
REMARK  status: ('A' for Active; 'I' for Inactive)
REMARK    1  A    between atoms: C_1  and  C_2
REMARK    2  A    between atoms: C_2  and  O_3
REMARK    3  A    between atoms: O_3  and  C_4
REMARK    4  A    between atoms: C_7  and  N_8
REMARK    5  A    between atoms: C_9  and  C_10
REMARK    6  A    between atoms: C_12  and  C_13
REMARK    7  A    between atoms: C_16  and  C_17
REMARK    8  A    between atoms: C_23  and  C_24
REMARK                            x       y       z     vdW  Elec       q    Type
REMARK                         _______ _______ _______ _____ _____    ______ ____
ROOT
ATOM      1  N   UNL     1       2.621   6.159  18.725  0.00  0.00    +0.000 N 
ATOM      2  C   UNL     1       2.050   5.039  19.358  0.00  0.00    +0.000 A 
ATOM      3  C   UNL     1       1.041   5.130  20.458  0.00  0.00    +0.000 C 
ATOM      4  C   UNL     1       2.661   3.909  18.841  0.00  0.00    +0.000 A 
ATOM      5  C   UNL     1       2.397   2.554  19.145  0.00  0.00    +0.000 A 
ATOM      6  C   UNL     1       1.396   1.895  20.030  0.00  0.00    +0.000 C 
ATOM      7  N   UNL     1       3.226   1.711  18.450  0.00  0.00    +0.000 NA
ATOM      8  N   UNL     1       4.264   2.148  17.518  0.00  0.00    +0.000 NA
ATOM      9  C   UNL     1       4.541   3.452  17.222  0.00  0.00    +0.000 A 
ATOM     10  C   UNL     1       3.679   4.339  17.920  0.00  0.00    +0.000 A 
ATOM     11  C   UNL     1       3.618   5.720  17.832  0.00  0.00    +0.000 A 
ATOM     12  C   UNL     1       4.355   6.656  16.925  0.00  0.00    +0.000 C 
ENDROOT
BRANCH   1  16
ATOM     13  C   UNL     1       1.134  10.118  19.157  0.00  0.00    +0.000 A 
ATOM     14  C   UNL     1       1.596   9.673  17.921  0.00  0.00    +0.000 A 
ATOM     15  C   UNL     1       2.157   8.400  17.794  0.00  0.00    +0.000 A 
ATOM     16  C   UNL     1       2.221   7.532  18.894  0.00  0.00    +0.000 A 
ATOM     17  C   UNL     1       1.808   8.007  20.142  0.00  0.00    +0.000 A 
ATOM     18  C   UNL     1       1.298   9.307  20.277  0.00  0.00    +0.000 A 
BRANCH  13  19
ATOM     19  O   UNL     1       0.541  11.352  19.150  0.00  0.00    +0.000 OA
BRANCH  19  21
ATOM     20  C   UNL     1      -1.725  10.821  18.600  0.00  0.00    +0.000 C 
ATOM     21  C   UNL     1      -0.796  11.402  19.651  0.00  0.00    +0.000 C 
ENDBRANCH  19  21
ENDBRANCH  13  19
ENDBRANCH   1  16
BRANCH   9  22
ATOM     22  C   UNL     1       5.629   3.752  16.241  0.00  0.00    +0.000 C 
ATOM     23  C   UNL     1       5.223   4.512  14.978  0.00  0.00    +0.000 C 
ATOM     24  C   UNL     1       6.574   4.886  14.375  0.00  0.00    +0.000 C 
ATOM     25  C   UNL     1       7.500   5.118  15.573  0.00  0.00    +0.000 C 
ATOM     26  C   UNL     1       6.716   4.669  16.803  0.00  0.00    +0.000 C 
ENDBRANCH   9  22
TORSDOF 4
ENDMDL
MODEL 5
REMARK VINA RESULT:      -6.9      4.040      9.999
REMARK  Name = 
REMARK  8 active torsions:
REMARK  status: ('A' for Active; 'I' for Inactive)
REMARK    1  A    between atoms: C_1  and  C_2
REMARK    2  A    between atoms: C_2  and  O_3
REMARK    3  A    between atoms: O_3  and  C_4
REMARK    4  A    between atoms: C_7  and  N_8
REMARK    5  A    between atoms: C_9  and  C_10
REMARK    6  A    between atoms: C_12  and  C_13
REMARK    7  A    between atoms: C_16  and  C_17
REMARK    8  A    between atoms: C_23  and  C_24
REMARK                            x       y       z     vdW  Elec       q    Type
REMARK                         _______ _______ _______ _____ _____    ______ ____
ROOT
ATOM      1  N   UNL     1      -0.625  10.508  19.421  0.00  0.00    +0.000 N 
ATOM      2  C   UNL     1      -1.744  10.631  18.577  0.00  0.00    +0.000 A 
ATOM      3  C   UNL     1      -1.845   9.989  17.231  0.00  0.00    +0.000 C 
ATOM      4  C   UNL     1      -2.634  11.501  19.185  0.00  0.00    +0.000 A 
ATOM      5  C   UNL     1      -3.911  11.905  18.732  0.00  0.00    +0.000 A 
ATOM      6  C   UNL     1      -4.728  11.525  17.546  0.00  0.00    +0.000 C 
ATOM      7  N   UNL     1      -4.489  12.803  19.593  0.00  0.00    +0.000 NA
ATOM      8  N   UNL     1      -3.868  13.295  20.822  0.00  0.00    +0.000 NA
ATOM      9  C   UNL     1      -2.631  12.925  21.267  0.00  0.00    +0.000 A 
ATOM     10  C   UNL     1      -2.025  11.982  20.396  0.00  0.00    +0.000 A 
ATOM     11  C   UNL     1      -0.808  11.337  20.546  0.00  0.00    +0.000 A 
ATOM     12  C   UNL     1       0.157  11.366  21.690  0.00  0.00    +0.000 C 
ENDROOT
BRANCH   1  16
ATOM     13  C   UNL     1       2.494   7.704  18.730  0.00  0.00    +0.000 A 
ATOM     14  C   UNL     1       1.869   7.765  19.972  0.00  0.00    +0.000 A 
ATOM     15  C   UNL     1       0.898   8.737  20.227  0.00  0.00    +0.000 A 
ATOM     16  C   UNL     1       0.502   9.635  19.224  0.00  0.00    +0.000 A 
ATOM     17  C   UNL     1       1.176   9.603  17.999  0.00  0.00    +0.000 A 
ATOM     18  C   UNL     1       2.189   8.662  17.767  0.00  0.00    +0.000 A 
BRANCH  13  19
ATOM     19  O   UNL     1       3.376   6.669  18.569  0.00  0.00    +0.000 OA
BRANCH  19  21
ATOM     20  C   UNL     1       2.107   4.766  17.873  0.00  0.00    +0.000 C 
ATOM     21  C   UNL     1       2.915   5.386  18.998  0.00  0.00    +0.000 C 
ENDBRANCH  19  21
ENDBRANCH  13  19
ENDBRANCH   1  16
BRANCH   9  22
ATOM     22  C   UNL     1      -2.125  13.505  22.548  0.00  0.00    +0.000 C 
ATOM     23  C   UNL     1      -1.436  14.868  22.459  0.00  0.00    +0.000 C 
ATOM     24  C   UNL     1      -1.319  15.269  23.927  0.00  0.00    +0.000 C 
ATOM     25  C   UNL     1      -2.562  14.685  24.606  0.00  0.00    +0.000 C 
ATOM     26  C   UNL     1      -3.233  13.799  23.561  0.00  0.00    +0.000 C 
ENDBRANCH   9  22
TORSDOF 4
ENDMDL
MODEL 6
REMARK VINA RESULT:      -6.8      4.450      8.040
REMARK  Name = 
REMARK  8 active torsions:
REMARK  status: ('A' for Active; 'I' for Inactive)
REMARK    1  A    between atoms: C_1  and  C_2
REMARK    2  A    between atoms: C_2  and  O_3
REMARK    3  A    between atoms: O_3  and  C_4
REMARK    4  A    between atoms: C_7  and  N_8
REMARK    5  A    between atoms: C_9  and  C_10
REMARK    6  A    between atoms: C_12  and  C_13
REMARK    7  A    between atoms: C_16  and  C_17
REMARK    8  A    between atoms: C_23  and  C_24
REMARK                            x       y       z     vdW  Elec       q    Type
REMARK                         _______ _______ _______ _____ _____    ______ ____
ROOT
ATOM      1  N   UNL     1      -1.337  12.609  20.059  0.00  0.00    +0.000 N 
ATOM      2  C   UNL     1      -0.515  13.676  19.653  0.00  0.00    +0.000 A 
ATOM      3  C   UNL     1      -0.920  15.113  19.726  0.00  0.00    +0.000 C 
ATOM      4  C   UNL     1       0.640  13.133  19.112  0.00  0.00    +0.000 A 
ATOM      5  C   UNL     1       1.771  13.812  18.603  0.00  0.00    +0.000 A 
ATOM      6  C   UNL     1       2.129  15.255  18.518  0.00  0.00    +0.000 C 
ATOM      7  N   UNL     1       2.711  12.934  18.127  0.00  0.00    +0.000 NA
ATOM      8  N   UNL     1       2.568  11.479  18.129  0.00  0.00    +0.000 NA
ATOM      9  C   UNL     1       1.478  10.809  18.606  0.00  0.00    +0.000 A 
ATOM     10  C   UNL     1       0.501  11.701  19.120  0.00  0.00    +0.000 A 
ATOM     11  C   UNL     1      -0.701  11.393  19.736  0.00  0.00    +0.000 A 
ATOM     12  C   UNL     1      -1.265  10.062  20.123  0.00  0.00    +0.000 C 
ENDROOT
BRANCH   1  16
ATOM     13  C   UNL     1      -5.056  12.596  22.117  0.00  0.00    +0.000 A 
ATOM     14  C   UNL     1      -5.025  12.625  20.726  0.00  0.00    +0.000 A 
ATOM     15  C   UNL     1      -3.805  12.708  20.048  0.00  0.00    +0.000 A 
ATOM     16  C   UNL     1      -2.593  12.715  20.753  0.00  0.00    +0.000 A 
ATOM     17  C   UNL     1      -2.637  12.743  22.151  0.00  0.00    +0.000 A 
ATOM     18  C   UNL     1      -3.865  12.717  22.827  0.00  0.00    +0.000 A 
BRANCH  13  19
ATOM     19  O   UNL     1      -6.299  12.442  22.671  0.00  0.00    +0.000 OA
BRANCH  19  21
ATOM     20  C   UNL     1      -7.621  13.711  24.208  0.00  0.00    +0.000 C 
ATOM     21  C   UNL     1      -6.415  12.802  24.048  0.00  0.00    +0.000 C 
ENDBRANCH  19  21
ENDBRANCH  13  19
ENDBRANCH   1  16
BRANCH   9  22
ATOM     22  C   UNL     1       1.473   9.315  18.552  0.00  0.00    +0.000 C 
ATOM     23  C   UNL     1       2.515   8.658  17.646  0.00  0.00    +0.000 C 
ATOM     24  C   UNL     1       2.415   7.189  18.050  0.00  0.00    +0.000 C 
ATOM     25  C   UNL     1       2.080   7.202  19.543  0.00  0.00    +0.000 C 
ATOM     26  C   UNL     1       1.791   8.658  19.896  0.00  0.00    +0.000 C 
ENDBRANCH   9  22
TORSDOF 4
ENDMDL
MODEL 7
REMARK VINA RESULT:      -6.7      4.051      9.779
REMARK  Name = 
REMARK  8 active torsions:
REMARK  status: ('A' for Active; 'I' for Inactive)
REMARK    1  A    between atoms: C_1  and  C_2
REMARK    2  A    between atoms: C_2  and  O_3
REMARK    3  A    between atoms: O_3  and  C_4
REMARK    4  A    between atoms: C_7  and  N_8
REMARK    5  A    between atoms: C_9  and  C_10
REMARK    6  A    between atoms: C_12  and  C_13
REMARK    7  A    between atoms: C_16  and  C_17
REMARK    8  A    between atoms: C_23  and  C_24
REMARK                            x       y       z     vdW  Elec       q    Type
REMARK                         _______ _______ _______ _____ _____    ______ ____
ROOT
ATOM      1  N   UNL     1      -0.132  10.631  19.452  0.00  0.00    +0.000 N 
ATOM      2  C   UNL     1      -1.422  10.683  18.893  0.00  0.00    +0.000 A 
ATOM      3  C   UNL     1      -1.884   9.793  17.785  0.00  0.00    +0.000 C 
ATOM      4  C   UNL     1      -2.096  11.738  19.488  0.00  0.00    +0.000 A 
ATOM      5  C   UNL     1      -3.428  12.158  19.274  0.00  0.00    +0.000 A 
ATOM      6  C   UNL     1      -4.532  11.622  18.430  0.00  0.00    +0.000 C 
ATOM      7  N   UNL     1      -3.734  13.261  20.029  0.00  0.00    +0.000 NA
ATOM      8  N   UNL     1      -2.806  13.934  20.935  0.00  0.00    +0.000 NA
ATOM      9  C   UNL     1      -1.512  13.549  21.143  0.00  0.00    +0.000 A 
ATOM     10  C   UNL     1      -1.182  12.396  20.384  0.00  0.00    +0.000 A 
ATOM     11  C   UNL     1       0.007  11.685  20.378  0.00  0.00    +0.000 A 
ATOM     12  C   UNL     1       1.230  11.857  21.224  0.00  0.00    +0.000 C 
ENDROOT
BRANCH   1  16
ATOM     13  C   UNL     1       2.600   7.499  18.564  0.00  0.00    +0.000 A 
ATOM     14  C   UNL     1       2.009   7.578  19.822  0.00  0.00    +0.000 A 
ATOM     15  C   UNL     1       1.171   8.650  20.142  0.00  0.00    +0.000 A 
ATOM     16  C   UNL     1       0.874   9.636  19.190  0.00  0.00    +0.000 A 
ATOM     17  C   UNL     1       1.517   9.579  17.950  0.00  0.00    +0.000 A 
ATOM     18  C   UNL     1       2.401   8.532  17.653  0.00  0.00    +0.000 A 
BRANCH  13  19
ATOM     19  O   UNL     1       3.344   6.371  18.337  0.00  0.00    +0.000 OA
BRANCH  19  21
ATOM     20  C   UNL     1       1.865   4.574  17.788  0.00  0.00    +0.000 C 
ATOM     21  C   UNL     1       2.794   5.152  18.840  0.00  0.00    +0.000 C 
ENDBRANCH  19  21
ENDBRANCH  13  19
ENDBRANCH   1  16
BRANCH   9  22
ATOM     22  C   UNL     1      -0.676  14.328  22.108  0.00  0.00    +0.000 C 
ATOM     23  C   UNL     1       0.152  15.475  21.527  0.00  0.00    +0.000 C 
ATOM     24  C   UNL     1       0.625  16.203  22.782  0.00  0.00    +0.000 C 
ATOM     25  C   UNL     1      -0.513  16.045  23.794  0.00  0.00    +0.000 C 
ATOM     26  C   UNL     1      -1.499  15.064  23.166  0.00  0.00    +0.000 C 
ENDBRANCH   9  22
TORSDOF 4
ENDMDL
MODEL 8
REMARK VINA RESULT:      -6.6      5.044      8.513
REMARK  Name = 
REMARK  8 active torsions:
REMARK  status: ('A' for Active; 'I' for Inactive)
REMARK    1  A    between atoms: C_1  and  C_2
REMARK    2  A    between atoms: C_2  and  O_3
REMARK    3  A    between atoms: O_3  and  C_4
REMARK    4  A    between atoms: C_7  and  N_8
REMARK    5  A    between atoms: C_9  and  C_10
REMARK    6  A    between atoms: C_12  and  C_13
REMARK    7  A    between atoms: C_16  and  C_17
REMARK    8  A    between atoms: C_23  and  C_24
REMARK                            x       y       z     vdW  Elec       q    Type
REMARK                         _______ _______ _______ _____ _____    ______ ____
ROOT
ATOM      1  N   UNL     1      -2.529  12.792  20.974  0.00  0.00    +0.000 N 
ATOM      2  C   UNL     1      -3.537  12.652  20.002  0.00  0.00    +0.000 A 
ATOM      3  C   UNL     1      -4.901  13.249  20.126  0.00  0.00    +0.000 C 
ATOM      4  C   UNL     1      -3.052  11.810  19.014  0.00  0.00    +0.000 A 
ATOM      5  C   UNL     1      -3.690  11.402  17.820  0.00  0.00    +0.000 A 
ATOM      6  C   UNL     1      -5.002  11.750  17.208  0.00  0.00    +0.000 C 
ATOM      7  N   UNL     1      -2.904  10.539  17.100  0.00  0.00    +0.000 NA
ATOM      8  N   UNL     1      -1.578  10.082  17.510  0.00  0.00    +0.000 NA
ATOM      9  C   UNL     1      -0.953  10.456  18.665  0.00  0.00    +0.000 A 
ATOM     10  C   UNL     1      -1.744  11.364  19.416  0.00  0.00    +0.000 A 
ATOM     11  C   UNL     1      -1.422  12.003  20.602  0.00  0.00    +0.000 A 
ATOM     12  C   UNL     1      -0.139  12.003  21.373  0.00  0.00    +0.000 C 
ENDROOT
BRANCH   1  16
ATOM     13  C   UNL     1      -2.956  15.402  24.302  0.00  0.00    +0.000 A 
ATOM     14  C   UNL     1      -2.425  15.874  23.105  0.00  0.00    +0.000 A 
ATOM     15  C   UNL     1      -2.211  15.000  22.035  0.00  0.00    +0.000 A 
ATOM     16  C   UNL     1      -2.571  13.648  22.131  0.00  0.00    +0.000 A 
ATOM     17  C   UNL     1      -3.051  13.172  23.355  0.00  0.00    +0.000 A 
ATOM     18  C   UNL     1      -3.211  14.041  24.444  0.00  0.00    +0.000 A 
BRANCH  13  19
ATOM     19  O   UNL     1      -3.189  16.358  25.255  0.00  0.00    +0.000 OA
BRANCH  19  21
ATOM     20  C   UNL     1      -1.123  16.109  26.434  0.00  0.00    +0.000 C 
ATOM     21  C   UNL     1      -2.040  17.077  25.708  0.00  0.00    +0.000 C 
ENDBRANCH  19  21
ENDBRANCH  13  19
ENDBRANCH   1  16
BRANCH   9  22
ATOM     22  C   UNL     1       0.411   9.914  18.953  0.00  0.00    +0.000 C 
ATOM     23  C   UNL     1       0.507   8.839  20.036  0.00  0.00    +0.000 C 
ATOM     24  C   UNL     1       1.936   8.329  19.861  0.00  0.00    +0.000 C 
ATOM     25  C   UNL     1       2.222   8.435  18.361  0.00  0.00    +0.000 C 
ATOM     26  C   UNL     1       1.040   9.191  17.760  0.00  0.00    +0.000 C 
ENDBRANCH   9  22
TORSDOF 4
ENDMDL
MODEL 9
REMARK VINA RESULT:      -6.5      5.490      8.583
REMARK  Name = 
REMARK  8 active torsions:
REMARK  status: ('A' for Active; 'I' for Inactive)
REMARK    1  A    between atoms: C_1  and  C_2
REMARK    2  A    between atoms: C_2  and  O_3
REMARK    3  A    between atoms: O_3  and  C_4
REMARK    4  A    between atoms: C_7  and  N_8
REMARK    5  A    between atoms: C_9  and  C_10
REMARK    6  A    between atoms: C_12  and  C_13
REMARK    7  A    between atoms: C_16  and  C_17
REMARK    8  A    between atoms: C_23  and  C_24
REMARK                            x       y       z     vdW  Elec       q    Type
REMARK                         _______ _______ _______ _____ _____    ______ ____
ROOT
ATOM      1  N   UNL     1      -0.746  12.391  20.571  0.00  0.00    +0.000 N 
ATOM      2  C   UNL     1      -0.305  11.197  19.971  0.00  0.00    +0.000 A 
ATOM      3  C   UNL     1      -0.911   9.858  20.242  0.00  0.00    +0.000 C 
ATOM      4  C   UNL     1       0.806  11.500  19.200  0.00  0.00    +0.000 A 
ATOM      5  C   UNL     1       1.570  10.632  18.387  0.00  0.00    +0.000 A 
ATOM      6  C   UNL     1       1.434   9.189  18.045  0.00  0.00    +0.000 C 
ATOM      7  N   UNL     1       2.616  11.291  17.794  0.00  0.00    +0.000 NA
ATOM      8  N   UNL     1       2.920  12.709  17.981  0.00  0.00    +0.000 NA
ATOM      9  C   UNL     1       2.200  13.558  18.772  0.00  0.00    +0.000 A 
ATOM     10  C   UNL     1       1.101  12.897  19.381  0.00  0.00    +0.000 A 
ATOM     11  C   UNL     1       0.120  13.438  20.195  0.00  0.00    +0.000 A 
ATOM     12  C   UNL     1      -0.124  14.863  20.583  0.00  0.00    +0.000 C 
ENDROOT
BRANCH   1  16
ATOM     13  C   UNL     1      -4.286  12.561  22.918  0.00  0.00    +0.000 A 
ATOM     14  C   UNL     1      -4.336  12.830  21.553  0.00  0.00    +0.000 A 
ATOM     15  C   UNL     1      -3.163  12.852  20.794  0.00  0.00    +0.000 A 
ATOM     16  C   UNL     1      -1.924  12.556  21.381  0.00  0.00    +0.000 A 
ATOM     17  C   UNL     1      -1.876  12.343  22.763  0.00  0.00    +0.000 A 
ATOM     18  C   UNL     1      -3.049  12.378  23.530  0.00  0.00    +0.000 A 
BRANCH  13  19
ATOM     19  O   UNL     1      -5.501  12.496  23.546  0.00  0.00    +0.000 OA
BRANCH  19  21
ATOM     20  C   UNL     1      -7.831  12.095  23.189  0.00  0.00    +0.000 C 
ATOM     21  C   UNL     1      -6.625  12.916  22.771  0.00  0.00    +0.000 C 
ENDBRANCH  19  21
ENDBRANCH  13  19
ENDBRANCH   1  16
BRANCH   9  22
ATOM     22  C   UNL     1       2.623  14.989  18.863  0.00  0.00    +0.000 C 
ATOM     23  C   UNL     1       3.520  15.366  20.043  0.00  0.00    +0.000 C 
ATOM     24  C   UNL     1       3.976  16.773  19.667  0.00  0.00    +0.000 C 
ATOM     25  C   UNL     1       4.078  16.771  18.140  0.00  0.00    +0.000 C 
ATOM     26  C   UNL     1       3.480  15.444  17.681  0.00  0.00    +0.000 C 
ENDBRANCH   9  22
TORSDOF 4
ENDMDL
