MODEL 1
REMARK VINA RESULT:      -7.6      0.000      0.000
REMARK  Name = 
REMARK  7 active torsions:
REMARK  status: ('A' for Active; 'I' for Inactive)
REMARK    1  A    between atoms: C_1  and  N_2
REMARK    2  A    between atoms: N_2  and  C_3
REMARK    3  A    between atoms: C_4  and  C_6
REMARK    4  A    between atoms: C_9  and  C_10
REMARK    5  A    between atoms: C_10  and  N_11
REMARK    6  A    between atoms: N_14  and  C_15
REMARK    7  A    between atoms: N_14  and  C_16
REMARK                            x       y       z     vdW  Elec       q    Type
REMARK                         _______ _______ _______ _____ _____    ______ ____
ROOT
ATOM      1  N   UNL     1       7.967   7.965  18.064  0.00  0.00    +0.000 N 
ATOM      2  C   UNL     1       6.862   7.253  17.690  0.00  0.00    +0.000 C 
ATOM      3  O   UNL     1       6.187   7.598  16.723  0.00  0.00    +0.000 OA
ATOM      4  N   UNL     1       6.580   6.110  18.431  0.00  0.00    +0.000 N 
ATOM      5  C   UNL     1       7.400   5.583  19.519  0.00  0.00    +0.000 C 
ATOM      6  H   UNL     1       8.340   7.864  18.988  0.00  0.00    +0.000 HD
ENDROOT
BRANCH   4   7
ATOM      7  C   UNL     1       5.508   5.201  17.966  0.00  0.00    +0.000 C 
ATOM      8  C   UNL     1       5.413   3.817  18.660  0.00  0.00    +0.000 C 
ATOM      9  C   UNL     1       3.964   3.475  18.457  0.00  0.00    +0.000 A 
ATOM     10  C   UNL     1       3.344   2.250  18.653  0.00  0.00    +0.000 A 
ATOM     11  C   UNL     1       1.960   2.167  18.471  0.00  0.00    +0.000 A 
ATOM     12  C   UNL     1       1.218   3.299  18.104  0.00  0.00    +0.000 A 
ATOM     13  C   UNL     1       1.848   4.530  17.915  0.00  0.00    +0.000 A 
ATOM     14  C   UNL     1       3.221   4.604  18.093  0.00  0.00    +0.000 A 
ATOM     15  C   UNL     1       4.088   5.822  18.018  0.00  0.00    +0.000 C 
ENDBRANCH   4   7
BRANCH   1  16
ATOM     16  C   UNL     1       8.404   9.146  17.347  0.00  0.00    +0.000 C 
BRANCH  16  20
ATOM     17  C   UNL     1       9.393  12.222  18.951  0.00  0.00    +0.000 A 
ATOM     18  C   UNL     1       9.668  11.390  20.021  0.00  0.00    +0.000 A 
ATOM     19  C   UNL     1       9.323  10.076  19.625  0.00  0.00    +0.000 A 
ATOM     20  C   UNL     1       8.873  10.164  18.326  0.00  0.00    +0.000 A 
ATOM     21  O   UNL     1       8.916  11.465  17.908  0.00  0.00    +0.000 OA
BRANCH  17  25
ATOM     22  C   UNL     1      11.034  15.563  18.247  0.00  0.00    +0.000 C 
ATOM     23  N   UNL     1      10.833  14.127  18.327  0.00  0.00    +0.000 N 
ATOM     24  C   UNL     1      11.855  13.259  17.766  0.00  0.00    +0.000 C 
ATOM     25  C   UNL     1       9.600  13.661  18.815  0.00  0.00    +0.000 C 
ATOM     26  O   UNL     1       8.706  14.460  19.094  0.00  0.00    +0.000 OA
ENDBRANCH  17  25
ENDBRANCH  16  20
ENDBRANCH   1  16
TORSDOF 4
ENDMDL
MODEL 2
REMARK VINA RESULT:      -7.6      1.661      2.084
REMARK  Name = 
REMARK  7 active torsions:
REMARK  status: ('A' for Active; 'I' for Inactive)
REMARK    1  A    between atoms: C_1  and  N_2
REMARK    2  A    between atoms: N_2  and  C_3
REMARK    3  A    between atoms: C_4  and  C_6
REMARK    4  A    between atoms: C_9  and  C_10
REMARK    5  A    between atoms: C_10  and  N_11
REMARK    6  A    between atoms: N_14  and  C_15
REMARK    7  A    between atoms: N_14  and  C_16
REMARK                            x       y       z     vdW  Elec       q    Type
REMARK                         _______ _______ _______ _____ _____    ______ ____
ROOT
ATOM      1  N   UNL     1       7.464   7.194  18.173  0.00  0.00    +0.000 N 
ATOM      2  C   UNL     1       6.757   6.149  18.697  0.00  0.00    +0.000 C 
ATOM      3  O   UNL     1       7.095   5.628  19.758  0.00  0.00    +0.000 OA
ATOM      4  N   UNL     1       5.628   5.747  17.992  0.00  0.00    +0.000 N 
ATOM      5  C   UNL     1       5.108   6.391  16.789  0.00  0.00    +0.000 C 
ATOM      6  H   UNL     1       7.372   7.425  17.203  0.00  0.00    +0.000 HD
ENDROOT
BRANCH   4   7
ATOM      7  C   UNL     1       4.723   4.744  18.600  0.00  0.00    +0.000 C 
ATOM      8  C   UNL     1       3.671   5.273  19.610  0.00  0.00    +0.000 C 
ATOM      9  C   UNL     1       2.600   4.224  19.509  0.00  0.00    +0.000 A 
ATOM     10  C   UNL     1       1.517   4.031  20.352  0.00  0.00    +0.000 A 
ATOM     11  C   UNL     1       0.594   3.029  20.034  0.00  0.00    +0.000 A 
ATOM     12  C   UNL     1       0.760   2.243  18.884  0.00  0.00    +0.000 A 
ATOM     13  C   UNL     1       1.850   2.449  18.036  0.00  0.00    +0.000 A 
ATOM     14  C   UNL     1       2.763   3.440  18.361  0.00  0.00    +0.000 A 
ATOM     15  C   UNL     1       3.953   3.882  17.567  0.00  0.00    +0.000 C 
ENDBRANCH   4   7
BRANCH   1  16
ATOM     16  C   UNL     1       8.631   7.746  18.831  0.00  0.00    +0.000 C 
BRANCH  16  20
ATOM     17  C   UNL     1       9.436  11.261  18.920  0.00  0.00    +0.000 A 
ATOM     18  C   UNL     1       8.511  11.337  17.894  0.00  0.00    +0.000 A 
ATOM     19  C   UNL     1       8.052  10.020  17.652  0.00  0.00    +0.000 A 
ATOM     20  C   UNL     1       8.702   9.206  18.553  0.00  0.00    +0.000 A 
ATOM     21  O   UNL     1       9.543   9.954  19.330  0.00  0.00    +0.000 OA
BRANCH  17  25
ATOM     22  C   UNL     1      12.037  13.927  19.616  0.00  0.00    +0.000 C 
ATOM     23  N   UNL     1      11.282  12.900  18.920  0.00  0.00    +0.000 N 
ATOM     24  C   UNL     1      11.616  12.626  17.532  0.00  0.00    +0.000 C 
ATOM     25  C   UNL     1      10.181  12.329  19.581  0.00  0.00    +0.000 C 
ATOM     26  O   UNL     1       9.841  12.750  20.688  0.00  0.00    +0.000 OA
ENDBRANCH  17  25
ENDBRANCH  16  20
ENDBRANCH   1  16
TORSDOF 4
ENDMDL
MODEL 3
REMARK VINA RESULT:      -7.5      0.821      1.087
REMARK  Name = 
REMARK  7 active torsions:
REMARK  status: ('A' for Active; 'I' for Inactive)
REMARK    1  A    between atoms: C_1  and  N_2
REMARK    2  A    between atoms: N_2  and  C_3
REMARK    3  A    between atoms: C_4  and  C_6
REMARK    4  A    between atoms: C_9  and  C_10
REMARK    5  A    between atoms: C_10  and  N_11
REMARK    6  A    between atoms: N_14  and  C_15
REMARK    7  A    between atoms: N_14  and  C_16
REMARK                            x       y       z     vdW  Elec       q    Type
REMARK                         _______ _______ _______ _____ _____    ______ ____
ROOT
ATOM      1  N   UNL     1       7.944   7.984  18.036  0.00  0.00    +0.000 N 
ATOM      2  C   UNL     1       6.832   7.289  17.651  0.00  0.00    +0.000 C 
ATOM      3  O   UNL     1       6.164   7.654  16.686  0.00  0.00    +0.000 OA
ATOM      4  N   UNL     1       6.535   6.141  18.377  0.00  0.00    +0.000 N 
ATOM      5  C   UNL     1       7.345   5.591  19.460  0.00  0.00    +0.000 C 
ATOM      6  H   UNL     1       8.313   7.867  18.960  0.00  0.00    +0.000 HD
ENDROOT
BRANCH   4   7
ATOM      7  C   UNL     1       5.453   5.251  17.898  0.00  0.00    +0.000 C 
ATOM      8  C   UNL     1       5.438   3.804  18.458  0.00  0.00    +0.000 C 
ATOM      9  C   UNL     1       3.986   3.441  18.320  0.00  0.00    +0.000 A 
ATOM     10  C   UNL     1       3.409   2.186  18.436  0.00  0.00    +0.000 A 
ATOM     11  C   UNL     1       2.018   2.080  18.340  0.00  0.00    +0.000 A 
ATOM     12  C   UNL     1       1.227   3.220  18.136  0.00  0.00    +0.000 A 
ATOM     13  C   UNL     1       1.815   4.482  18.027  0.00  0.00    +0.000 A 
ATOM     14  C   UNL     1       3.195   4.578  18.119  0.00  0.00    +0.000 A 
ATOM     15  C   UNL     1       4.027   5.822  18.106  0.00  0.00    +0.000 C 
ENDBRANCH   4   7
BRANCH   1  16
ATOM     16  C   UNL     1       8.397   9.169  17.335  0.00  0.00    +0.000 C 
BRANCH  16  20
ATOM     17  C   UNL     1       9.917  12.040  18.903  0.00  0.00    +0.000 A 
ATOM     18  C   UNL     1       9.793  11.280  20.052  0.00  0.00    +0.000 A 
ATOM     19  C   UNL     1       9.173  10.063  19.679  0.00  0.00    +0.000 A 
ATOM     20  C   UNL     1       8.966  10.129  18.319  0.00  0.00    +0.000 A 
ATOM     21  O   UNL     1       9.419  11.326  17.839  0.00  0.00    +0.000 OA
BRANCH  17  25
ATOM     22  C   UNL     1      10.302  15.763  18.319  0.00  0.00    +0.000 C 
ATOM     23  N   UNL     1       9.680  14.471  18.546  0.00  0.00    +0.000 N 
ATOM     24  C   UNL     1       8.238  14.426  18.727  0.00  0.00    +0.000 C 
ATOM     25  C   UNL     1      10.520  13.357  18.720  0.00  0.00    +0.000 C 
ATOM     26  O   UNL     1      11.742  13.505  18.745  0.00  0.00    +0.000 OA
ENDBRANCH  17  25
ENDBRANCH  16  20
ENDBRANCH   1  16
TORSDOF 4
ENDMDL
MODEL 4
REMARK VINA RESULT:      -7.5      5.581      7.412
REMARK  Name = 
REMARK  7 active torsions:
REMARK  status: ('A' for Active; 'I' for Inactive)
REMARK    1  A    between atoms: C_1  and  N_2
REMARK    2  A    between atoms: N_2  and  C_3
REMARK    3  A    between atoms: C_4  and  C_6
REMARK    4  A    between atoms: C_9  and  C_10
REMARK    5  A    between atoms: C_10  and  N_11
REMARK    6  A    between atoms: N_14  and  C_15
REMARK    7  A    between atoms: N_14  and  C_16
REMARK                            x       y       z     vdW  Elec       q    Type
REMARK                         _______ _______ _______ _____ _____    ______ ____
ROOT
ATOM      1  N   UNL     1       3.968   5.789  19.369  0.00  0.00    +0.000 N 
ATOM      2  C   UNL     1       4.411   5.136  18.254  0.00  0.00    +0.000 C 
ATOM      3  O   UNL     1       3.618   4.717  17.412  0.00  0.00    +0.000 OA
ATOM      4  N   UNL     1       5.789   5.015  18.110  0.00  0.00    +0.000 N 
ATOM      5  C   UNL     1       6.786   5.584  19.012  0.00  0.00    +0.000 C 
ATOM      6  H   UNL     1       4.563   5.873  20.171  0.00  0.00    +0.000 HD
ENDROOT
BRANCH   4   7
ATOM      7  C   UNL     1       6.333   4.481  16.841  0.00  0.00    +0.000 C 
ATOM      8  C   UNL     1       5.319   3.825  15.867  0.00  0.00    +0.000 C 
ATOM      9  C   UNL     1       6.011   4.003  14.544  0.00  0.00    +0.000 A 
ATOM     10  C   UNL     1       5.698   3.405  13.334  0.00  0.00    +0.000 A 
ATOM     11  C   UNL     1       6.434   3.767  12.201  0.00  0.00    +0.000 A 
ATOM     12  C   UNL     1       7.462   4.717  12.290  0.00  0.00    +0.000 A 
ATOM     13  C   UNL     1       7.766   5.321  13.512  0.00  0.00    +0.000 A 
ATOM     14  C   UNL     1       7.036   4.953  14.631  0.00  0.00    +0.000 A 
ATOM     15  C   UNL     1       7.136   5.517  16.014  0.00  0.00    +0.000 C 
ENDBRANCH   4   7
BRANCH   1  16
ATOM     16  C   UNL     1       2.561   6.029  19.618  0.00  0.00    +0.000 C 
BRANCH  16  20
ATOM     17  C   UNL     1       1.361   9.430  19.525  0.00  0.00    +0.000 A 
ATOM     18  C   UNL     1       1.823   9.389  18.221  0.00  0.00    +0.000 A 
ATOM     19  C   UNL     1       2.384   8.105  18.019  0.00  0.00    +0.000 A 
ATOM     20  C   UNL     1       2.222   7.417  19.202  0.00  0.00    +0.000 A 
ATOM     21  O   UNL     1       1.598   8.214  20.120  0.00  0.00    +0.000 OA
BRANCH  17  25
ATOM     22  C   UNL     1      -1.226  12.044  20.432  0.00  0.00    +0.000 C 
ATOM     23  N   UNL     1      -0.575  10.944  19.741  0.00  0.00    +0.000 N 
ATOM     24  C   UNL     1      -1.307  10.272  18.680  0.00  0.00    +0.000 C 
ATOM     25  C   UNL     1       0.665  10.501  20.231  0.00  0.00    +0.000 C 
ATOM     26  O   UNL     1       1.136  10.996  21.256  0.00  0.00    +0.000 OA
ENDBRANCH  17  25
ENDBRANCH  16  20
ENDBRANCH   1  16
TORSDOF 4
ENDMDL
MODEL 5
REMARK VINA RESULT:      -7.4      5.859      9.760
REMARK  Name = 
REMARK  7 active torsions:
REMARK  status: ('A' for Active; 'I' for Inactive)
REMARK    1  A    between atoms: C_1  and  N_2
REMARK    2  A    between atoms: N_2  and  C_3
REMARK    3  A    between atoms: C_4  and  C_6
REMARK    4  A    between atoms: C_9  and  C_10
REMARK    5  A    between atoms: C_10  and  N_11
REMARK    6  A    between atoms: N_14  and  C_15
REMARK    7  A    between atoms: N_14  and  C_16
REMARK                            x       y       z     vdW  Elec       q    Type
REMARK                         _______ _______ _______ _____ _____    ______ ____
ROOT
ATOM      1  N   UNL     1       2.953   7.797  18.499  0.00  0.00    +0.000 N 
ATOM      2  C   UNL     1       2.121   8.839  18.202  0.00  0.00    +0.000 C 
ATOM      3  O   UNL     1       2.083   9.312  17.068  0.00  0.00    +0.000 OA
ATOM      4  N   UNL     1       1.305   9.295  19.232  0.00  0.00    +0.000 N 
ATOM      5  C   UNL     1       1.220   8.709  20.567  0.00  0.00    +0.000 C 
ATOM      6  H   UNL     1       3.196   7.604  19.452  0.00  0.00    +0.000 HD
ENDROOT
BRANCH   4   7
ATOM      7  C   UNL     1       0.257  10.296  18.925  0.00  0.00    +0.000 C 
ATOM      8  C   UNL     1      -0.969   9.799  18.116  0.00  0.00    +0.000 C 
ATOM      9  C   UNL     1      -2.028  10.779  18.539  0.00  0.00    +0.000 A 
ATOM     10  C   UNL     1      -3.273  10.985  17.965  0.00  0.00    +0.000 A 
ATOM     11  C   UNL     1      -4.138  11.906  18.564  0.00  0.00    +0.000 A 
ATOM     12  C   UNL     1      -3.755  12.599  19.721  0.00  0.00    +0.000 A 
ATOM     13  C   UNL     1      -2.502  12.381  20.297  0.00  0.00    +0.000 A 
ATOM     14  C   UNL     1      -1.648  11.470  19.694  0.00  0.00    +0.000 A 
ATOM     15  C   UNL     1      -0.300  11.026  20.174  0.00  0.00    +0.000 C 
ENDBRANCH   4   7
BRANCH   1  16
ATOM     16  C   UNL     1       3.820   7.192  17.507  0.00  0.00    +0.000 C 
BRANCH  16  20
ATOM     17  C   UNL     1       3.570   3.876  18.903  0.00  0.00    +0.000 A 
ATOM     18  C   UNL     1       4.025   3.488  17.655  0.00  0.00    +0.000 A 
ATOM     19  C   UNL     1       4.181   4.667  16.887  0.00  0.00    +0.000 A 
ATOM     20  C   UNL     1       3.834   5.718  17.706  0.00  0.00    +0.000 A 
ATOM     21  O   UNL     1       3.464   5.245  18.934  0.00  0.00    +0.000 OA
BRANCH  17  25
ATOM     22  C   UNL     1       1.749   2.326  21.841  0.00  0.00    +0.000 C 
ATOM     23  N   UNL     1       1.995   3.105  20.641  0.00  0.00    +0.000 N 
ATOM     24  C   UNL     1       0.866   3.763  20.005  0.00  0.00    +0.000 C 
ATOM     25  C   UNL     1       3.285   3.063  20.082  0.00  0.00    +0.000 C 
ATOM     26  O   UNL     1       4.144   2.327  20.570  0.00  0.00    +0.000 OA
ENDBRANCH  17  25
ENDBRANCH  16  20
ENDBRANCH   1  16
TORSDOF 4
ENDMDL
MODEL 6
REMARK VINA RESULT:      -7.3      7.055     10.466
REMARK  Name = 
REMARK  7 active torsions:
REMARK  status: ('A' for Active; 'I' for Inactive)
REMARK    1  A    between atoms: C_1  and  N_2
REMARK    2  A    between atoms: N_2  and  C_3
REMARK    3  A    between atoms: C_4  and  C_6
REMARK    4  A    between atoms: C_9  and  C_10
REMARK    5  A    between atoms: C_10  and  N_11
REMARK    6  A    between atoms: N_14  and  C_15
REMARK    7  A    between atoms: N_14  and  C_16
REMARK                            x       y       z     vdW  Elec       q    Type
REMARK                         _______ _______ _______ _____ _____    ______ ____
ROOT
ATOM      1  N   UNL     1       1.471   8.950  19.166  0.00  0.00    +0.000 N 
ATOM      2  C   UNL     1       0.968  10.119  19.663  0.00  0.00    +0.000 C 
ATOM      3  O   UNL     1       1.155  11.185  19.079  0.00  0.00    +0.000 OA
ATOM      4  N   UNL     1       0.209  10.025  20.825  0.00  0.00    +0.000 N 
ATOM      5  C   UNL     1      -0.144   8.782  21.506  0.00  0.00    +0.000 C 
ATOM      6  H   UNL     1       1.569   8.152  19.764  0.00  0.00    +0.000 HD
ENDROOT
BRANCH   4   7
ATOM      7  C   UNL     1      -0.510  11.225  21.310  0.00  0.00    +0.000 C 
ATOM      8  C   UNL     1      -1.609  11.805  20.380  0.00  0.00    +0.000 C 
ATOM      9  C   UNL     1      -2.502  12.504  21.366  0.00  0.00    +0.000 A 
ATOM     10  C   UNL     1      -3.520  13.406  21.100  0.00  0.00    +0.000 A 
ATOM     11  C   UNL     1      -4.280  13.888  22.170  0.00  0.00    +0.000 A 
ATOM     12  C   UNL     1      -4.019  13.464  23.481  0.00  0.00    +0.000 A 
ATOM     13  C   UNL     1      -2.996  12.550  23.740  0.00  0.00    +0.000 A 
ATOM     14  C   UNL     1      -2.244  12.080  22.675  0.00  0.00    +0.000 A 
ATOM     15  C   UNL     1      -1.158  11.049  22.707  0.00  0.00    +0.000 C 
ENDBRANCH   4   7
BRANCH   1  16
ATOM     16  C   UNL     1       2.235   8.898  17.936  0.00  0.00    +0.000 C 
BRANCH  16  20
ATOM     17  C   UNL     1       2.844   5.343  17.893  0.00  0.00    +0.000 A 
ATOM     18  C   UNL     1       4.135   5.728  17.578  0.00  0.00    +0.000 A 
ATOM     19  C   UNL     1       4.141   7.142  17.512  0.00  0.00    +0.000 A 
ATOM     20  C   UNL     1       2.860   7.554  17.807  0.00  0.00    +0.000 A 
ATOM     21  O   UNL     1       2.067   6.466  18.043  0.00  0.00    +0.000 OA
BRANCH  17  25
ATOM     22  C   UNL     1       1.717   2.171  19.632  0.00  0.00    +0.000 C 
ATOM     23  N   UNL     1       2.214   3.521  19.435  0.00  0.00    +0.000 N 
ATOM     24  C   UNL     1       2.452   4.343  20.611  0.00  0.00    +0.000 C 
ATOM     25  C   UNL     1       2.302   4.006  18.119  0.00  0.00    +0.000 C 
ATOM     26  O   UNL     1       1.900   3.317  17.180  0.00  0.00    +0.000 OA
ENDBRANCH  17  25
ENDBRANCH  16  20
ENDBRANCH   1  16
TORSDOF 4
ENDMDL
MODEL 7
REMARK VINA RESULT:      -7.3      6.428      8.153
REMARK  Name = 
REMARK  7 active torsions:
REMARK  status: ('A' for Active; 'I' for Inactive)
REMARK    1  A    between atoms: C_1  and  N_2
REMARK    2  A    between atoms: N_2  and  C_3
REMARK    3  A    between atoms: C_4  and  C_6
REMARK    4  A    between atoms: C_9  and  C_10
REMARK    5  A    between atoms: C_10  and  N_11
REMARK    6  A    between atoms: N_14  and  C_15
REMARK    7  A    between atoms: N_14  and  C_16
REMARK                            x       y       z     vdW  Elec       q    Type
REMARK                         _______ _______ _______ _____ _____    ______ ____
ROOT
ATOM      1  N   UNL     1       1.453   7.776  20.344  0.00  0.00    +0.000 N 
ATOM      2  C   UNL     1       2.265   7.066  19.505  0.00  0.00    +0.000 C 
ATOM      3  O   UNL     1       2.790   7.603  18.532  0.00  0.00    +0.000 OA
ATOM      4  N   UNL     1       2.490   5.735  19.838  0.00  0.00    +0.000 N 
ATOM      5  C   UNL     1       1.989   5.065  21.035  0.00  0.00    +0.000 C 
ATOM      6  H   UNL     1       0.814   7.296  20.948  0.00  0.00    +0.000 HD
ENDROOT
BRANCH   4   7
ATOM      7  C   UNL     1       3.499   4.966  19.074  0.00  0.00    +0.000 C 
ATOM      8  C   UNL     1       3.289   4.868  17.540  0.00  0.00    +0.000 C 
ATOM      9  C   UNL     1       4.694   4.644  17.056  0.00  0.00    +0.000 A 
ATOM     10  C   UNL     1       5.105   4.244  15.794  0.00  0.00    +0.000 A 
ATOM     11  C   UNL     1       6.476   4.164  15.533  0.00  0.00    +0.000 A 
ATOM     12  C   UNL     1       7.413   4.486  16.526  0.00  0.00    +0.000 A 
ATOM     13  C   UNL     1       6.991   4.895  17.793  0.00  0.00    +0.000 A 
ATOM     14  C   UNL     1       5.630   4.967  18.045  0.00  0.00    +0.000 A 
ATOM     15  C   UNL     1       4.956   5.447  19.293  0.00  0.00    +0.000 C 
ENDBRANCH   4   7
BRANCH   1  16
ATOM     16  C   UNL     1       1.175   9.184  20.144  0.00  0.00    +0.000 C 
BRANCH  16  20
ATOM     17  C   UNL     1      -1.004  11.115  22.273  0.00  0.00    +0.000 A 
ATOM     18  C   UNL     1      -0.624  10.192  23.231  0.00  0.00    +0.000 A 
ATOM     19  C   UNL     1       0.252   9.276  22.600  0.00  0.00    +0.000 A 
ATOM     20  C   UNL     1       0.380   9.692  21.293  0.00  0.00    +0.000 A 
ATOM     21  O   UNL     1      -0.378  10.811  21.088  0.00  0.00    +0.000 OA
BRANCH  17  25
ATOM     22  C   UNL     1      -2.144  14.716  22.558  0.00  0.00    +0.000 C 
ATOM     23  N   UNL     1      -1.276  13.566  22.379  0.00  0.00    +0.000 N 
ATOM     24  C   UNL     1       0.118  13.803  22.042  0.00  0.00    +0.000 C 
ATOM     25  C   UNL     1      -1.863  12.289  22.402  0.00  0.00    +0.000 C 
ATOM     26  O   UNL     1      -3.085  12.174  22.502  0.00  0.00    +0.000 OA
ENDBRANCH  17  25
ENDBRANCH  16  20
ENDBRANCH   1  16
TORSDOF 4
ENDMDL
MODEL 8
REMARK VINA RESULT:      -7.3      8.477     11.300
REMARK  Name = 
REMARK  7 active torsions:
REMARK  status: ('A' for Active; 'I' for Inactive)
REMARK    1  A    between atoms: C_1  and  N_2
REMARK    2  A    between atoms: N_2  and  C_3
REMARK    3  A    between atoms: C_4  and  C_6
REMARK    4  A    between atoms: C_9  and  C_10
REMARK    5  A    between atoms: C_10  and  N_11
REMARK    6  A    between atoms: N_14  and  C_15
REMARK    7  A    between atoms: N_14  and  C_16
REMARK                            x       y       z     vdW  Elec       q    Type
REMARK                         _______ _______ _______ _____ _____    ______ ____
ROOT
ATOM      1  N   UNL     1       0.297   9.524  21.089  0.00  0.00    +0.000 N 
ATOM      2  C   UNL     1      -0.096  10.293  22.147  0.00  0.00    +0.000 C 
ATOM      3  O   UNL     1       0.316  10.063  23.282  0.00  0.00    +0.000 OA
ATOM      4  N   UNL     1      -0.941  11.360  21.859  0.00  0.00    +0.000 N 
ATOM      5  C   UNL     1      -1.378  11.756  20.524  0.00  0.00    +0.000 C 
ATOM      6  H   UNL     1      -0.239   9.523  20.243  0.00  0.00    +0.000 HD
ENDROOT
BRANCH   4   7
ATOM      7  C   UNL     1      -1.255  12.334  22.930  0.00  0.00    +0.000 C 
ATOM      8  C   UNL     1      -0.635  13.749  22.792  0.00  0.00    +0.000 C 
ATOM      9  C   UNL     1      -1.607  14.583  23.579  0.00  0.00    +0.000 A 
ATOM     10  C   UNL     1      -1.449  15.891  24.010  0.00  0.00    +0.000 A 
ATOM     11  C   UNL     1      -2.515  16.507  24.674  0.00  0.00    +0.000 A 
ATOM     12  C   UNL     1      -3.717  15.817  24.892  0.00  0.00    +0.000 A 
ATOM     13  C   UNL     1      -3.870  14.502  24.447  0.00  0.00    +0.000 A 
ATOM     14  C   UNL     1      -2.807  13.897  23.795  0.00  0.00    +0.000 A 
ATOM     15  C   UNL     1      -2.773  12.535  23.173  0.00  0.00    +0.000 C 
ENDBRANCH   4   7
BRANCH   1  16
ATOM     16  C   UNL     1       1.215   8.412  21.239  0.00  0.00    +0.000 C 
BRANCH  16  20
ATOM     17  C   UNL     1       2.937   6.796  18.513  0.00  0.00    +0.000 A 
ATOM     18  C   UNL     1       2.563   7.930  17.814  0.00  0.00    +0.000 A 
ATOM     19  C   UNL     1       1.822   8.742  18.706  0.00  0.00    +0.000 A 
ATOM     20  C   UNL     1       1.794   8.076  19.911  0.00  0.00    +0.000 A 
ATOM     21  O   UNL     1       2.473   6.894  19.802  0.00  0.00    +0.000 OA
BRANCH  17  25
ATOM     22  C   UNL     1       3.928   3.318  17.385  0.00  0.00    +0.000 C 
ATOM     23  N   UNL     1       3.101   4.448  17.769  0.00  0.00    +0.000 N 
ATOM     24  C   UNL     1       1.658   4.307  17.672  0.00  0.00    +0.000 C 
ATOM     25  C   UNL     1       3.744   5.660  18.077  0.00  0.00    +0.000 C 
ATOM     26  O   UNL     1       4.965   5.759  17.952  0.00  0.00    +0.000 OA
ENDBRANCH  17  25
ENDBRANCH  16  20
ENDBRANCH   1  16
TORSDOF 4
ENDMDL
MODEL 9
REMARK VINA RESULT:      -7.2      1.670      2.184
REMARK  Name = 
REMARK  7 active torsions:
REMARK  status: ('A' for Active; 'I' for Inactive)
REMARK    1  A    between atoms: C_1  and  N_2
REMARK    2  A    between atoms: N_2  and  C_3
REMARK    3  A    between atoms: C_4  and  C_6
REMARK    4  A    between atoms: C_9  and  C_10
REMARK    5  A    between atoms: C_10  and  N_11
REMARK    6  A    between atoms: N_14  and  C_15
REMARK    7  A    between atoms: N_14  and  C_16
REMARK                            x       y       z     vdW  Elec       q    Type
REMARK                         _______ _______ _______ _____ _____    ______ ____
ROOT
ATOM      1  N   UNL     1       7.446   7.534  17.886  0.00  0.00    +0.000 N 
ATOM      2  C   UNL     1       6.802   6.448  18.408  0.00  0.00    +0.000 C 
ATOM      3  O   UNL     1       7.193   5.924  19.449  0.00  0.00    +0.000 OA
ATOM      4  N   UNL     1       5.673   6.009  17.725  0.00  0.00    +0.000 N 
ATOM      5  C   UNL     1       5.091   6.651  16.550  0.00  0.00    +0.000 C 
ATOM      6  H   UNL     1       7.317   7.779  16.923  0.00  0.00    +0.000 HD
ENDROOT
BRANCH   4   7
ATOM      7  C   UNL     1       4.831   4.956  18.337  0.00  0.00    +0.000 C 
ATOM      8  C   UNL     1       3.862   5.401  19.464  0.00  0.00    +0.000 C 
ATOM      9  C   UNL     1       2.796   4.345  19.381  0.00  0.00    +0.000 A 
ATOM     10  C   UNL     1       1.788   4.081  20.296  0.00  0.00    +0.000 A 
ATOM     11  C   UNL     1       0.852   3.090  19.989  0.00  0.00    +0.000 A 
ATOM     12  C   UNL     1       0.928   2.384  18.779  0.00  0.00    +0.000 A 
ATOM     13  C   UNL     1       1.942   2.661  17.859  0.00  0.00    +0.000 A 
ATOM     14  C   UNL     1       2.870   3.641  18.174  0.00  0.00    +0.000 A 
ATOM     15  C   UNL     1       3.986   4.152  17.316  0.00  0.00    +0.000 C 
ENDBRANCH   4   7
BRANCH   1  16
ATOM     16  C   UNL     1       8.605   8.127  18.523  0.00  0.00    +0.000 C 
BRANCH  16  20
ATOM     17  C   UNL     1       9.516  11.611  18.322  0.00  0.00    +0.000 A 
ATOM     18  C   UNL     1       8.299  11.728  17.675  0.00  0.00    +0.000 A 
ATOM     19  C   UNL     1       7.738  10.430  17.608  0.00  0.00    +0.000 A 
ATOM     20  C   UNL     1       8.629   9.585  18.234  0.00  0.00    +0.000 A 
ATOM     21  O   UNL     1       9.711  10.297  18.673  0.00  0.00    +0.000 OA
BRANCH  17  25
ATOM     22  C   UNL     1      11.254  14.394  20.215  0.00  0.00    +0.000 C 
ATOM     23  N   UNL     1      10.312  13.336  19.898  0.00  0.00    +0.000 N 
ATOM     24  C   UNL     1       9.344  12.952  20.913  0.00  0.00    +0.000 C 
ATOM     25  C   UNL     1      10.480  12.646  18.685  0.00  0.00    +0.000 C 
ATOM     26  O   UNL     1      11.443  12.900  17.960  0.00  0.00    +0.000 OA
ENDBRANCH  17  25
ENDBRANCH  16  20
ENDBRANCH   1  16
TORSDOF 4
ENDMDL
