MODEL 1
REMARK VINA RESULT:      -7.2      0.000      0.000
REMARK  Name = 
REMARK  2 active torsions:
REMARK  status: ('A' for Active; 'I' for Inactive)
REMARK    1  A    between atoms: C_5  and  C_6
REMARK    2  A    between atoms: N_8  and  C_9
REMARK                            x       y       z     vdW  Elec       q    Type
REMARK                         _______ _______ _______ _____ _____    ______ ____
ROOT
ATOM      1  C   UNL     1       5.968   4.680  17.379  0.00  0.00    +0.000 C 
ATOM      2  O   UNL     1       5.811   3.819  16.514  0.00  0.00    +0.000 OA
ATOM      3  N   UNL     1       5.044   5.003  18.365  0.00  0.00    +0.000 N 
ATOM      4  H   UNL     1       5.220   5.829  18.924  0.00  0.00    +0.000 HD
ENDROOT
BRANCH   3   5
ATOM      5  C   UNL     1       3.782   4.383  18.531  0.00  0.00    +0.000 A 
ATOM      6  C   UNL     1       2.827   4.310  17.509  0.00  0.00    +0.000 A 
ATOM      7  C   UNL     1       1.568   3.753  17.741  0.00  0.00    +0.000 A 
ATOM      8  C   UNL     1       1.258   3.256  18.997  0.00  0.00    +0.000 A 
ATOM      9  F   UNL     1       0.031   2.757  19.208  0.00  0.00    +0.000 F 
ATOM     10  C   UNL     1       2.209   3.282  20.013  0.00  0.00    +0.000 A 
ATOM     11 BR   UNL     1       1.788   2.601  21.729  0.00  0.00    +0.000 Br
ATOM     12  C   UNL     1       3.477   3.829  19.780  0.00  0.00    +0.000 A 
ENDBRANCH   3   5
BRANCH   1  17
ATOM     13  O   UNL     1       7.424   8.974  17.310  0.00  0.00    +0.000 OA
ATOM     14  C   UNL     1       7.583   7.795  17.563  0.00  0.00    +0.000 C 
ATOM     15  C   UNL     1       8.360   7.219  18.712  0.00  0.00    +0.000 C 
ATOM     16  C   UNL     1       7.749   5.824  18.859  0.00  0.00    +0.000 C 
ATOM     17  C   UNL     1       7.293   5.460  17.453  0.00  0.00    +0.000 C 
ATOM     18  N   UNL     1       7.109   6.743  16.816  0.00  0.00    +0.000 N 
ATOM     19  H   UNL     1       6.408   6.902  16.096  0.00  0.00    +0.000 HD
ENDBRANCH   1  17
TORSDOF 2
ENDMDL
MODEL 2
REMARK VINA RESULT:      -7.1      4.396      6.690
REMARK  Name = 
REMARK  2 active torsions:
REMARK  status: ('A' for Active; 'I' for Inactive)
REMARK    1  A    between atoms: C_5  and  C_6
REMARK    2  A    between atoms: N_8  and  C_9
REMARK                            x       y       z     vdW  Elec       q    Type
REMARK                         _______ _______ _______ _____ _____    ______ ____
ROOT
ATOM      1  C   UNL     1       4.052   3.433  18.322  0.00  0.00    +0.000 C 
ATOM      2  O   UNL     1       5.090   3.368  18.979  0.00  0.00    +0.000 OA
ATOM      3  N   UNL     1       3.969   3.831  16.994  0.00  0.00    +0.000 N 
ATOM      4  H   UNL     1       3.047   3.990  16.606  0.00  0.00    +0.000 HD
ENDROOT
BRANCH   3   5
ATOM      5  C   UNL     1       5.068   4.214  16.189  0.00  0.00    +0.000 A 
ATOM      6  C   UNL     1       6.049   5.118  16.617  0.00  0.00    +0.000 A 
ATOM      7  C   UNL     1       7.076   5.523  15.761  0.00  0.00    +0.000 A 
ATOM      8  C   UNL     1       7.134   5.017  14.472  0.00  0.00    +0.000 A 
ATOM      9  F   UNL     1       8.109   5.445  13.656  0.00  0.00    +0.000 F 
ATOM     10  C   UNL     1       6.193   4.086  14.043  0.00  0.00    +0.000 A 
ATOM     11 BR   UNL     1       6.272   3.392  12.283  0.00  0.00    +0.000 Br
ATOM     12  C   UNL     1       5.169   3.669  14.903  0.00  0.00    +0.000 A 
ENDBRANCH   3   5
BRANCH   1  17
ATOM     13  O   UNL     1       2.142   3.154  22.425  0.00  0.00    +0.000 OA
ATOM     14  C   UNL     1       2.068   3.202  21.211  0.00  0.00    +0.000 C 
ATOM     15  C   UNL     1       0.980   3.848  20.403  0.00  0.00    +0.000 C 
ATOM     16  C   UNL     1       1.673   4.109  19.065  0.00  0.00    +0.000 C 
ATOM     17  C   UNL     1       2.716   3.006  18.956  0.00  0.00    +0.000 C 
ATOM     18  N   UNL     1       2.956   2.634  20.330  0.00  0.00    +0.000 N 
ATOM     19  H   UNL     1       3.860   2.301  20.658  0.00  0.00    +0.000 HD
ENDBRANCH   1  17
TORSDOF 2
ENDMDL
MODEL 3
REMARK VINA RESULT:      -7.0      1.002      1.002
REMARK  Name = 
REMARK  2 active torsions:
REMARK  status: ('A' for Active; 'I' for Inactive)
REMARK    1  A    between atoms: C_5  and  C_6
REMARK    2  A    between atoms: N_8  and  C_9
REMARK                            x       y       z     vdW  Elec       q    Type
REMARK                         _______ _______ _______ _____ _____    ______ ____
ROOT
ATOM      1  C   UNL     1       5.675   5.303  17.479  0.00  0.00    +0.000 C 
ATOM      2  O   UNL     1       4.846   5.770  16.698  0.00  0.00    +0.000 OA
ATOM      3  N   UNL     1       5.451   4.239  18.343  0.00  0.00    +0.000 N 
ATOM      4  H   UNL     1       6.156   4.043  19.043  0.00  0.00    +0.000 HD
ENDROOT
BRANCH   3   5
ATOM      5  C   UNL     1       4.235   3.523  18.453  0.00  0.00    +0.000 A 
ATOM      6  C   UNL     1       3.614   2.901  17.361  0.00  0.00    +0.000 A 
ATOM      7  C   UNL     1       2.378   2.267  17.503  0.00  0.00    +0.000 A 
ATOM      8  C   UNL     1       1.757   2.244  18.742  0.00  0.00    +0.000 A 
ATOM      9  F   UNL     1       0.554   1.660  18.849  0.00  0.00    +0.000 F 
ATOM     10  C   UNL     1       2.378   2.820  19.847  0.00  0.00    +0.000 A 
ATOM     11 BR   UNL     1       1.532   2.787  21.540  0.00  0.00    +0.000 Br
ATOM     12  C   UNL     1       3.623   3.446  19.710  0.00  0.00    +0.000 A 
ENDBRANCH   3   5
BRANCH   1  17
ATOM     13  O   UNL     1       7.760   9.328  17.577  0.00  0.00    +0.000 OA
ATOM     14  C   UNL     1       7.752   8.124  17.743  0.00  0.00    +0.000 C 
ATOM     15  C   UNL     1       8.501   7.358  18.797  0.00  0.00    +0.000 C 
ATOM     16  C   UNL     1       7.695   6.062  18.899  0.00  0.00    +0.000 C 
ATOM     17  C   UNL     1       7.105   5.871  17.508  0.00  0.00    +0.000 C 
ATOM     18  N   UNL     1       7.080   7.210  16.968  0.00  0.00    +0.000 N 
ATOM     19  H   UNL     1       6.370   7.522  16.310  0.00  0.00    +0.000 HD
ENDBRANCH   1  17
TORSDOF 2
ENDMDL
MODEL 4
REMARK VINA RESULT:      -6.9      4.240      6.603
REMARK  Name = 
REMARK  2 active torsions:
REMARK  status: ('A' for Active; 'I' for Inactive)
REMARK    1  A    between atoms: C_5  and  C_6
REMARK    2  A    between atoms: N_8  and  C_9
REMARK                            x       y       z     vdW  Elec       q    Type
REMARK                         _______ _______ _______ _____ _____    ______ ____
ROOT
ATOM      1  C   UNL     1       2.998   4.256  17.983  0.00  0.00    +0.000 C 
ATOM      2  O   UNL     1       2.834   5.451  17.738  0.00  0.00    +0.000 OA
ATOM      3  N   UNL     1       4.041   3.476  17.500  0.00  0.00    +0.000 N 
ATOM      4  H   UNL     1       3.987   2.475  17.645  0.00  0.00    +0.000 HD
ENDROOT
BRANCH   3   5
ATOM      5  C   UNL     1       5.081   3.938  16.658  0.00  0.00    +0.000 A 
ATOM      6  C   UNL     1       6.109   4.779  17.105  0.00  0.00    +0.000 A 
ATOM      7  C   UNL     1       7.072   5.269  16.221  0.00  0.00    +0.000 A 
ATOM      8  C   UNL     1       7.018   4.913  14.883  0.00  0.00    +0.000 A 
ATOM      9  F   UNL     1       7.933   5.422  14.044  0.00  0.00    +0.000 F 
ATOM     10  C   UNL     1       6.030   4.046  14.428  0.00  0.00    +0.000 A 
ATOM     11 BR   UNL     1       5.957   3.557  12.600  0.00  0.00    +0.000 Br
ATOM     12  C   UNL     1       5.069   3.544  15.315  0.00  0.00    +0.000 A 
ENDBRANCH   3   5
BRANCH   1  17
ATOM     13  O   UNL     1       3.061   2.210  22.029  0.00  0.00    +0.000 OA
ATOM     14  C   UNL     1       2.471   2.746  21.110  0.00  0.00    +0.000 C 
ATOM     15  C   UNL     1       1.239   3.600  21.211  0.00  0.00    +0.000 C 
ATOM     16  C   UNL     1       1.305   4.427  19.925  0.00  0.00    +0.000 C 
ATOM     17  C   UNL     1       2.030   3.529  18.933  0.00  0.00    +0.000 C 
ATOM     18  N   UNL     1       2.794   2.642  19.779  0.00  0.00    +0.000 N 
ATOM     19  H   UNL     1       3.694   2.259  19.499  0.00  0.00    +0.000 HD
ENDBRANCH   1  17
TORSDOF 2
ENDMDL
MODEL 5
REMARK VINA RESULT:      -6.9      4.159      6.620
REMARK  Name = 
REMARK  2 active torsions:
REMARK  status: ('A' for Active; 'I' for Inactive)
REMARK    1  A    between atoms: C_5  and  C_6
REMARK    2  A    between atoms: N_8  and  C_9
REMARK                            x       y       z     vdW  Elec       q    Type
REMARK                         _______ _______ _______ _____ _____    ______ ____
ROOT
ATOM      1  C   UNL     1       4.268   4.116  18.836  0.00  0.00    +0.000 C 
ATOM      2  O   UNL     1       5.305   3.637  19.295  0.00  0.00    +0.000 OA
ATOM      3  N   UNL     1       4.140   4.690  17.578  0.00  0.00    +0.000 N 
ATOM      4  H   UNL     1       3.280   5.184  17.371  0.00  0.00    +0.000 HD
ENDROOT
BRANCH   3   5
ATOM      5  C   UNL     1       5.181   4.805  16.626  0.00  0.00    +0.000 A 
ATOM      6  C   UNL     1       6.337   5.566  16.847  0.00  0.00    +0.000 A 
ATOM      7  C   UNL     1       7.304   5.710  15.850  0.00  0.00    +0.000 A 
ATOM      8  C   UNL     1       7.125   5.084  14.627  0.00  0.00    +0.000 A 
ATOM      9  F   UNL     1       8.050   5.263  13.671  0.00  0.00    +0.000 F 
ATOM     10  C   UNL     1       6.005   4.289  14.404  0.00  0.00    +0.000 A 
ATOM     11 BR   UNL     1       5.762   3.432  12.733  0.00  0.00    +0.000 Br
ATOM     12  C   UNL     1       5.039   4.134  15.406  0.00  0.00    +0.000 A 
ENDBRANCH   3   5
BRANCH   1  17
ATOM     13  O   UNL     1       0.148   2.238  18.599  0.00  0.00    +0.000 OA
ATOM     14  C   UNL     1       1.051   2.759  19.224  0.00  0.00    +0.000 C 
ATOM     15  C   UNL     1       1.449   2.462  20.642  0.00  0.00    +0.000 C 
ATOM     16  C   UNL     1       2.904   2.932  20.683  0.00  0.00    +0.000 C 
ATOM     17  C   UNL     1       2.968   4.057  19.658  0.00  0.00    +0.000 C 
ATOM     18  N   UNL     1       1.872   3.761  18.766  0.00  0.00    +0.000 N 
ATOM     19  H   UNL     1       1.895   3.991  17.775  0.00  0.00    +0.000 HD
ENDBRANCH   1  17
TORSDOF 2
ENDMDL
MODEL 6
REMARK VINA RESULT:      -6.8      4.196      6.456
REMARK  Name = 
REMARK  2 active torsions:
REMARK  status: ('A' for Active; 'I' for Inactive)
REMARK    1  A    between atoms: C_5  and  C_6
REMARK    2  A    between atoms: N_8  and  C_9
REMARK                            x       y       z     vdW  Elec       q    Type
REMARK                         _______ _______ _______ _____ _____    ______ ____
ROOT
ATOM      1  C   UNL     1       2.630   3.188  17.662  0.00  0.00    +0.000 C 
ATOM      2  O   UNL     1       2.052   3.609  16.661  0.00  0.00    +0.000 OA
ATOM      3  N   UNL     1       3.994   3.294  17.903  0.00  0.00    +0.000 N 
ATOM      4  H   UNL     1       4.376   2.778  18.686  0.00  0.00    +0.000 HD
ENDROOT
BRANCH   3   5
ATOM      5  C   UNL     1       4.927   3.912  17.036  0.00  0.00    +0.000 A 
ATOM      6  C   UNL     1       5.247   3.403  15.770  0.00  0.00    +0.000 A 
ATOM      7  C   UNL     1       6.227   4.007  14.980  0.00  0.00    +0.000 A 
ATOM      8  C   UNL     1       6.889   5.131  15.448  0.00  0.00    +0.000 A 
ATOM      9  F   UNL     1       7.851   5.675  14.687  0.00  0.00    +0.000 F 
ATOM     10  C   UNL     1       6.555   5.676  16.684  0.00  0.00    +0.000 A 
ATOM     11 BR   UNL     1       7.457   7.213  17.322  0.00  0.00    +0.000 Br
ATOM     12  C   UNL     1       5.564   5.080  17.474  0.00  0.00    +0.000 A 
ENDBRANCH   3   5
BRANCH   1  17
ATOM     13  O   UNL     1       2.960   2.436  22.121  0.00  0.00    +0.000 OA
ATOM     14  C   UNL     1       2.311   2.521  21.096  0.00  0.00    +0.000 C 
ATOM     15  C   UNL     1       0.899   3.016  20.966  0.00  0.00    +0.000 C 
ATOM     16  C   UNL     1       0.831   3.441  19.498  0.00  0.00    +0.000 C 
ATOM     17  C   UNL     1       1.822   2.525  18.792  0.00  0.00    +0.000 C 
ATOM     18  N   UNL     1       2.733   2.141  19.845  0.00  0.00    +0.000 N 
ATOM     19  H   UNL     1       3.716   1.945  19.674  0.00  0.00    +0.000 HD
ENDBRANCH   1  17
TORSDOF 2
ENDMDL
MODEL 7
REMARK VINA RESULT:      -6.8      2.878      3.484
REMARK  Name = 
REMARK  2 active torsions:
REMARK  status: ('A' for Active; 'I' for Inactive)
REMARK    1  A    between atoms: C_5  and  C_6
REMARK    2  A    between atoms: N_8  and  C_9
REMARK                            x       y       z     vdW  Elec       q    Type
REMARK                         _______ _______ _______ _____ _____    ______ ____
ROOT
ATOM      1  C   UNL     1       5.469   4.162  15.819  0.00  0.00    +0.000 C 
ATOM      2  O   UNL     1       6.422   3.967  16.571  0.00  0.00    +0.000 OA
ATOM      3  N   UNL     1       4.134   3.977  16.154  0.00  0.00    +0.000 N 
ATOM      4  H   UNL     1       3.449   4.023  15.409  0.00  0.00    +0.000 HD
ENDROOT
BRANCH   3   5
ATOM      5  C   UNL     1       3.665   3.542  17.417  0.00  0.00    +0.000 A 
ATOM      6  C   UNL     1       3.698   2.201  17.824  0.00  0.00    +0.000 A 
ATOM      7  C   UNL     1       3.158   1.808  19.050  0.00  0.00    +0.000 A 
ATOM      8  C   UNL     1       2.589   2.757  19.884  0.00  0.00    +0.000 A 
ATOM      9  F   UNL     1       2.045   2.353  21.042  0.00  0.00    +0.000 F 
ATOM     10  C   UNL     1       2.585   4.099  19.517  0.00  0.00    +0.000 A 
ATOM     11 BR   UNL     1       1.810   5.397  20.656  0.00  0.00    +0.000 Br
ATOM     12  C   UNL     1       3.136   4.498  18.292  0.00  0.00    +0.000 A 
ENDBRANCH   3   5
BRANCH   1  17
ATOM     13  O   UNL     1       8.875   5.793  13.309  0.00  0.00    +0.000 OA
ATOM     14  C   UNL     1       7.768   5.301  13.419  0.00  0.00    +0.000 C 
ATOM     15  C   UNL     1       7.116   4.334  12.472  0.00  0.00    +0.000 C 
ATOM     16  C   UNL     1       6.077   3.649  13.362  0.00  0.00    +0.000 C 
ATOM     17  C   UNL     1       5.711   4.703  14.398  0.00  0.00    +0.000 C 
ATOM     18  N   UNL     1       6.869   5.565  14.424  0.00  0.00    +0.000 N 
ATOM     19  H   UNL     1       7.169   6.053  15.264  0.00  0.00    +0.000 HD
ENDBRANCH   1  17
TORSDOF 2
ENDMDL
MODEL 8
REMARK VINA RESULT:      -6.8      2.591      3.521
REMARK  Name = 
REMARK  2 active torsions:
REMARK  status: ('A' for Active; 'I' for Inactive)
REMARK    1  A    between atoms: C_5  and  C_6
REMARK    2  A    between atoms: N_8  and  C_9
REMARK                            x       y       z     vdW  Elec       q    Type
REMARK                         _______ _______ _______ _____ _____    ______ ____
ROOT
ATOM      1  C   UNL     1       6.057   4.425  17.095  0.00  0.00    +0.000 C 
ATOM      2  O   UNL     1       6.594   4.423  18.201  0.00  0.00    +0.000 OA
ATOM      3  N   UNL     1       4.724   4.731  16.852  0.00  0.00    +0.000 N 
ATOM      4  H   UNL     1       4.360   4.551  15.924  0.00  0.00    +0.000 HD
ENDROOT
BRANCH   3   5
ATOM      5  C   UNL     1       3.780   5.096  17.842  0.00  0.00    +0.000 A 
ATOM      6  C   UNL     1       3.570   6.421  18.245  0.00  0.00    +0.000 A 
ATOM      7  C   UNL     1       2.681   6.726  19.277  0.00  0.00    +0.000 A 
ATOM      8  C   UNL     1       1.987   5.706  19.908  0.00  0.00    +0.000 A 
ATOM      9  F   UNL     1       1.163   6.018  20.920  0.00  0.00    +0.000 F 
ATOM     10  C   UNL     1       2.151   4.388  19.494  0.00  0.00    +0.000 A 
ATOM     11 BR   UNL     1       1.202   2.993  20.354  0.00  0.00    +0.000 Br
ATOM     12  C   UNL     1       3.034   4.080  18.451  0.00  0.00    +0.000 A 
ENDBRANCH   3   5
BRANCH   1  17
ATOM     13  O   UNL     1       5.418   3.494  12.703  0.00  0.00    +0.000 OA
ATOM     14  C   UNL     1       6.118   3.861  13.628  0.00  0.00    +0.000 C 
ATOM     15  C   UNL     1       7.211   4.889  13.574  0.00  0.00    +0.000 C 
ATOM     16  C   UNL     1       7.312   5.341  15.032  0.00  0.00    +0.000 C 
ATOM     17  C   UNL     1       6.891   4.120  15.837  0.00  0.00    +0.000 C 
ATOM     18  N   UNL     1       6.073   3.373  14.911  0.00  0.00    +0.000 N 
ATOM     19  H   UNL     1       5.289   2.799  15.213  0.00  0.00    +0.000 HD
ENDBRANCH   1  17
TORSDOF 2
ENDMDL
MODEL 9
REMARK VINA RESULT:      -6.7      4.101      5.366
REMARK  Name = 
REMARK  2 active torsions:
REMARK  status: ('A' for Active; 'I' for Inactive)
REMARK    1  A    between atoms: C_5  and  C_6
REMARK    2  A    between atoms: N_8  and  C_9
REMARK                            x       y       z     vdW  Elec       q    Type
REMARK                         _______ _______ _______ _____ _____    ______ ____
ROOT
ATOM      1  C   UNL     1       4.126   5.447  18.093  0.00  0.00    +0.000 C 
ATOM      2  O   UNL     1       4.947   6.298  17.754  0.00  0.00    +0.000 OA
ATOM      3  N   UNL     1       2.861   5.713  18.600  0.00  0.00    +0.000 N 
ATOM      4  H   UNL     1       2.335   4.938  18.986  0.00  0.00    +0.000 HD
ENDROOT
BRANCH   3   5
ATOM      5  C   UNL     1       2.318   7.006  18.796  0.00  0.00    +0.000 A 
ATOM      6  C   UNL     1       2.186   7.943  17.764  0.00  0.00    +0.000 A 
ATOM      7  C   UNL     1       1.713   9.232  18.019  0.00  0.00    +0.000 A 
ATOM      8  C   UNL     1       1.359   9.589  19.310  0.00  0.00    +0.000 A 
ATOM      9  F   UNL     1       0.939  10.842  19.539  0.00  0.00    +0.000 F 
ATOM     10  C   UNL     1       1.442   8.658  20.341  0.00  0.00    +0.000 A 
ATOM     11 BR   UNL     1       0.956   9.144  22.105  0.00  0.00    +0.000 Br
ATOM     12  C   UNL     1       1.906   7.362  20.086  0.00  0.00    +0.000 A 
ENDBRANCH   3   5
BRANCH   1  17
ATOM     13  O   UNL     1       4.905   1.790  20.657  0.00  0.00    +0.000 OA
ATOM     14  C   UNL     1       4.608   2.310  19.599  0.00  0.00    +0.000 C 
ATOM     15  C   UNL     1       3.651   1.775  18.573  0.00  0.00    +0.000 C 
ATOM     16  C   UNL     1       3.243   3.037  17.811  0.00  0.00    +0.000 C 
ATOM     17  C   UNL     1       4.454   3.953  17.919  0.00  0.00    +0.000 C 
ATOM     18  N   UNL     1       5.123   3.486  19.110  0.00  0.00    +0.000 N 
ATOM     19  H   UNL     1       5.652   4.105  19.720  0.00  0.00    +0.000 HD
ENDBRANCH   1  17
TORSDOF 2
ENDMDL
