MODEL 1
REMARK VINA RESULT:      -6.4      0.000      0.000
REMARK  Name = 
REMARK  8 active torsions:
REMARK  status: ('A' for Active; 'I' for Inactive)
REMARK    1  A    between atoms: C_1  and  C_2
REMARK    2  A    between atoms: C_2  and  C_3
REMARK    3  A    between atoms: C_3  and  O_4
REMARK    4  A    between atoms: O_4  and  C_5
REMARK    5  A    between atoms: N_9  and  C_10
REMARK    6  A    between atoms: C_10  and  C_11
REMARK    7  A    between atoms: C_14  and  O_15
REMARK    8  A    between atoms: O_15  and  C_16
REMARK                            x       y       z     vdW  Elec       q    Type
REMARK                         _______ _______ _______ _____ _____    ______ ____
ROOT
ATOM      1  C   UNL     1       2.539   5.087  19.892  0.00  0.00    +0.000 C 
ATOM      2  C   UNL     1       2.284   6.592  19.764  0.00  0.00    +0.000 C 
ATOM      3  C   UNL     1       2.700   7.109  18.399  0.00  0.00    +0.000 C 
ATOM      4  C   UNL     1       4.145   6.745  18.085  0.00  0.00    +0.000 C 
ATOM      5  N   UNL     1       4.351   5.288  18.142  0.00  0.00    +0.000 NA
ATOM      6  C   UNL     1       3.997   4.770  19.484  0.00  0.00    +0.000 C 
ENDROOT
BRANCH   1   7
ATOM      7  O   UNL     1       2.322   4.644  21.245  0.00  0.00    +0.000 OA
BRANCH   7   8
ATOM      8  C   UNL     1       1.691   3.363  21.312  0.00  0.00    +0.000 C 
BRANCH   8  10
ATOM      9  C   UNL     1       1.450   2.014  19.226  0.00  0.00    +0.000 C 
ATOM     10  C   UNL     1       0.847   3.124  20.068  0.00  0.00    +0.000 C 
ENDBRANCH   8  10
ENDBRANCH   7   8
ENDBRANCH   1   7
BRANCH   5  11
ATOM     11  C   UNL     1       5.751   4.935  17.829  0.00  0.00    +0.000 C 
BRANCH  11  12
ATOM     12  C   UNL     1       6.043   4.781  16.353  0.00  0.00    +0.000 A 
ATOM     13  C   UNL     1       5.148   4.161  15.479  0.00  0.00    +0.000 A 
ATOM     14  C   UNL     1       5.486   4.011  14.134  0.00  0.00    +0.000 A 
ATOM     15  C   UNL     1       6.708   4.498  13.705  0.00  0.00    +0.000 A 
ATOM     16  N   UNL     1       7.593   5.119  14.518  0.00  0.00    +0.000 NA
ATOM     17  C   UNL     1       7.239   5.246  15.817  0.00  0.00    +0.000 A 
BRANCH  15  18
ATOM     18  O   UNL     1       7.024   4.305  12.375  0.00  0.00    +0.000 OA
ATOM     19  C   UNL     1       6.642   3.020  11.894  0.00  0.00    +0.000 C 
ENDBRANCH  15  18
ENDBRANCH  11  12
ENDBRANCH   5  11
TORSDOF 6
ENDMDL
MODEL 2
REMARK VINA RESULT:      -6.2      3.271      7.139
REMARK  Name = 
REMARK  8 active torsions:
REMARK  status: ('A' for Active; 'I' for Inactive)
REMARK    1  A    between atoms: C_1  and  C_2
REMARK    2  A    between atoms: C_2  and  C_3
REMARK    3  A    between atoms: C_3  and  O_4
REMARK    4  A    between atoms: O_4  and  C_5
REMARK    5  A    between atoms: N_9  and  C_10
REMARK    6  A    between atoms: C_10  and  C_11
REMARK    7  A    between atoms: C_14  and  O_15
REMARK    8  A    between atoms: O_15  and  C_16
REMARK                            x       y       z     vdW  Elec       q    Type
REMARK                         _______ _______ _______ _____ _____    ______ ____
ROOT
ATOM      1  C   UNL     1       7.531   7.147  17.268  0.00  0.00    +0.000 C 
ATOM      2  C   UNL     1       7.896   6.537  18.625  0.00  0.00    +0.000 C 
ATOM      3  C   UNL     1       7.687   5.033  18.628  0.00  0.00    +0.000 C 
ATOM      4  C   UNL     1       6.272   4.668  18.199  0.00  0.00    +0.000 C 
ATOM      5  N   UNL     1       5.969   5.202  16.860  0.00  0.00    +0.000 NA
ATOM      6  C   UNL     1       6.118   6.676  16.849  0.00  0.00    +0.000 C 
ENDROOT
BRANCH   1   7
ATOM      7  O   UNL     1       7.548   8.585  17.332  0.00  0.00    +0.000 OA
BRANCH   7   8
ATOM      8  C   UNL     1       8.408   9.083  18.359  0.00  0.00    +0.000 C 
BRANCH   8  10
ATOM      9  C   UNL     1       9.997  10.940  18.870  0.00  0.00    +0.000 C 
ATOM     10  C   UNL     1       8.750  10.544  18.100  0.00  0.00    +0.000 C 
ENDBRANCH   8  10
ENDBRANCH   7   8
ENDBRANCH   1   7
BRANCH   5  11
ATOM     11  C   UNL     1       4.600   4.841  16.440  0.00  0.00    +0.000 C 
BRANCH  11  12
ATOM     12  C   UNL     1       3.626   4.641  17.581  0.00  0.00    +0.000 A 
ATOM     13  C   UNL     1       3.034   5.715  18.248  0.00  0.00    +0.000 A 
ATOM     14  C   UNL     1       2.173   5.473  19.318  0.00  0.00    +0.000 A 
ATOM     15  C   UNL     1       1.925   4.161  19.679  0.00  0.00    +0.000 A 
ATOM     16  N   UNL     1       2.467   3.095  19.047  0.00  0.00    +0.000 NA
ATOM     17  C   UNL     1       3.300   3.361  18.016  0.00  0.00    +0.000 A 
BRANCH  15  18
ATOM     18  O   UNL     1       1.093   3.959  20.763  0.00  0.00    +0.000 OA
ATOM     19  C   UNL     1       1.298   2.699  21.394  0.00  0.00    +0.000 C 
ENDBRANCH  15  18
ENDBRANCH  11  12
ENDBRANCH   5  11
TORSDOF 6
ENDMDL
MODEL 3
REMARK VINA RESULT:      -6.2      1.757      3.368
REMARK  Name = 
REMARK  8 active torsions:
REMARK  status: ('A' for Active; 'I' for Inactive)
REMARK    1  A    between atoms: C_1  and  C_2
REMARK    2  A    between atoms: C_2  and  C_3
REMARK    3  A    between atoms: C_3  and  O_4
REMARK    4  A    between atoms: O_4  and  C_5
REMARK    5  A    between atoms: N_9  and  C_10
REMARK    6  A    between atoms: C_10  and  C_11
REMARK    7  A    between atoms: C_14  and  O_15
REMARK    8  A    between atoms: O_15  and  C_16
REMARK                            x       y       z     vdW  Elec       q    Type
REMARK                         _______ _______ _______ _____ _____    ______ ____
ROOT
ATOM      1  C   UNL     1       2.864   6.036  19.846  0.00  0.00    +0.000 C 
ATOM      2  C   UNL     1       1.874   5.244  20.705  0.00  0.00    +0.000 C 
ATOM      3  C   UNL     1       2.371   3.833  20.961  0.00  0.00    +0.000 C 
ATOM      4  C   UNL     1       2.699   3.115  19.658  0.00  0.00    +0.000 C 
ATOM      5  N   UNL     1       3.708   3.857  18.882  0.00  0.00    +0.000 NA
ATOM      6  C   UNL     1       3.220   5.223  18.578  0.00  0.00    +0.000 C 
ENDROOT
BRANCH   1   7
ATOM      7  O   UNL     1       2.302   7.301  19.450  0.00  0.00    +0.000 OA
BRANCH   7   8
ATOM      8  C   UNL     1       2.380   7.524  18.040  0.00  0.00    +0.000 C 
BRANCH   8  10
ATOM      9  C   UNL     1       1.014   9.488  18.754  0.00  0.00    +0.000 C 
ATOM     10  C   UNL     1       1.976   8.955  17.708  0.00  0.00    +0.000 C 
ENDBRANCH   8  10
ENDBRANCH   7   8
ENDBRANCH   1   7
BRANCH   5  11
ATOM     11  C   UNL     1       4.032   3.157  17.623  0.00  0.00    +0.000 C 
BRANCH  11  12
ATOM     12  C   UNL     1       5.058   3.859  16.761  0.00  0.00    +0.000 A 
ATOM     13  C   UNL     1       4.742   4.379  15.504  0.00  0.00    +0.000 A 
ATOM     14  C   UNL     1       5.738   4.982  14.736  0.00  0.00    +0.000 A 
ATOM     15  C   UNL     1       7.017   5.055  15.257  0.00  0.00    +0.000 A 
ATOM     16  N   UNL     1       7.357   4.578  16.476  0.00  0.00    +0.000 NA
ATOM     17  C   UNL     1       6.372   3.995  17.196  0.00  0.00    +0.000 A 
BRANCH  15  18
ATOM     18  O   UNL     1       7.984   5.630  14.457  0.00  0.00    +0.000 OA
ATOM     19  C   UNL     1       7.816   5.326  13.075  0.00  0.00    +0.000 C 
ENDBRANCH  15  18
ENDBRANCH  11  12
ENDBRANCH   5  11
TORSDOF 6
ENDMDL
MODEL 4
REMARK VINA RESULT:      -6.1      3.483      7.466
REMARK  Name = 
REMARK  8 active torsions:
REMARK  status: ('A' for Active; 'I' for Inactive)
REMARK    1  A    between atoms: C_1  and  C_2
REMARK    2  A    between atoms: C_2  and  C_3
REMARK    3  A    between atoms: C_3  and  O_4
REMARK    4  A    between atoms: O_4  and  C_5
REMARK    5  A    between atoms: N_9  and  C_10
REMARK    6  A    between atoms: C_10  and  C_11
REMARK    7  A    between atoms: C_14  and  O_15
REMARK    8  A    between atoms: O_15  and  C_16
REMARK                            x       y       z     vdW  Elec       q    Type
REMARK                         _______ _______ _______ _____ _____    ______ ____
ROOT
ATOM      1  C   UNL     1       5.009   4.720  18.292  0.00  0.00    +0.000 C 
ATOM      2  C   UNL     1       4.240   3.546  17.679  0.00  0.00    +0.000 C 
ATOM      3  C   UNL     1       2.798   3.920  17.392  0.00  0.00    +0.000 C 
ATOM      4  C   UNL     1       2.109   4.469  18.634  0.00  0.00    +0.000 C 
ATOM      5  N   UNL     1       2.824   5.642  19.165  0.00  0.00    +0.000 NA
ATOM      6  C   UNL     1       4.222   5.285  19.498  0.00  0.00    +0.000 C 
ENDROOT
BRANCH   1   7
ATOM      7  O   UNL     1       6.314   4.303  18.736  0.00  0.00    +0.000 OA
BRANCH   7   8
ATOM      8  C   UNL     1       7.372   4.917  17.996  0.00  0.00    +0.000 C 
BRANCH   8  10
ATOM      9  C   UNL     1       7.589   7.377  17.629  0.00  0.00    +0.000 C 
ATOM     10  C   UNL     1       7.756   6.248  18.629  0.00  0.00    +0.000 C 
ENDBRANCH   8  10
ENDBRANCH   7   8
ENDBRANCH   1   7
BRANCH   5  11
ATOM     11  C   UNL     1       2.151   6.179  20.364  0.00  0.00    +0.000 C 
BRANCH  11  12
ATOM     12  C   UNL     1       1.718   7.624  20.247  0.00  0.00    +0.000 A 
ATOM     13  C   UNL     1       1.141   8.316  21.313  0.00  0.00    +0.000 A 
ATOM     14  C   UNL     1       0.726   9.636  21.137  0.00  0.00    +0.000 A 
ATOM     15  C   UNL     1       0.911  10.223  19.898  0.00  0.00    +0.000 A 
ATOM     16  N   UNL     1       1.480   9.591  18.847  0.00  0.00    +0.000 NA
ATOM     17  C   UNL     1       1.869   8.311  19.048  0.00  0.00    +0.000 A 
BRANCH  15  18
ATOM     18  O   UNL     1       0.459  11.519  19.750  0.00  0.00    +0.000 OA
ATOM     19  C   UNL     1      -0.918  11.669  20.082  0.00  0.00    +0.000 C 
ENDBRANCH  15  18
ENDBRANCH  11  12
ENDBRANCH   5  11
TORSDOF 6
ENDMDL
MODEL 5
REMARK VINA RESULT:      -6.1      3.340      7.108
REMARK  Name = 
REMARK  8 active torsions:
REMARK  status: ('A' for Active; 'I' for Inactive)
REMARK    1  A    between atoms: C_1  and  C_2
REMARK    2  A    between atoms: C_2  and  C_3
REMARK    3  A    between atoms: C_3  and  O_4
REMARK    4  A    between atoms: O_4  and  C_5
REMARK    5  A    between atoms: N_9  and  C_10
REMARK    6  A    between atoms: C_10  and  C_11
REMARK    7  A    between atoms: C_14  and  O_15
REMARK    8  A    between atoms: O_15  and  C_16
REMARK                            x       y       z     vdW  Elec       q    Type
REMARK                         _______ _______ _______ _____ _____    ______ ____
ROOT
ATOM      1  C   UNL     1       2.674   3.998  18.125  0.00  0.00    +0.000 C 
ATOM      2  C   UNL     1       3.982   3.759  17.364  0.00  0.00    +0.000 C 
ATOM      3  C   UNL     1       5.000   4.845  17.661  0.00  0.00    +0.000 C 
ATOM      4  C   UNL     1       4.427   6.231  17.392  0.00  0.00    +0.000 C 
ATOM      5  N   UNL     1       3.211   6.467  18.189  0.00  0.00    +0.000 NA
ATOM      6  C   UNL     1       2.185   5.445  17.877  0.00  0.00    +0.000 C 
ENDROOT
BRANCH   1   7
ATOM      7  O   UNL     1       1.655   3.077  17.694  0.00  0.00    +0.000 OA
BRANCH   7   8
ATOM      8  C   UNL     1       0.919   2.517  18.784  0.00  0.00    +0.000 C 
BRANCH   8  10
ATOM      9  C   UNL     1       1.300   3.008  21.202  0.00  0.00    +0.000 C 
ATOM     10  C   UNL     1       1.836   2.288  19.978  0.00  0.00    +0.000 C 
ENDBRANCH   8  10
ENDBRANCH   7   8
ENDBRANCH   1   7
BRANCH   5  11
ATOM     11  C   UNL     1       2.661   7.814  17.934  0.00  0.00    +0.000 C 
BRANCH  11  12
ATOM     12  C   UNL     1       1.852   8.387  19.076  0.00  0.00    +0.000 A 
ATOM     13  C   UNL     1       1.828   7.795  20.341  0.00  0.00    +0.000 A 
ATOM     14  C   UNL     1       1.034   8.345  21.346  0.00  0.00    +0.000 A 
ATOM     15  C   UNL     1       0.295   9.477  21.055  0.00  0.00    +0.000 A 
ATOM     16  N   UNL     1       0.304  10.087  19.849  0.00  0.00    +0.000 NA
ATOM     17  C   UNL     1       1.081   9.530  18.893  0.00  0.00    +0.000 A 
BRANCH  15  18
ATOM     18  O   UNL     1      -0.505   9.975  22.064  0.00  0.00    +0.000 OA
ATOM     19  C   UNL     1      -0.118   9.519  23.357  0.00  0.00    +0.000 C 
ENDBRANCH  15  18
ENDBRANCH  11  12
ENDBRANCH   5  11
TORSDOF 6
ENDMDL
MODEL 6
REMARK VINA RESULT:      -6.1      3.469      7.241
REMARK  Name = 
REMARK  8 active torsions:
REMARK  status: ('A' for Active; 'I' for Inactive)
REMARK    1  A    between atoms: C_1  and  C_2
REMARK    2  A    between atoms: C_2  and  C_3
REMARK    3  A    between atoms: C_3  and  O_4
REMARK    4  A    between atoms: O_4  and  C_5
REMARK    5  A    between atoms: N_9  and  C_10
REMARK    6  A    between atoms: C_10  and  C_11
REMARK    7  A    between atoms: C_14  and  O_15
REMARK    8  A    between atoms: O_15  and  C_16
REMARK                            x       y       z     vdW  Elec       q    Type
REMARK                         _______ _______ _______ _____ _____    ______ ____
ROOT
ATOM      1  C   UNL     1       7.593   7.553  17.447  0.00  0.00    +0.000 C 
ATOM      2  C   UNL     1       8.076   6.770  18.672  0.00  0.00    +0.000 C 
ATOM      3  C   UNL     1       7.826   5.282  18.510  0.00  0.00    +0.000 C 
ATOM      4  C   UNL     1       6.364   4.996  18.190  0.00  0.00    +0.000 C 
ATOM      5  N   UNL     1       5.941   5.701  16.967  0.00  0.00    +0.000 NA
ATOM      6  C   UNL     1       6.131   7.162  17.124  0.00  0.00    +0.000 C 
ENDROOT
BRANCH   1   7
ATOM      7  O   UNL     1       7.658   8.971  17.687  0.00  0.00    +0.000 OA
BRANCH   7   8
ATOM      8  C   UNL     1       8.710   9.332  18.584  0.00  0.00    +0.000 C 
BRANCH   8  10
ATOM      9  C   UNL     1       9.932  11.322  19.467  0.00  0.00    +0.000 C 
ATOM     10  C   UNL     1       9.222  10.730  18.263  0.00  0.00    +0.000 C 
ENDBRANCH   8  10
ENDBRANCH   7   8
ENDBRANCH   1   7
BRANCH   5  11
ATOM     11  C   UNL     1       4.526   5.417  16.652  0.00  0.00    +0.000 C 
BRANCH  11  12
ATOM     12  C   UNL     1       3.690   5.001  17.842  0.00  0.00    +0.000 A 
ATOM     13  C   UNL     1       3.440   3.661  18.143  0.00  0.00    +0.000 A 
ATOM     14  C   UNL     1       2.631   3.336  19.231  0.00  0.00    +0.000 A 
ATOM     15  C   UNL     1       2.104   4.366  19.990  0.00  0.00    +0.000 A 
ATOM     16  N   UNL     1       2.337   5.674  19.740  0.00  0.00    +0.000 NA
ATOM     17  C   UNL     1       3.123   5.958  18.677  0.00  0.00    +0.000 A 
BRANCH  15  18
ATOM     18  O   UNL     1       1.282   4.008  21.039  0.00  0.00    +0.000 OA
ATOM     19  C   UNL     1       1.506   2.677  21.493  0.00  0.00    +0.000 C 
ENDBRANCH  15  18
ENDBRANCH  11  12
ENDBRANCH   5  11
TORSDOF 6
ENDMDL
MODEL 7
REMARK VINA RESULT:      -6.1      3.036      7.244
REMARK  Name = 
REMARK  8 active torsions:
REMARK  status: ('A' for Active; 'I' for Inactive)
REMARK    1  A    between atoms: C_1  and  C_2
REMARK    2  A    between atoms: C_2  and  C_3
REMARK    3  A    between atoms: C_3  and  O_4
REMARK    4  A    between atoms: O_4  and  C_5
REMARK    5  A    between atoms: N_9  and  C_10
REMARK    6  A    between atoms: C_10  and  C_11
REMARK    7  A    between atoms: C_14  and  O_15
REMARK    8  A    between atoms: O_15  and  C_16
REMARK                            x       y       z     vdW  Elec       q    Type
REMARK                         _______ _______ _______ _____ _____    ______ ____
ROOT
ATOM      1  C   UNL     1       6.745   5.552  17.459  0.00  0.00    +0.000 C 
ATOM      2  C   UNL     1       6.862   4.343  16.525  0.00  0.00    +0.000 C 
ATOM      3  C   UNL     1       5.606   4.166  15.692  0.00  0.00    +0.000 C 
ATOM      4  C   UNL     1       4.363   4.092  16.569  0.00  0.00    +0.000 C 
ATOM      5  N   UNL     1       4.230   5.298  17.405  0.00  0.00    +0.000 NA
ATOM      6  C   UNL     1       5.426   5.462  18.264  0.00  0.00    +0.000 C 
ENDROOT
BRANCH   1   7
ATOM      7  O   UNL     1       7.853   5.601  18.376  0.00  0.00    +0.000 OA
BRANCH   7   8
ATOM      8  C   UNL     1       8.230   6.936  18.718  0.00  0.00    +0.000 C 
BRANCH   8  10
ATOM      9  C   UNL     1       8.234   9.316  17.963  0.00  0.00    +0.000 C 
ATOM     10  C   UNL     1       7.767   7.908  17.640  0.00  0.00    +0.000 C 
ENDBRANCH   8  10
ENDBRANCH   7   8
ENDBRANCH   1   7
BRANCH   5  11
ATOM     11  C   UNL     1       3.020   5.231  18.249  0.00  0.00    +0.000 C 
BRANCH  11  12
ATOM     12  C   UNL     1       2.466   6.577  18.658  0.00  0.00    +0.000 A 
ATOM     13  C   UNL     1       2.315   7.626  17.749  0.00  0.00    +0.000 A 
ATOM     14  C   UNL     1       1.834   8.859  18.189  0.00  0.00    +0.000 A 
ATOM     15  C   UNL     1       1.509   8.998  19.527  0.00  0.00    +0.000 A 
ATOM     16  N   UNL     1       1.625   8.001  20.433  0.00  0.00    +0.000 NA
ATOM     17  C   UNL     1       2.098   6.819  19.977  0.00  0.00    +0.000 A 
BRANCH  15  18
ATOM     18  O   UNL     1       1.066  10.240  19.934  0.00  0.00    +0.000 OA
ATOM     19  C   UNL     1       0.574  10.245  21.271  0.00  0.00    +0.000 C 
ENDBRANCH  15  18
ENDBRANCH  11  12
ENDBRANCH   5  11
TORSDOF 6
ENDMDL
MODEL 8
REMARK VINA RESULT:      -6.0      2.888      4.447
REMARK  Name = 
REMARK  8 active torsions:
REMARK  status: ('A' for Active; 'I' for Inactive)
REMARK    1  A    between atoms: C_1  and  C_2
REMARK    2  A    between atoms: C_2  and  C_3
REMARK    3  A    between atoms: C_3  and  O_4
REMARK    4  A    between atoms: O_4  and  C_5
REMARK    5  A    between atoms: N_9  and  C_10
REMARK    6  A    between atoms: C_10  and  C_11
REMARK    7  A    between atoms: C_14  and  O_15
REMARK    8  A    between atoms: O_15  and  C_16
REMARK                            x       y       z     vdW  Elec       q    Type
REMARK                         _______ _______ _______ _____ _____    ______ ____
ROOT
ATOM      1  C   UNL     1       1.956   5.377  20.595  0.00  0.00    +0.000 C 
ATOM      2  C   UNL     1       1.198   4.051  20.709  0.00  0.00    +0.000 C 
ATOM      3  C   UNL     1       2.102   2.870  20.408  0.00  0.00    +0.000 C 
ATOM      4  C   UNL     1       2.785   3.023  19.056  0.00  0.00    +0.000 C 
ATOM      5  N   UNL     1       3.569   4.269  18.995  0.00  0.00    +0.000 NA
ATOM      6  C   UNL     1       2.693   5.440  19.237  0.00  0.00    +0.000 C 
ENDROOT
BRANCH   1   7
ATOM      7  O   UNL     1       1.053   6.494  20.693  0.00  0.00    +0.000 OA
BRANCH   7   8
ATOM      8  C   UNL     1       1.717   7.753  20.567  0.00  0.00    +0.000 C 
BRANCH   8  10
ATOM      9  C   UNL     1      -0.267   8.657  21.783  0.00  0.00    +0.000 C 
ATOM     10  C   UNL     1       1.244   8.711  21.652  0.00  0.00    +0.000 C 
ENDBRANCH   8  10
ENDBRANCH   7   8
ENDBRANCH   1   7
BRANCH   5  11
ATOM     11  C   UNL     1       4.238   4.414  17.686  0.00  0.00    +0.000 C 
BRANCH  11  12
ATOM     12  C   UNL     1       5.412   5.368  17.684  0.00  0.00    +0.000 A 
ATOM     13  C   UNL     1       6.471   5.245  18.586  0.00  0.00    +0.000 A 
ATOM     14  C   UNL     1       7.509   6.176  18.564  0.00  0.00    +0.000 A 
ATOM     15  C   UNL     1       7.457   7.197  17.632  0.00  0.00    +0.000 A 
ATOM     16  N   UNL     1       6.457   7.339  16.733  0.00  0.00    +0.000 NA
ATOM     17  C   UNL     1       5.464   6.423  16.780  0.00  0.00    +0.000 A 
BRANCH  15  18
ATOM     18  O   UNL     1       8.484   8.118  17.660  0.00  0.00    +0.000 OA
ATOM     19  C   UNL     1       8.034   9.446  17.915  0.00  0.00    +0.000 C 
ENDBRANCH  15  18
ENDBRANCH  11  12
ENDBRANCH   5  11
TORSDOF 6
ENDMDL
MODEL 9
REMARK VINA RESULT:      -6.0      3.397      6.797
REMARK  Name = 
REMARK  8 active torsions:
REMARK  status: ('A' for Active; 'I' for Inactive)
REMARK    1  A    between atoms: C_1  and  C_2
REMARK    2  A    between atoms: C_2  and  C_3
REMARK    3  A    between atoms: C_3  and  O_4
REMARK    4  A    between atoms: O_4  and  C_5
REMARK    5  A    between atoms: N_9  and  C_10
REMARK    6  A    between atoms: C_10  and  C_11
REMARK    7  A    between atoms: C_14  and  O_15
REMARK    8  A    between atoms: O_15  and  C_16
REMARK                            x       y       z     vdW  Elec       q    Type
REMARK                         _______ _______ _______ _____ _____    ______ ____
ROOT
ATOM      1  C   UNL     1       2.498   3.877  18.342  0.00  0.00    +0.000 C 
ATOM      2  C   UNL     1       3.747   3.336  17.639  0.00  0.00    +0.000 C 
ATOM      3  C   UNL     1       4.925   4.280  17.801  0.00  0.00    +0.000 C 
ATOM      4  C   UNL     1       4.575   5.689  17.341  0.00  0.00    +0.000 C 
ATOM      5  N   UNL     1       3.417   6.218  18.082  0.00  0.00    +0.000 NA
ATOM      6  C   UNL     1       2.241   5.336  17.896  0.00  0.00    +0.000 C 
ENDROOT
BRANCH   1   7
ATOM      7  O   UNL     1       1.344   3.078  18.024  0.00  0.00    +0.000 OA
BRANCH   7   8
ATOM      8  C   UNL     1       0.693   2.560  19.186  0.00  0.00    +0.000 C 
BRANCH   8  10
ATOM      9  C   UNL     1       1.492   2.597  21.551  0.00  0.00    +0.000 C 
ATOM     10  C   UNL     1       0.989   3.440  20.394  0.00  0.00    +0.000 C 
ENDBRANCH   8  10
ENDBRANCH   7   8
ENDBRANCH   1   7
BRANCH   5  11
ATOM     11  C   UNL     1       3.083   7.587  17.642  0.00  0.00    +0.000 C 
BRANCH  11  12
ATOM     12  C   UNL     1       2.101   8.312  18.536  0.00  0.00    +0.000 A 
ATOM     13  C   UNL     1       1.271   9.327  18.059  0.00  0.00    +0.000 A 
ATOM     14  C   UNL     1       0.411   9.987  18.937  0.00  0.00    +0.000 A 
ATOM     15  C   UNL     1       0.405   9.601  20.265  0.00  0.00    +0.000 A 
ATOM     16  N   UNL     1       1.182   8.612  20.761  0.00  0.00    +0.000 NA
ATOM     17  C   UNL     1       2.007   7.992  19.887  0.00  0.00    +0.000 A 
BRANCH  15  18
ATOM     18  O   UNL     1      -0.435  10.297  21.112  0.00  0.00    +0.000 OA
ATOM     19  C   UNL     1      -0.053  11.659  21.278  0.00  0.00    +0.000 C 
ENDBRANCH  15  18
ENDBRANCH  11  12
ENDBRANCH   5  11
TORSDOF 6
ENDMDL
