MODEL 1
REMARK VINA RESULT:      -8.3      0.000      0.000
REMARK  Name = 
REMARK  10 active torsions:
REMARK  status: ('A' for Active; 'I' for Inactive)
REMARK    1  A    between atoms: C_1  and  O_2
REMARK    2  A    between atoms: O_2  and  C_3
REMARK    3  A    between atoms: C_6  and  O_7
REMARK    4  A    between atoms: O_7  and  C_8
REMARK    5  A    between atoms: C_9  and  C_10
REMARK    6  A    between atoms: C_13  and  C_14
REMARK    7  A    between atoms: C_14  and  S_15
REMARK    8  A    between atoms: S_15  and  C_16
REMARK    9  A    between atoms: C_19  and  C_20
REMARK   10  A    between atoms: N_26  and  C_27
REMARK                            x       y       z     vdW  Elec       q    Type
REMARK                         _______ _______ _______ _____ _____    ______ ____
ROOT
ATOM      1  S   UNL     1      -0.487   9.213  21.239  0.00  0.00    +0.000 S 
ENDROOT
BRANCH   1   2
ATOM      2  C   UNL     1      -0.322  10.948  21.232  0.00  0.00    +0.000 A 
ATOM      3  N   UNL     1       0.430  11.620  22.073  0.00  0.00    +0.000 NA
ATOM      4  N   UNL     1       0.407  12.938  21.697  0.00  0.00    +0.000 NA
ATOM      5  C   UNL     1      -0.382  13.077  20.643  0.00  0.00    +0.000 A 
ATOM      6  N   UNL     1      -0.842  11.802  20.264  0.00  0.00    +0.000 N 
BRANCH   5   7
ATOM      7  C   UNL     1      -0.707  14.377  20.015  0.00  0.00    +0.000 A 
ATOM      8  C   UNL     1      -1.660  15.217  20.607  0.00  0.00    +0.000 A 
ATOM      9  C   UNL     1      -1.864  16.519  20.133  0.00  0.00    +0.000 A 
ATOM     10  C   UNL     1      -1.112  17.002  19.064  0.00  0.00    +0.000 A 
ATOM     11  C   UNL     1      -0.217  16.157  18.417  0.00  0.00    +0.000 A 
ATOM     12  C   UNL     1      -0.059  14.839  18.857  0.00  0.00    +0.000 A 
ENDBRANCH   5   7
BRANCH   6  13
ATOM     13  C   UNL     1      -1.670  11.485  19.145  0.00  0.00    +0.000 A 
ATOM     14  C   UNL     1      -3.007  11.909  19.114  0.00  0.00    +0.000 A 
ATOM     15  C   UNL     1      -3.878  11.427  18.135  0.00  0.00    +0.000 A 
ATOM     16  C   UNL     1      -3.406  10.571  17.143  0.00  0.00    +0.000 A 
ATOM     17  C   UNL     1      -2.063  10.200  17.123  0.00  0.00    +0.000 A 
ATOM     18  C   UNL     1      -1.195  10.648  18.127  0.00  0.00    +0.000 A 
ENDBRANCH   6  13
ENDBRANCH   1   2
BRANCH   1  19
ATOM     19  C   UNL     1       1.240   8.648  21.421  0.00  0.00    +0.000 C 
BRANCH  19  23
ATOM     20  C   UNL     1       2.560   6.909  18.560  0.00  0.00    +0.000 A 
ATOM     21  N   UNL     1       2.238   8.080  17.986  0.00  0.00    +0.000 NA
ATOM     22  O   UNL     1       1.704   8.834  19.033  0.00  0.00    +0.000 OA
ATOM     23  C   UNL     1       1.760   8.054  20.152  0.00  0.00    +0.000 A 
ATOM     24  N   UNL     1       2.270   6.865  19.914  0.00  0.00    +0.000 NA
BRANCH  20  29
ATOM     25  C   UNL     1       5.395   5.141  16.862  0.00  0.00    +0.000 A 
ATOM     26  C   UNL     1       4.872   3.872  16.644  0.00  0.00    +0.000 A 
ATOM     27  C   UNL     1       3.570   3.565  17.048  0.00  0.00    +0.000 A 
ATOM     28  C   UNL     1       2.758   4.531  17.664  0.00  0.00    +0.000 A 
ATOM     29  C   UNL     1       3.288   5.813  17.915  0.00  0.00    +0.000 A 
ATOM     30  C   UNL     1       4.609   6.095  17.503  0.00  0.00    +0.000 A 
BRANCH  25  32
ATOM     31  C   UNL     1       6.967   4.807  15.116  0.00  0.00    +0.000 C 
ATOM     32  O   UNL     1       6.671   5.326  16.408  0.00  0.00    +0.000 OA
ENDBRANCH  25  32
BRANCH  28  33
ATOM     33  O   UNL     1       1.484   4.246  18.093  0.00  0.00    +0.000 OA
ATOM     34  C   UNL     1       1.251   2.901  18.506  0.00  0.00    +0.000 C 
ENDBRANCH  28  33
ENDBRANCH  20  29
ENDBRANCH  19  23
ENDBRANCH   1  19
TORSDOF 8
ENDMDL
MODEL 2
REMARK VINA RESULT:      -8.2      2.169      3.613
REMARK  Name = 
REMARK  10 active torsions:
REMARK  status: ('A' for Active; 'I' for Inactive)
REMARK    1  A    between atoms: C_1  and  O_2
REMARK    2  A    between atoms: O_2  and  C_3
REMARK    3  A    between atoms: C_6  and  O_7
REMARK    4  A    between atoms: O_7  and  C_8
REMARK    5  A    between atoms: C_9  and  C_10
REMARK    6  A    between atoms: C_13  and  C_14
REMARK    7  A    between atoms: C_14  and  S_15
REMARK    8  A    between atoms: S_15  and  C_16
REMARK    9  A    between atoms: C_19  and  C_20
REMARK   10  A    between atoms: N_26  and  C_27
REMARK                            x       y       z     vdW  Elec       q    Type
REMARK                         _______ _______ _______ _____ _____    ______ ____
ROOT
ATOM      1  S   UNL     1       1.284   8.494  20.065  0.00  0.00    +0.000 S 
ENDROOT
BRANCH   1   2
ATOM      2  C   UNL     1       0.438   9.318  21.347  0.00  0.00    +0.000 A 
ATOM      3  N   UNL     1       0.362   8.880  22.582  0.00  0.00    +0.000 NA
ATOM      4  N   UNL     1      -0.274   9.835  23.330  0.00  0.00    +0.000 NA
ATOM      5  C   UNL     1      -0.614  10.847  22.547  0.00  0.00    +0.000 A 
ATOM      6  N   UNL     1      -0.126  10.587  21.253  0.00  0.00    +0.000 N 
BRANCH   5   7
ATOM      7  C   UNL     1      -1.389  12.023  23.000  0.00  0.00    +0.000 A 
ATOM      8  C   UNL     1      -0.804  13.298  22.965  0.00  0.00    +0.000 A 
ATOM      9  C   UNL     1      -1.565  14.445  23.225  0.00  0.00    +0.000 A 
ATOM     10  C   UNL     1      -2.923  14.334  23.515  0.00  0.00    +0.000 A 
ATOM     11  C   UNL     1      -3.501  13.075  23.629  0.00  0.00    +0.000 A 
ATOM     12  C   UNL     1      -2.724  11.930  23.427  0.00  0.00    +0.000 A 
ENDBRANCH   5   7
BRANCH   6  13
ATOM     13  C   UNL     1      -0.218  11.441  20.112  0.00  0.00    +0.000 A 
ATOM     14  C   UNL     1       0.773  12.403  19.868  0.00  0.00    +0.000 A 
ATOM     15  C   UNL     1       0.585  13.377  18.885  0.00  0.00    +0.000 A 
ATOM     16  C   UNL     1      -0.562  13.358  18.097  0.00  0.00    +0.000 A 
ATOM     17  C   UNL     1      -1.520  12.365  18.282  0.00  0.00    +0.000 A 
ATOM     18  C   UNL     1      -1.356  11.410  19.295  0.00  0.00    +0.000 A 
ENDBRANCH   6  13
ENDBRANCH   1   2
BRANCH   1  19
ATOM     19  C   UNL     1       1.808   6.939  20.869  0.00  0.00    +0.000 C 
BRANCH  19  23
ATOM     20  C   UNL     1       3.749   4.981  18.556  0.00  0.00    +0.000 A 
ATOM     21  N   UNL     1       2.653   4.209  18.643  0.00  0.00    +0.000 NA
ATOM     22  O   UNL     1       1.829   4.894  19.538  0.00  0.00    +0.000 OA
ATOM     23  C   UNL     1       2.496   6.028  19.904  0.00  0.00    +0.000 A 
ATOM     24  N   UNL     1       3.678   6.124  19.335  0.00  0.00    +0.000 NA
BRANCH  20  29
ATOM     25  C   UNL     1       5.504   4.353  15.303  0.00  0.00    +0.000 A 
ATOM     26  C   UNL     1       6.841   4.345  15.680  0.00  0.00    +0.000 A 
ATOM     27  C   UNL     1       7.202   4.543  17.015  0.00  0.00    +0.000 A 
ATOM     28  C   UNL     1       6.226   4.737  18.006  0.00  0.00    +0.000 A 
ATOM     29  C   UNL     1       4.867   4.775  17.631  0.00  0.00    +0.000 A 
ATOM     30  C   UNL     1       4.530   4.579  16.274  0.00  0.00    +0.000 A 
BRANCH  25  32
ATOM     31  C   UNL     1       6.411   3.804  13.181  0.00  0.00    +0.000 C 
ATOM     32  O   UNL     1       5.275   4.132  13.974  0.00  0.00    +0.000 OA
ENDBRANCH  25  32
BRANCH  28  33
ATOM     33  O   UNL     1       6.556   4.958  19.321  0.00  0.00    +0.000 OA
ATOM     34  C   UNL     1       7.758   5.693  19.547  0.00  0.00    +0.000 C 
ENDBRANCH  28  33
ENDBRANCH  20  29
ENDBRANCH  19  23
ENDBRANCH   1  19
TORSDOF 8
ENDMDL
MODEL 3
REMARK VINA RESULT:      -8.1      7.667      9.410
REMARK  Name = 
REMARK  10 active torsions:
REMARK  status: ('A' for Active; 'I' for Inactive)
REMARK    1  A    between atoms: C_1  and  O_2
REMARK    2  A    between atoms: O_2  and  C_3
REMARK    3  A    between atoms: C_6  and  O_7
REMARK    4  A    between atoms: O_7  and  C_8
REMARK    5  A    between atoms: C_9  and  C_10
REMARK    6  A    between atoms: C_13  and  C_14
REMARK    7  A    between atoms: C_14  and  S_15
REMARK    8  A    between atoms: S_15  and  C_16
REMARK    9  A    between atoms: C_19  and  C_20
REMARK   10  A    between atoms: N_26  and  C_27
REMARK                            x       y       z     vdW  Elec       q    Type
REMARK                         _______ _______ _______ _____ _____    ______ ____
ROOT
ATOM      1  S   UNL     1       9.442  10.510  19.168  0.00  0.00    +0.000 S 
ENDROOT
BRANCH   1   2
ATOM      2  C   UNL     1      10.249  11.937  18.574  0.00  0.00    +0.000 A 
ATOM      3  N   UNL     1      11.047  11.953  17.532  0.00  0.00    +0.000 NA
ATOM      4  N   UNL     1      11.401  13.254  17.292  0.00  0.00    +0.000 NA
ATOM      5  C   UNL     1      10.842  14.033  18.206  0.00  0.00    +0.000 A 
ATOM      6  N   UNL     1      10.036  13.233  19.036  0.00  0.00    +0.000 N 
BRANCH   5   7
ATOM      7  C   UNL     1      11.071  15.492  18.305  0.00  0.00    +0.000 A 
ATOM      8  C   UNL     1      11.959  15.994  19.267  0.00  0.00    +0.000 A 
ATOM      9  C   UNL     1      12.323  17.346  19.273  0.00  0.00    +0.000 A 
ATOM     10  C   UNL     1      11.810  18.215  18.312  0.00  0.00    +0.000 A 
ATOM     11  C   UNL     1      10.868  17.751  17.400  0.00  0.00    +0.000 A 
ATOM     12  C   UNL     1      10.464  16.412  17.435  0.00  0.00    +0.000 A 
ENDBRANCH   5   7
BRANCH   6  13
ATOM     13  C   UNL     1       9.209  13.672  20.114  0.00  0.00    +0.000 A 
ATOM     14  C   UNL     1       7.978  14.291  19.852  0.00  0.00    +0.000 A 
ATOM     15  C   UNL     1       7.267  14.912  20.882  0.00  0.00    +0.000 A 
ATOM     16  C   UNL     1       7.747  14.862  22.188  0.00  0.00    +0.000 A 
ATOM     17  C   UNL     1       8.933  14.189  22.470  0.00  0.00    +0.000 A 
ATOM     18  C   UNL     1       9.671  13.601  21.435  0.00  0.00    +0.000 A 
ENDBRANCH   6  13
ENDBRANCH   1   2
BRANCH   1  19
ATOM     19  C   UNL     1       8.429  10.000  17.736  0.00  0.00    +0.000 C 
BRANCH  19  23
ATOM     20  C   UNL     1       7.152   6.635  17.730  0.00  0.00    +0.000 A 
ATOM     21  N   UNL     1       8.043   6.538  18.731  0.00  0.00    +0.000 NA
ATOM     22  O   UNL     1       8.604   7.814  18.808  0.00  0.00    +0.000 OA
ATOM     23  C   UNL     1       7.994   8.574  17.852  0.00  0.00    +0.000 A 
ATOM     24  N   UNL     1       7.102   7.898  17.162  0.00  0.00    +0.000 NA
BRANCH  20  29
ATOM     25  C   UNL     1       4.013   4.589  17.818  0.00  0.00    +0.000 A 
ATOM     26  C   UNL     1       4.211   3.689  16.778  0.00  0.00    +0.000 A 
ATOM     27  C   UNL     1       5.384   3.729  16.021  0.00  0.00    +0.000 A 
ATOM     28  C   UNL     1       6.394   4.664  16.303  0.00  0.00    +0.000 A 
ATOM     29  C   UNL     1       6.192   5.600  17.338  0.00  0.00    +0.000 A 
ATOM     30  C   UNL     1       4.994   5.542  18.083  0.00  0.00    +0.000 A 
BRANCH  25  32
ATOM     31  C   UNL     1       2.933   4.069  19.866  0.00  0.00    +0.000 C 
ATOM     32  O   UNL     1       2.835   4.440  18.495  0.00  0.00    +0.000 OA
ENDBRANCH  25  32
BRANCH  28  33
ATOM     33  O   UNL     1       7.546   4.739  15.558  0.00  0.00    +0.000 OA
ATOM     34  C   UNL     1       7.379   5.091  14.186  0.00  0.00    +0.000 C 
ENDBRANCH  28  33
ENDBRANCH  20  29
ENDBRANCH  19  23
ENDBRANCH   1  19
TORSDOF 8
ENDMDL
MODEL 4
REMARK VINA RESULT:      -8.0      2.245      3.266
REMARK  Name = 
REMARK  10 active torsions:
REMARK  status: ('A' for Active; 'I' for Inactive)
REMARK    1  A    between atoms: C_1  and  O_2
REMARK    2  A    between atoms: O_2  and  C_3
REMARK    3  A    between atoms: C_6  and  O_7
REMARK    4  A    between atoms: O_7  and  C_8
REMARK    5  A    between atoms: C_9  and  C_10
REMARK    6  A    between atoms: C_13  and  C_14
REMARK    7  A    between atoms: C_14  and  S_15
REMARK    8  A    between atoms: S_15  and  C_16
REMARK    9  A    between atoms: C_19  and  C_20
REMARK   10  A    between atoms: N_26  and  C_27
REMARK                            x       y       z     vdW  Elec       q    Type
REMARK                         _______ _______ _______ _____ _____    ______ ____
ROOT
ATOM      1  S   UNL     1       1.103   8.928  20.464  0.00  0.00    +0.000 S 
ENDROOT
BRANCH   1   2
ATOM      2  C   UNL     1       0.084   9.782  21.591  0.00  0.00    +0.000 A 
ATOM      3  N   UNL     1      -0.362   9.272  22.715  0.00  0.00    +0.000 NA
ATOM      4  N   UNL     1      -1.027  10.260  23.392  0.00  0.00    +0.000 NA
ATOM      5  C   UNL     1      -1.012  11.369  22.669  0.00  0.00    +0.000 A 
ATOM      6  N   UNL     1      -0.253  11.130  21.508  0.00  0.00    +0.000 N 
BRANCH   5   7
ATOM      7  C   UNL     1      -1.703  12.620  23.053  0.00  0.00    +0.000 A 
ATOM      8  C   UNL     1      -3.099  12.632  23.184  0.00  0.00    +0.000 A 
ATOM      9  C   UNL     1      -3.763  13.748  23.708  0.00  0.00    +0.000 A 
ATOM     10  C   UNL     1      -3.039  14.867  24.116  0.00  0.00    +0.000 A 
ATOM     11  C   UNL     1      -1.662  14.902  23.921  0.00  0.00    +0.000 A 
ATOM     12  C   UNL     1      -1.011  13.808  23.343  0.00  0.00    +0.000 A 
ENDBRANCH   5   7
BRANCH   6  13
ATOM     13  C   UNL     1       0.067  12.070  20.482  0.00  0.00    +0.000 A 
ATOM     14  C   UNL     1      -0.807  12.259  19.401  0.00  0.00    +0.000 A 
ATOM     15  C   UNL     1      -0.407  13.010  18.293  0.00  0.00    +0.000 A 
ATOM     16  C   UNL     1       0.839  13.630  18.286  0.00  0.00    +0.000 A 
ATOM     17  C   UNL     1       1.687  13.507  19.385  0.00  0.00    +0.000 A 
ATOM     18  C   UNL     1       1.307  12.721  20.481  0.00  0.00    +0.000 A 
ENDBRANCH   6  13
ENDBRANCH   1   2
BRANCH   1  19
ATOM     19  C   UNL     1       1.125   7.235  21.150  0.00  0.00    +0.000 C 
BRANCH  19  23
ATOM     20  C   UNL     1       3.554   5.429  19.203  0.00  0.00    +0.000 A 
ATOM     21  N   UNL     1       3.273   4.501  20.134  0.00  0.00    +0.000 NA
ATOM     22  O   UNL     1       2.327   5.121  20.953  0.00  0.00    +0.000 OA
ATOM     23  C   UNL     1       2.111   6.366  20.438  0.00  0.00    +0.000 A 
ATOM     24  N   UNL     1       2.842   6.605  19.371  0.00  0.00    +0.000 NA
BRANCH  20  29
ATOM     25  C   UNL     1       6.406   5.952  16.828  0.00  0.00    +0.000 A 
ATOM     26  C   UNL     1       6.143   5.019  15.832  0.00  0.00    +0.000 A 
ATOM     27  C   UNL     1       5.018   4.195  15.914  0.00  0.00    +0.000 A 
ATOM     28  C   UNL     1       4.121   4.300  16.989  0.00  0.00    +0.000 A 
ATOM     29  C   UNL     1       4.393   5.224  18.020  0.00  0.00    +0.000 A 
ATOM     30  C   UNL     1       5.541   6.040  17.916  0.00  0.00    +0.000 A 
BRANCH  25  32
ATOM     31  C   UNL     1       7.759   7.755  17.568  0.00  0.00    +0.000 C 
ATOM     32  O   UNL     1       7.525   6.711  16.629  0.00  0.00    +0.000 OA
ENDBRANCH  25  32
BRANCH  28  33
ATOM     33  O   UNL     1       3.022   3.485  17.105  0.00  0.00    +0.000 OA
ATOM     34  C   UNL     1       3.270   2.170  17.599  0.00  0.00    +0.000 C 
ENDBRANCH  28  33
ENDBRANCH  20  29
ENDBRANCH  19  23
ENDBRANCH   1  19
TORSDOF 8
ENDMDL
MODEL 5
REMARK VINA RESULT:      -7.9      0.618      1.379
REMARK  Name = 
REMARK  10 active torsions:
REMARK  status: ('A' for Active; 'I' for Inactive)
REMARK    1  A    between atoms: C_1  and  O_2
REMARK    2  A    between atoms: O_2  and  C_3
REMARK    3  A    between atoms: C_6  and  O_7
REMARK    4  A    between atoms: O_7  and  C_8
REMARK    5  A    between atoms: C_9  and  C_10
REMARK    6  A    between atoms: C_13  and  C_14
REMARK    7  A    between atoms: C_14  and  S_15
REMARK    8  A    between atoms: S_15  and  C_16
REMARK    9  A    between atoms: C_19  and  C_20
REMARK   10  A    between atoms: N_26  and  C_27
REMARK                            x       y       z     vdW  Elec       q    Type
REMARK                         _______ _______ _______ _____ _____    ______ ____
ROOT
ATOM      1  S   UNL     1      -0.365   9.467  21.172  0.00  0.00    +0.000 S 
ENDROOT
BRANCH   1   2
ATOM      2  C   UNL     1       0.028  11.162  21.073  0.00  0.00    +0.000 A 
ATOM      3  N   UNL     1       1.164  11.680  21.478  0.00  0.00    +0.000 NA
ATOM      4  N   UNL     1       1.166  13.008  21.139  0.00  0.00    +0.000 NA
ATOM      5  C   UNL     1       0.018  13.309  20.551  0.00  0.00    +0.000 A 
ATOM      6  N   UNL     1      -0.741  12.130  20.433  0.00  0.00    +0.000 N 
BRANCH   5   7
ATOM      7  C   UNL     1      -0.362  14.673  20.122  0.00  0.00    +0.000 A 
ATOM      8  C   UNL     1       0.110  15.177  18.901  0.00  0.00    +0.000 A 
ATOM      9  C   UNL     1      -0.367  16.391  18.392  0.00  0.00    +0.000 A 
ATOM     10  C   UNL     1      -1.328  17.116  19.092  0.00  0.00    +0.000 A 
ATOM     11  C   UNL     1      -1.750  16.670  20.341  0.00  0.00    +0.000 A 
ATOM     12  C   UNL     1      -1.228  15.487  20.872  0.00  0.00    +0.000 A 
ENDBRANCH   5   7
BRANCH   6  13
ATOM     13  C   UNL     1      -2.018  11.989  19.809  0.00  0.00    +0.000 A 
ATOM     14  C   UNL     1      -2.116  11.461  18.513  0.00  0.00    +0.000 A 
ATOM     15  C   UNL     1      -3.326  11.517  17.818  0.00  0.00    +0.000 A 
ATOM     16  C   UNL     1      -4.460  12.039  18.435  0.00  0.00    +0.000 A 
ATOM     17  C   UNL     1      -4.390  12.501  19.747  0.00  0.00    +0.000 A 
ATOM     18  C   UNL     1      -3.169  12.485  20.434  0.00  0.00    +0.000 A 
ENDBRANCH   6  13
ENDBRANCH   1   2
BRANCH   1  19
ATOM     19  C   UNL     1       1.271   8.691  21.412  0.00  0.00    +0.000 C 
BRANCH  19  23
ATOM     20  C   UNL     1       2.551   6.888  18.573  0.00  0.00    +0.000 A 
ATOM     21  N   UNL     1       2.230   8.049  17.979  0.00  0.00    +0.000 NA
ATOM     22  O   UNL     1       1.710   8.826  19.016  0.00  0.00    +0.000 OA
ATOM     23  C   UNL     1       1.774   8.069  20.150  0.00  0.00    +0.000 A 
ATOM     24  N   UNL     1       2.275   6.873  19.931  0.00  0.00    +0.000 NA
BRANCH  20  29
ATOM     25  C   UNL     1       5.388   5.045  16.959  0.00  0.00    +0.000 A 
ATOM     26  C   UNL     1       4.832   3.796  16.708  0.00  0.00    +0.000 A 
ATOM     27  C   UNL     1       3.508   3.528  17.061  0.00  0.00    +0.000 A 
ATOM     28  C   UNL     1       2.705   4.514  17.658  0.00  0.00    +0.000 A 
ATOM     29  C   UNL     1       3.267   5.775  17.943  0.00  0.00    +0.000 A 
ATOM     30  C   UNL     1       4.610   6.018  17.583  0.00  0.00    +0.000 A 
BRANCH  25  32
ATOM     31  C   UNL     1       6.957   4.928  15.183  0.00  0.00    +0.000 C 
ATOM     32  O   UNL     1       6.685   5.192  16.555  0.00  0.00    +0.000 OA
ENDBRANCH  25  32
BRANCH  28  33
ATOM     33  O   UNL     1       1.407   4.267  18.036  0.00  0.00    +0.000 OA
ATOM     34  C   UNL     1       1.236   3.357  19.121  0.00  0.00    +0.000 C 
ENDBRANCH  28  33
ENDBRANCH  20  29
ENDBRANCH  19  23
ENDBRANCH   1  19
TORSDOF 8
ENDMDL
MODEL 6
REMARK VINA RESULT:      -7.8      1.102      1.531
REMARK  Name = 
REMARK  10 active torsions:
REMARK  status: ('A' for Active; 'I' for Inactive)
REMARK    1  A    between atoms: C_1  and  O_2
REMARK    2  A    between atoms: O_2  and  C_3
REMARK    3  A    between atoms: C_6  and  O_7
REMARK    4  A    between atoms: O_7  and  C_8
REMARK    5  A    between atoms: C_9  and  C_10
REMARK    6  A    between atoms: C_13  and  C_14
REMARK    7  A    between atoms: C_14  and  S_15
REMARK    8  A    between atoms: S_15  and  C_16
REMARK    9  A    between atoms: C_19  and  C_20
REMARK   10  A    between atoms: N_26  and  C_27
REMARK                            x       y       z     vdW  Elec       q    Type
REMARK                         _______ _______ _______ _____ _____    ______ ____
ROOT
ATOM      1  S   UNL     1       0.340  10.191  20.589  0.00  0.00    +0.000 S 
ENDROOT
BRANCH   1   2
ATOM      2  C   UNL     1       0.420  11.932  20.625  0.00  0.00    +0.000 A 
ATOM      3  N   UNL     1       1.407  12.614  21.159  0.00  0.00    +0.000 NA
ATOM      4  N   UNL     1       1.190  13.942  20.900  0.00  0.00    +0.000 NA
ATOM      5  C   UNL     1       0.055  14.076  20.232  0.00  0.00    +0.000 A 
ATOM      6  N   UNL     1      -0.462  12.792  19.978  0.00  0.00    +0.000 N 
BRANCH   5   7
ATOM      7  C   UNL     1      -0.537  15.378  19.853  0.00  0.00    +0.000 A 
ATOM      8  C   UNL     1      -0.114  16.020  18.679  0.00  0.00    +0.000 A 
ATOM      9  C   UNL     1      -0.772  17.163  18.208  0.00  0.00    +0.000 A 
ATOM     10  C   UNL     1      -1.868  17.676  18.899  0.00  0.00    +0.000 A 
ATOM     11  C   UNL     1      -2.251  17.098  20.104  0.00  0.00    +0.000 A 
ATOM     12  C   UNL     1      -1.555  15.992  20.601  0.00  0.00    +0.000 A 
ENDBRANCH   5   7
BRANCH   6  13
ATOM     13  C   UNL     1      -1.640  12.471  19.236  0.00  0.00    +0.000 A 
ATOM     14  C   UNL     1      -2.896  12.496  19.861  0.00  0.00    +0.000 A 
ATOM     15  C   UNL     1      -4.019  11.982  19.209  0.00  0.00    +0.000 A 
ATOM     16  C   UNL     1      -3.908  11.500  17.908  0.00  0.00    +0.000 A 
ATOM     17  C   UNL     1      -2.680  11.535  17.252  0.00  0.00    +0.000 A 
ATOM     18  C   UNL     1      -1.542  12.012  17.916  0.00  0.00    +0.000 A 
ENDBRANCH   6  13
ENDBRANCH   1   2
BRANCH   1  19
ATOM     19  C   UNL     1       0.956   9.798  18.914  0.00  0.00    +0.000 C 
BRANCH  19  23
ATOM     20  C   UNL     1       2.968   6.839  18.539  0.00  0.00    +0.000 A 
ATOM     21  N   UNL     1       2.637   6.725  19.836  0.00  0.00    +0.000 NA
ATOM     22  O   UNL     1       1.846   7.850  20.082  0.00  0.00    +0.000 OA
ATOM     23  C   UNL     1       1.761   8.539  18.907  0.00  0.00    +0.000 A 
ATOM     24  N   UNL     1       2.435   7.965  17.934  0.00  0.00    +0.000 NA
BRANCH  20  29
ATOM     25  C   UNL     1       5.354   5.461  15.998  0.00  0.00    +0.000 A 
ATOM     26  C   UNL     1       5.159   4.090  16.114  0.00  0.00    +0.000 A 
ATOM     27  C   UNL     1       4.236   3.582  17.031  0.00  0.00    +0.000 A 
ATOM     28  C   UNL     1       3.472   4.441  17.839  0.00  0.00    +0.000 A 
ATOM     29  C   UNL     1       3.682   5.832  17.749  0.00  0.00    +0.000 A 
ATOM     30  C   UNL     1       4.627   6.319  16.820  0.00  0.00    +0.000 A 
BRANCH  25  32
ATOM     31  C   UNL     1       6.888   4.788  14.317  0.00  0.00    +0.000 C 
ATOM     32  O   UNL     1       6.271   5.837  15.056  0.00  0.00    +0.000 OA
ENDBRANCH  25  32
BRANCH  28  33
ATOM     33  O   UNL     1       2.576   3.965  18.765  0.00  0.00    +0.000 OA
ATOM     34  C   UNL     1       1.384   3.386  18.238  0.00  0.00    +0.000 C 
ENDBRANCH  28  33
ENDBRANCH  20  29
ENDBRANCH  19  23
ENDBRANCH   1  19
TORSDOF 8
ENDMDL
MODEL 7
REMARK VINA RESULT:      -7.8      0.901      2.400
REMARK  Name = 
REMARK  10 active torsions:
REMARK  status: ('A' for Active; 'I' for Inactive)
REMARK    1  A    between atoms: C_1  and  O_2
REMARK    2  A    between atoms: O_2  and  C_3
REMARK    3  A    between atoms: C_6  and  O_7
REMARK    4  A    between atoms: O_7  and  C_8
REMARK    5  A    between atoms: C_9  and  C_10
REMARK    6  A    between atoms: C_13  and  C_14
REMARK    7  A    between atoms: C_14  and  S_15
REMARK    8  A    between atoms: S_15  and  C_16
REMARK    9  A    between atoms: C_19  and  C_20
REMARK   10  A    between atoms: N_26  and  C_27
REMARK                            x       y       z     vdW  Elec       q    Type
REMARK                         _______ _______ _______ _____ _____    ______ ____
ROOT
ATOM      1  S   UNL     1      -0.401   9.478  21.131  0.00  0.00    +0.000 S 
ENDROOT
BRANCH   1   2
ATOM      2  C   UNL     1      -0.215  11.211  21.090  0.00  0.00    +0.000 A 
ATOM      3  N   UNL     1       0.673  11.874  21.793  0.00  0.00    +0.000 NA
ATOM      4  N   UNL     1       0.607  13.191  21.421  0.00  0.00    +0.000 NA
ATOM      5  C   UNL     1      -0.342  13.340  20.511  0.00  0.00    +0.000 A 
ATOM      6  N   UNL     1      -0.875  12.071  20.217  0.00  0.00    +0.000 N 
BRANCH   5   7
ATOM      7  C   UNL     1      -0.748  14.643  19.939  0.00  0.00    +0.000 A 
ATOM      8  C   UNL     1      -1.752  15.395  20.565  0.00  0.00    +0.000 A 
ATOM      9  C   UNL     1      -2.037  16.702  20.147  0.00  0.00    +0.000 A 
ATOM     10  C   UNL     1      -1.316  17.277  19.103  0.00  0.00    +0.000 A 
ATOM     11  C   UNL     1      -0.371  16.519  18.422  0.00  0.00    +0.000 A 
ATOM     12  C   UNL     1      -0.131  15.195  18.804  0.00  0.00    +0.000 A 
ENDBRANCH   5   7
BRANCH   6  13
ATOM     13  C   UNL     1      -1.880  11.763  19.250  0.00  0.00    +0.000 A 
ATOM     14  C   UNL     1      -1.516  11.313  17.972  0.00  0.00    +0.000 A 
ATOM     15  C   UNL     1      -2.472  11.216  16.959  0.00  0.00    +0.000 A 
ATOM     16  C   UNL     1      -3.807  11.503  17.232  0.00  0.00    +0.000 A 
ATOM     17  C   UNL     1      -4.191  11.883  18.516  0.00  0.00    +0.000 A 
ATOM     18  C   UNL     1      -3.229  12.022  19.525  0.00  0.00    +0.000 A 
ENDBRANCH   6  13
ENDBRANCH   1   2
BRANCH   1  19
ATOM     19  C   UNL     1       1.322   8.896  21.299  0.00  0.00    +0.000 C 
BRANCH  19  23
ATOM     20  C   UNL     1       2.523   6.997  18.489  0.00  0.00    +0.000 A 
ATOM     21  N   UNL     1       2.294   8.175  17.885  0.00  0.00    +0.000 NA
ATOM     22  O   UNL     1       1.812   8.991  18.911  0.00  0.00    +0.000 OA
ATOM     23  C   UNL     1       1.803   8.235  20.048  0.00  0.00    +0.000 A 
ATOM     24  N   UNL     1       2.223   7.006  19.841  0.00  0.00    +0.000 NA
BRANCH  20  29
ATOM     25  C   UNL     1       3.025   3.419  17.487  0.00  0.00    +0.000 A 
ATOM     26  C   UNL     1       4.227   3.468  16.791  0.00  0.00    +0.000 A 
ATOM     27  C   UNL     1       4.906   4.678  16.634  0.00  0.00    +0.000 A 
ATOM     28  C   UNL     1       4.402   5.867  17.189  0.00  0.00    +0.000 A 
ATOM     29  C   UNL     1       3.170   5.834  17.874  0.00  0.00    +0.000 A 
ATOM     30  C   UNL     1       2.501   4.599  18.012  0.00  0.00    +0.000 A 
BRANCH  25  32
ATOM     31  C   UNL     1       2.101   1.750  18.896  0.00  0.00    +0.000 C 
ATOM     32  O   UNL     1       2.465   2.177  17.588  0.00  0.00    +0.000 OA
ENDBRANCH  25  32
BRANCH  28  33
ATOM     33  O   UNL     1       5.038   7.074  17.027  0.00  0.00    +0.000 OA
ATOM     34  C   UNL     1       6.449   7.068  17.242  0.00  0.00    +0.000 C 
ENDBRANCH  28  33
ENDBRANCH  20  29
ENDBRANCH  19  23
ENDBRANCH   1  19
TORSDOF 8
ENDMDL
MODEL 8
REMARK VINA RESULT:      -7.7      7.652      9.246
REMARK  Name = 
REMARK  10 active torsions:
REMARK  status: ('A' for Active; 'I' for Inactive)
REMARK    1  A    between atoms: C_1  and  O_2
REMARK    2  A    between atoms: O_2  and  C_3
REMARK    3  A    between atoms: C_6  and  O_7
REMARK    4  A    between atoms: O_7  and  C_8
REMARK    5  A    between atoms: C_9  and  C_10
REMARK    6  A    between atoms: C_13  and  C_14
REMARK    7  A    between atoms: C_14  and  S_15
REMARK    8  A    between atoms: S_15  and  C_16
REMARK    9  A    between atoms: C_19  and  C_20
REMARK   10  A    between atoms: N_26  and  C_27
REMARK                            x       y       z     vdW  Elec       q    Type
REMARK                         _______ _______ _______ _____ _____    ______ ____
ROOT
ATOM      1  S   UNL     1       9.542  10.293  19.196  0.00  0.00    +0.000 S 
ENDROOT
BRANCH   1   2
ATOM      2  C   UNL     1      10.397  11.662  18.536  0.00  0.00    +0.000 A 
ATOM      3  N   UNL     1      11.218  11.596  17.514  0.00  0.00    +0.000 NA
ATOM      4  N   UNL     1      11.609  12.872  17.205  0.00  0.00    +0.000 NA
ATOM      5  C   UNL     1      11.049  13.718  18.055  0.00  0.00    +0.000 A 
ATOM      6  N   UNL     1      10.204  12.988  18.912  0.00  0.00    +0.000 N 
BRANCH   5   7
ATOM      7  C   UNL     1      11.310  15.174  18.071  0.00  0.00    +0.000 A 
ATOM      8  C   UNL     1      10.554  16.026  17.253  0.00  0.00    +0.000 A 
ATOM      9  C   UNL     1      10.661  17.418  17.370  0.00  0.00    +0.000 A 
ATOM     10  C   UNL     1      11.519  17.977  18.315  0.00  0.00    +0.000 A 
ATOM     11  C   UNL     1      12.332  17.149  19.081  0.00  0.00    +0.000 A 
ATOM     12  C   UNL     1      12.265  15.761  18.918  0.00  0.00    +0.000 A 
ENDBRANCH   5   7
BRANCH   6  13
ATOM     13  C   UNL     1       9.364  13.512  19.942  0.00  0.00    +0.000 A 
ATOM     14  C   UNL     1       9.636  13.227  21.288  0.00  0.00    +0.000 A 
ATOM     15  C   UNL     1       8.708  13.552  22.280  0.00  0.00    +0.000 A 
ATOM     16  C   UNL     1       7.535  14.221  21.943  0.00  0.00    +0.000 A 
ATOM     17  C   UNL     1       7.287  14.572  20.618  0.00  0.00    +0.000 A 
ATOM     18  C   UNL     1       8.195  14.211  19.614  0.00  0.00    +0.000 A 
ENDBRANCH   6  13
ENDBRANCH   1   2
BRANCH   1  19
ATOM     19  C   UNL     1       8.363   9.879  17.864  0.00  0.00    +0.000 C 
BRANCH  19  23
ATOM     20  C   UNL     1       7.299   6.452  17.595  0.00  0.00    +0.000 A 
ATOM     21  N   UNL     1       8.076   6.364  18.688  0.00  0.00    +0.000 NA
ATOM     22  O   UNL     1       8.547   7.665  18.873  0.00  0.00    +0.000 OA
ATOM     23  C   UNL     1       8.004   8.428  17.880  0.00  0.00    +0.000 A 
ATOM     24  N   UNL     1       7.238   7.732  17.069  0.00  0.00    +0.000 NA
BRANCH  20  29
ATOM     25  C   UNL     1       6.070   3.874  15.167  0.00  0.00    +0.000 A 
ATOM     26  C   UNL     1       4.971   3.338  15.828  0.00  0.00    +0.000 A 
ATOM     27  C   UNL     1       4.604   3.812  17.090  0.00  0.00    +0.000 A 
ATOM     28  C   UNL     1       5.321   4.849  17.709  0.00  0.00    +0.000 A 
ATOM     29  C   UNL     1       6.454   5.381  17.060  0.00  0.00    +0.000 A 
ATOM     30  C   UNL     1       6.808   4.879  15.789  0.00  0.00    +0.000 A 
BRANCH  25  32
ATOM     31  C   UNL     1       5.655   3.949  12.833  0.00  0.00    +0.000 C 
ATOM     32  O   UNL     1       6.320   3.341  13.934  0.00  0.00    +0.000 OA
ENDBRANCH  25  32
BRANCH  28  33
ATOM     33  O   UNL     1       4.994   5.315  18.960  0.00  0.00    +0.000 OA
ATOM     34  C   UNL     1       3.696   5.892  19.090  0.00  0.00    +0.000 C 
ENDBRANCH  28  33
ENDBRANCH  20  29
ENDBRANCH  19  23
ENDBRANCH   1  19
TORSDOF 8
ENDMDL
MODEL 9
REMARK VINA RESULT:      -7.6      3.119      9.275
REMARK  Name = 
REMARK  10 active torsions:
REMARK  status: ('A' for Active; 'I' for Inactive)
REMARK    1  A    between atoms: C_1  and  O_2
REMARK    2  A    between atoms: O_2  and  C_3
REMARK    3  A    between atoms: C_6  and  O_7
REMARK    4  A    between atoms: O_7  and  C_8
REMARK    5  A    between atoms: C_9  and  C_10
REMARK    6  A    between atoms: C_13  and  C_14
REMARK    7  A    between atoms: C_14  and  S_15
REMARK    8  A    between atoms: S_15  and  C_16
REMARK    9  A    between atoms: C_19  and  C_20
REMARK   10  A    between atoms: N_26  and  C_27
REMARK                            x       y       z     vdW  Elec       q    Type
REMARK                         _______ _______ _______ _____ _____    ______ ____
ROOT
ATOM      1  S   UNL     1       0.828   7.781  20.780  0.00  0.00    +0.000 S 
ENDROOT
BRANCH   1   2
ATOM      2  C   UNL     1       1.952   7.596  19.461  0.00  0.00    +0.000 A 
ATOM      3  N   UNL     1       2.480   8.597  18.795  0.00  0.00    +0.000 NA
ATOM      4  N   UNL     1       3.398   8.082  17.918  0.00  0.00    +0.000 NA
ATOM      5  C   UNL     1       3.413   6.762  18.027  0.00  0.00    +0.000 A 
ATOM      6  N   UNL     1       2.528   6.394  19.057  0.00  0.00    +0.000 N 
BRANCH   5   7
ATOM      7  C   UNL     1       4.228   5.868  17.175  0.00  0.00    +0.000 A 
ATOM      8  C   UNL     1       4.216   4.485  17.406  0.00  0.00    +0.000 A 
ATOM      9  C   UNL     1       4.840   3.602  16.515  0.00  0.00    +0.000 A 
ATOM     10  C   UNL     1       5.478   4.089  15.377  0.00  0.00    +0.000 A 
ATOM     11  C   UNL     1       5.566   5.462  15.173  0.00  0.00    +0.000 A 
ATOM     12  C   UNL     1       4.992   6.343  16.096  0.00  0.00    +0.000 A 
ENDBRANCH   5   7
BRANCH   6  13
ATOM     13  C   UNL     1       2.279   5.076  19.547  0.00  0.00    +0.000 A 
ATOM     14  C   UNL     1       1.351   4.246  18.899  0.00  0.00    +0.000 A 
ATOM     15  C   UNL     1       0.946   3.046  19.488  0.00  0.00    +0.000 A 
ATOM     16  C   UNL     1       1.512   2.636  20.692  0.00  0.00    +0.000 A 
ATOM     17  C   UNL     1       2.487   3.418  21.308  0.00  0.00    +0.000 A 
ATOM     18  C   UNL     1       2.866   4.642  20.742  0.00  0.00    +0.000 A 
ENDBRANCH   6  13
ENDBRANCH   1   2
BRANCH   1  19
ATOM     19  C   UNL     1       1.061   9.528  21.260  0.00  0.00    +0.000 C 
BRANCH  19  23
ATOM     20  C   UNL     1      -1.371  11.414  19.395  0.00  0.00    +0.000 A 
ATOM     21  N   UNL     1      -0.470  12.381  19.636  0.00  0.00    +0.000 NA
ATOM     22  O   UNL     1       0.527  11.737  20.372  0.00  0.00    +0.000 OA
ATOM     23  C   UNL     1       0.144  10.433  20.502  0.00  0.00    +0.000 A 
ATOM     24  N   UNL     1      -1.013  10.187  19.927  0.00  0.00    +0.000 NA
BRANCH  20  29
ATOM     25  C   UNL     1      -3.400  11.355  16.244  0.00  0.00    +0.000 A 
ATOM     26  C   UNL     1      -4.661  11.730  16.690  0.00  0.00    +0.000 A 
ATOM     27  C   UNL     1      -4.878  12.015  18.040  0.00  0.00    +0.000 A 
ATOM     28  C   UNL     1      -3.827  11.948  18.971  0.00  0.00    +0.000 A 
ATOM     29  C   UNL     1      -2.550  11.541  18.534  0.00  0.00    +0.000 A 
ATOM     30  C   UNL     1      -2.360  11.252  17.165  0.00  0.00    +0.000 A 
BRANCH  25  32
ATOM     31  C   UNL     1      -3.328   9.754  14.494  0.00  0.00    +0.000 C 
ATOM     32  O   UNL     1      -3.308  11.118  14.901  0.00  0.00    +0.000 OA
ENDBRANCH  25  32
BRANCH  28  33
ATOM     33  O   UNL     1      -4.021  12.200  20.308  0.00  0.00    +0.000 OA
ATOM     34  C   UNL     1      -5.036  13.150  20.623  0.00  0.00    +0.000 C 
ENDBRANCH  28  33
ENDBRANCH  20  29
ENDBRANCH  19  23
ENDBRANCH   1  19
TORSDOF 8
ENDMDL
