MODEL 1
REMARK VINA RESULT:      -8.1      0.000      0.000
REMARK  Name = 
REMARK  3 active torsions:
REMARK  status: ('A' for Active; 'I' for Inactive)
REMARK    1  A    between atoms: C_1  and  N_2
REMARK    2  A    between atoms: C_3  and  C_4
REMARK    3  A    between atoms: C_13  and  O_14
REMARK                            x       y       z     vdW  Elec       q    Type
REMARK                         _______ _______ _______ _____ _____    ______ ____
ROOT
ATOM      1  C   UNL     1       3.888   3.508  20.270  0.00  0.00    +0.000 C 
ATOM      2  N   UNL     1       3.079   4.026  19.136  0.00  0.00    +0.000 N 
ATOM      3  C   UNL     1       2.947   5.458  18.990  0.00  0.00    +0.000 C 
ATOM      4  C   UNL     1       3.609   6.115  18.009  0.00  0.00    +0.000 C 
ATOM      5  C   UNL     1       4.469   5.455  17.006  0.00  0.00    +0.000 A 
ATOM      6  C   UNL     1       5.443   6.167  16.287  0.00  0.00    +0.000 A 
ATOM      7  C   UNL     1       6.303   5.519  15.392  0.00  0.00    +0.000 A 
ATOM      8  C   UNL     1       6.186   4.147  15.179  0.00  0.00    +0.000 A 
ATOM      9  C   UNL     1       5.198   3.427  15.845  0.00  0.00    +0.000 A 
ATOM     10  C   UNL     1       4.352   4.093  16.749  0.00  0.00    +0.000 A 
ATOM     11  S   UNL     1       3.157   3.177  17.664  0.00  0.00    +0.000 S 
ATOM     12  O   UNL     1       3.741   1.882  17.914  0.00  0.00    +0.000 OA
ATOM     13  O   UNL     1       1.896   3.331  16.975  0.00  0.00    +0.000 OA
ENDROOT
BRANCH   3  14
ATOM     14  C   UNL     1       2.094   6.215  19.972  0.00  0.00    +0.000 C 
ATOM     15  O   UNL     1       1.295   5.614  20.689  0.00  0.00    +0.000 OA
ATOM     16  N   UNL     1       2.274   7.574  19.923  0.00  0.00    +0.000 N 
ATOM     17  C   UNL     1       1.385   8.467  20.509  0.00  0.00    +0.000 A 
ATOM     18  C   UNL     1       1.049   8.364  21.850  0.00  0.00    +0.000 A 
ATOM     19  C   UNL     1       0.173   9.301  22.385  0.00  0.00    +0.000 A 
ATOM     20  C   UNL     1      -0.375  10.269  21.551  0.00  0.00    +0.000 A 
ATOM     21  C   UNL     1       0.020  10.290  20.224  0.00  0.00    +0.000 A 
ATOM     22  N   UNL     1       0.926   9.438  19.695  0.00  0.00    +0.000 NA
ATOM     23  H   UNL     1       2.764   7.948  19.125  0.00  0.00    +0.000 HD
ENDBRANCH   3  14
BRANCH   4  24
ATOM     24  O   UNL     1       3.580   7.498  17.869  0.00  0.00    +0.000 OA
ATOM     25  H   UNL     1       3.961   7.912  18.678  0.00  0.00    +0.000 HD
ENDBRANCH   4  24
TORSDOF 2
ENDMDL
MODEL 2
REMARK VINA RESULT:      -7.8      3.053      7.936
REMARK  Name = 
REMARK  3 active torsions:
REMARK  status: ('A' for Active; 'I' for Inactive)
REMARK    1  A    between atoms: C_1  and  N_2
REMARK    2  A    between atoms: C_3  and  C_4
REMARK    3  A    between atoms: C_13  and  O_14
REMARK                            x       y       z     vdW  Elec       q    Type
REMARK                         _______ _______ _______ _____ _____    ______ ____
ROOT
ATOM      1  C   UNL     1       2.023  11.763  18.422  0.00  0.00    +0.000 C 
ATOM      2  N   UNL     1       0.957  10.729  18.484  0.00  0.00    +0.000 N 
ATOM      3  C   UNL     1       1.288   9.438  19.044  0.00  0.00    +0.000 C 
ATOM      4  C   UNL     1       0.841   9.085  20.272  0.00  0.00    +0.000 C 
ATOM      5  C   UNL     1      -0.027   9.934  21.113  0.00  0.00    +0.000 A 
ATOM      6  C   UNL     1      -0.128   9.738  22.500  0.00  0.00    +0.000 A 
ATOM      7  C   UNL     1      -0.896  10.594  23.299  0.00  0.00    +0.000 A 
ATOM      8  C   UNL     1      -1.599  11.648  22.721  0.00  0.00    +0.000 A 
ATOM      9  C   UNL     1      -1.551  11.835  21.342  0.00  0.00    +0.000 A 
ATOM     10  C   UNL     1      -0.766  10.972  20.557  0.00  0.00    +0.000 A 
ATOM     11  S   UNL     1      -0.626  11.254  18.823  0.00  0.00    +0.000 S 
ATOM     12  O   UNL     1      -0.684  12.682  18.636  0.00  0.00    +0.000 OA
ATOM     13  O   UNL     1      -1.558  10.356  18.179  0.00  0.00    +0.000 OA
ENDROOT
BRANCH   3  14
ATOM     14  C   UNL     1       2.173   8.509  18.259  0.00  0.00    +0.000 C 
ATOM     15  O   UNL     1       2.558   8.825  17.134  0.00  0.00    +0.000 OA
ATOM     16  N   UNL     1       2.427   7.321  18.896  0.00  0.00    +0.000 N 
ATOM     17  C   UNL     1       2.951   6.216  18.238  0.00  0.00    +0.000 A 
ATOM     18  C   UNL     1       4.134   6.308  17.520  0.00  0.00    +0.000 A 
ATOM     19  C   UNL     1       4.621   5.162  16.902  0.00  0.00    +0.000 A 
ATOM     20  C   UNL     1       3.884   3.986  16.978  0.00  0.00    +0.000 A 
ATOM     21  C   UNL     1       2.713   3.994  17.717  0.00  0.00    +0.000 A 
ATOM     22  N   UNL     1       2.254   5.073  18.389  0.00  0.00    +0.000 NA
ATOM     23  H   UNL     1       1.850   7.089  19.690  0.00  0.00    +0.000 HD
ENDBRANCH   3  14
BRANCH   4  24
ATOM     24  O   UNL     1       1.192   7.891  20.891  0.00  0.00    +0.000 OA
ATOM     25  H   UNL     1       1.478   7.243  20.206  0.00  0.00    +0.000 HD
ENDBRANCH   4  24
TORSDOF 2
ENDMDL
MODEL 3
REMARK VINA RESULT:      -7.8      3.440      8.178
REMARK  Name = 
REMARK  3 active torsions:
REMARK  status: ('A' for Active; 'I' for Inactive)
REMARK    1  A    between atoms: C_1  and  N_2
REMARK    2  A    between atoms: C_3  and  C_4
REMARK    3  A    between atoms: C_13  and  O_14
REMARK                            x       y       z     vdW  Elec       q    Type
REMARK                         _______ _______ _______ _____ _____    ______ ____
ROOT
ATOM      1  C   UNL     1       0.301   8.468  21.473  0.00  0.00    +0.000 C 
ATOM      2  N   UNL     1       0.690   9.733  20.795  0.00  0.00    +0.000 N 
ATOM      3  C   UNL     1       0.598   9.791  19.353  0.00  0.00    +0.000 C 
ATOM      4  C   UNL     1      -0.387  10.498  18.753  0.00  0.00    +0.000 C 
ATOM      5  C   UNL     1      -1.406  11.281  19.482  0.00  0.00    +0.000 A 
ATOM      6  C   UNL     1      -2.622  11.647  18.882  0.00  0.00    +0.000 A 
ATOM      7  C   UNL     1      -3.611  12.325  19.605  0.00  0.00    +0.000 A 
ATOM      8  C   UNL     1      -3.391  12.674  20.935  0.00  0.00    +0.000 A 
ATOM      9  C   UNL     1      -2.175  12.363  21.538  0.00  0.00    +0.000 A 
ATOM     10  C   UNL     1      -1.198  11.671  20.801  0.00  0.00    +0.000 A 
ATOM     11  S   UNL     1       0.308  11.193  21.580  0.00  0.00    +0.000 S 
ATOM     12  O   UNL     1      -0.018  10.902  22.954  0.00  0.00    +0.000 OA
ATOM     13  O   UNL     1       1.297  12.184  21.218  0.00  0.00    +0.000 OA
ENDROOT
BRANCH   3  14
ATOM     14  C   UNL     1       1.592   9.018  18.529  0.00  0.00    +0.000 C 
ATOM     15  O   UNL     1       1.873   9.389  17.390  0.00  0.00    +0.000 OA
ATOM     16  N   UNL     1       2.067   7.892  19.153  0.00  0.00    +0.000 N 
ATOM     17  C   UNL     1       2.740   6.887  18.470  0.00  0.00    +0.000 A 
ATOM     18  C   UNL     1       3.861   7.171  17.705  0.00  0.00    +0.000 A 
ATOM     19  C   UNL     1       4.506   6.119  17.064  0.00  0.00    +0.000 A 
ATOM     20  C   UNL     1       3.978   4.837  17.168  0.00  0.00    +0.000 A 
ATOM     21  C   UNL     1       2.854   4.653  17.955  0.00  0.00    +0.000 A 
ATOM     22  N   UNL     1       2.250   5.644  18.648  0.00  0.00    +0.000 NA
ATOM     23  H   UNL     1       1.570   7.571  19.970  0.00  0.00    +0.000 HD
ENDBRANCH   3  14
BRANCH   4  24
ATOM     24  O   UNL     1      -0.569  10.525  17.375  0.00  0.00    +0.000 OA
ATOM     25  H   UNL     1       0.224  10.930  16.953  0.00  0.00    +0.000 HD
ENDBRANCH   4  24
TORSDOF 2
ENDMDL
MODEL 4
REMARK VINA RESULT:      -7.7      2.614      7.190
REMARK  Name = 
REMARK  3 active torsions:
REMARK  status: ('A' for Active; 'I' for Inactive)
REMARK    1  A    between atoms: C_1  and  N_2
REMARK    2  A    between atoms: C_3  and  C_4
REMARK    3  A    between atoms: C_13  and  O_14
REMARK                            x       y       z     vdW  Elec       q    Type
REMARK                         _______ _______ _______ _____ _____    ______ ____
ROOT
ATOM      1  C   UNL     1       3.077   3.211  16.629  0.00  0.00    +0.000 C 
ATOM      2  N   UNL     1       4.059   3.943  17.471  0.00  0.00    +0.000 N 
ATOM      3  C   UNL     1       4.401   5.297  17.101  0.00  0.00    +0.000 C 
ATOM      4  C   UNL     1       3.937   6.346  17.819  0.00  0.00    +0.000 C 
ATOM      5  C   UNL     1       3.099   6.216  19.029  0.00  0.00    +0.000 A 
ATOM      6  C   UNL     1       2.310   7.279  19.497  0.00  0.00    +0.000 A 
ATOM      7  C   UNL     1       1.463   7.122  20.601  0.00  0.00    +0.000 A 
ATOM      8  C   UNL     1       1.410   5.904  21.274  0.00  0.00    +0.000 A 
ATOM      9  C   UNL     1       2.218   4.849  20.858  0.00  0.00    +0.000 A 
ATOM     10  C   UNL     1       3.053   5.021  19.740  0.00  0.00    +0.000 A 
ATOM     11  S   UNL     1       4.013   3.667  19.149  0.00  0.00    +0.000 S 
ATOM     12  O   UNL     1       3.234   2.478  19.396  0.00  0.00    +0.000 OA
ATOM     13  O   UNL     1       5.346   3.836  19.682  0.00  0.00    +0.000 OA
ENDROOT
BRANCH   3  14
ATOM     14  C   UNL     1       5.247   5.526  15.878  0.00  0.00    +0.000 C 
ATOM     15  O   UNL     1       5.355   6.655  15.402  0.00  0.00    +0.000 OA
ATOM     16  N   UNL     1       5.797   4.377  15.367  0.00  0.00    +0.000 N 
ATOM     17  C   UNL     1       6.345   4.314  14.092  0.00  0.00    +0.000 A 
ATOM     18  C   UNL     1       7.338   5.197  13.697  0.00  0.00    +0.000 A 
ATOM     19  C   UNL     1       7.864   5.068  12.417  0.00  0.00    +0.000 A 
ATOM     20  C   UNL     1       7.343   4.103  11.564  0.00  0.00    +0.000 A 
ATOM     21  C   UNL     1       6.349   3.268  12.049  0.00  0.00    +0.000 A 
ATOM     22  N   UNL     1       5.871   3.322  13.312  0.00  0.00    +0.000 NA
ATOM     23  H   UNL     1       5.426   3.500  15.698  0.00  0.00    +0.000 HD
ENDBRANCH   3  14
BRANCH   4  24
ATOM     24  O   UNL     1       4.170   7.670  17.464  0.00  0.00    +0.000 OA
ATOM     25  H   UNL     1       4.084   7.762  16.488  0.00  0.00    +0.000 HD
ENDBRANCH   4  24
TORSDOF 2
ENDMDL
MODEL 5
REMARK VINA RESULT:      -7.6      1.314      1.563
REMARK  Name = 
REMARK  3 active torsions:
REMARK  status: ('A' for Active; 'I' for Inactive)
REMARK    1  A    between atoms: C_1  and  N_2
REMARK    2  A    between atoms: C_3  and  C_4
REMARK    3  A    between atoms: C_13  and  O_14
REMARK                            x       y       z     vdW  Elec       q    Type
REMARK                         _______ _______ _______ _____ _____    ______ ____
ROOT
ATOM      1  C   UNL     1       2.747   4.716  20.759  0.00  0.00    +0.000 C 
ATOM      2  N   UNL     1       2.204   5.202  19.464  0.00  0.00    +0.000 N 
ATOM      3  C   UNL     1       2.456   6.576  19.089  0.00  0.00    +0.000 C 
ATOM      4  C   UNL     1       3.350   6.872  18.118  0.00  0.00    +0.000 C 
ATOM      5  C   UNL     1       4.100   5.860  17.346  0.00  0.00    +0.000 A 
ATOM      6  C   UNL     1       5.285   6.181  16.664  0.00  0.00    +0.000 A 
ATOM      7  C   UNL     1       6.027   5.199  15.996  0.00  0.00    +0.000 A 
ATOM      8  C   UNL     1       5.583   3.879  15.977  0.00  0.00    +0.000 A 
ATOM      9  C   UNL     1       4.387   3.544  16.607  0.00  0.00    +0.000 A 
ATOM     10  C   UNL     1       3.661   4.541  17.282  0.00  0.00    +0.000 A 
ATOM     11  S   UNL     1       2.194   4.112  18.158  0.00  0.00    +0.000 S 
ATOM     12  O   UNL     1       2.402   2.781  18.673  0.00  0.00    +0.000 OA
ATOM     13  O   UNL     1       1.082   4.436  17.294  0.00  0.00    +0.000 OA
ENDROOT
BRANCH   3  14
ATOM     14  C   UNL     1       1.740   7.675  19.827  0.00  0.00    +0.000 C 
ATOM     15  O   UNL     1       1.373   7.503  20.989  0.00  0.00    +0.000 OA
ATOM     16  N   UNL     1       1.517   8.794  19.065  0.00  0.00    +0.000 N 
ATOM     17  C   UNL     1       0.619   9.785  19.439  0.00  0.00    +0.000 A 
ATOM     18  C   UNL     1       0.717  10.408  20.673  0.00  0.00    +0.000 A 
ATOM     19  C   UNL     1      -0.197  11.410  20.981  0.00  0.00    +0.000 A 
ATOM     20  C   UNL     1      -1.201  11.714  20.069  0.00  0.00    +0.000 A 
ATOM     21  C   UNL     1      -1.217  11.035  18.862  0.00  0.00    +0.000 A 
ATOM     22  N   UNL     1      -0.299  10.109  18.507  0.00  0.00    +0.000 NA
ATOM     23  H   UNL     1       1.641   8.707  18.068  0.00  0.00    +0.000 HD
ENDBRANCH   3  14
BRANCH   4  24
ATOM     24  O   UNL     1       3.689   8.175  17.771  0.00  0.00    +0.000 OA
ATOM     25  H   UNL     1       2.897   8.752  17.870  0.00  0.00    +0.000 HD
ENDBRANCH   4  24
TORSDOF 2
ENDMDL
MODEL 6
REMARK VINA RESULT:      -7.6      3.177      7.291
REMARK  Name = 
REMARK  3 active torsions:
REMARK  status: ('A' for Active; 'I' for Inactive)
REMARK    1  A    between atoms: C_1  and  N_2
REMARK    2  A    between atoms: C_3  and  C_4
REMARK    3  A    between atoms: C_13  and  O_14
REMARK                            x       y       z     vdW  Elec       q    Type
REMARK                         _______ _______ _______ _____ _____    ______ ____
ROOT
ATOM      1  C   UNL     1       5.439   5.735  19.268  0.00  0.00    +0.000 C 
ATOM      2  N   UNL     1       4.259   5.923  18.384  0.00  0.00    +0.000 N 
ATOM      3  C   UNL     1       4.172   5.124  17.183  0.00  0.00    +0.000 C 
ATOM      4  C   UNL     1       3.294   4.097  17.100  0.00  0.00    +0.000 C 
ATOM      5  C   UNL     1       2.347   3.729  18.172  0.00  0.00    +0.000 A 
ATOM      6  C   UNL     1       1.762   2.454  18.234  0.00  0.00    +0.000 A 
ATOM      7  C   UNL     1       0.924   2.091  19.295  0.00  0.00    +0.000 A 
ATOM      8  C   UNL     1       0.633   3.007  20.302  0.00  0.00    +0.000 A 
ATOM      9  C   UNL     1       1.164   4.293  20.239  0.00  0.00    +0.000 A 
ATOM     10  C   UNL     1       2.013   4.636  19.173  0.00  0.00    +0.000 A 
ATOM     11  S   UNL     1       2.761   6.231  19.130  0.00  0.00    +0.000 S 
ATOM     12  O   UNL     1       3.002   6.605  20.502  0.00  0.00    +0.000 OA
ATOM     13  O   UNL     1       1.961   7.043  18.241  0.00  0.00    +0.000 OA
ENDROOT
BRANCH   3  14
ATOM     14  C   UNL     1       5.103   5.424  16.039  0.00  0.00    +0.000 C 
ATOM     15  O   UNL     1       5.267   6.584  15.663  0.00  0.00    +0.000 OA
ATOM     16  N   UNL     1       5.660   4.304  15.475  0.00  0.00    +0.000 N 
ATOM     17  C   UNL     1       6.291   4.326  14.237  0.00  0.00    +0.000 A 
ATOM     18  C   UNL     1       7.328   5.210  13.980  0.00  0.00    +0.000 A 
ATOM     19  C   UNL     1       7.935   5.167  12.730  0.00  0.00    +0.000 A 
ATOM     20  C   UNL     1       7.451   4.286  11.771  0.00  0.00    +0.000 A 
ATOM     21  C   UNL     1       6.409   3.443  12.122  0.00  0.00    +0.000 A 
ATOM     22  N   UNL     1       5.849   3.411  13.352  0.00  0.00    +0.000 NA
ATOM     23  H   UNL     1       5.250   3.414  15.710  0.00  0.00    +0.000 HD
ENDBRANCH   3  14
BRANCH   4  24
ATOM     24  O   UNL     1       3.221   3.249  16.001  0.00  0.00    +0.000 OA
ATOM     25  H   UNL     1       2.547   2.552  16.175  0.00  0.00    +0.000 HD
ENDBRANCH   4  24
TORSDOF 2
ENDMDL
MODEL 7
REMARK VINA RESULT:      -7.2      3.767      5.053
REMARK  Name = 
REMARK  3 active torsions:
REMARK  status: ('A' for Active; 'I' for Inactive)
REMARK    1  A    between atoms: C_1  and  N_2
REMARK    2  A    between atoms: C_3  and  C_4
REMARK    3  A    between atoms: C_13  and  O_14
REMARK                            x       y       z     vdW  Elec       q    Type
REMARK                         _______ _______ _______ _____ _____    ______ ____
ROOT
ATOM      1  C   UNL     1       5.117   7.452  16.878  0.00  0.00    +0.000 C 
ATOM      2  N   UNL     1       5.584   6.052  17.058  0.00  0.00    +0.000 N 
ATOM      3  C   UNL     1       4.638   4.982  16.835  0.00  0.00    +0.000 C 
ATOM      4  C   UNL     1       4.719   4.211  15.727  0.00  0.00    +0.000 C 
ATOM      5  C   UNL     1       5.763   4.354  14.692  0.00  0.00    +0.000 A 
ATOM      6  C   UNL     1       5.590   3.846  13.394  0.00  0.00    +0.000 A 
ATOM      7  C   UNL     1       6.554   4.052  12.400  0.00  0.00    +0.000 A 
ATOM      8  C   UNL     1       7.724   4.749  12.694  0.00  0.00    +0.000 A 
ATOM      9  C   UNL     1       7.939   5.222  13.985  0.00  0.00    +0.000 A 
ATOM     10  C   UNL     1       6.955   5.016  14.967  0.00  0.00    +0.000 A 
ATOM     11  S   UNL     1       7.176   5.689  16.581  0.00  0.00    +0.000 S 
ATOM     12  O   UNL     1       7.897   6.927  16.411  0.00  0.00    +0.000 OA
ATOM     13  O   UNL     1       7.675   4.618  17.414  0.00  0.00    +0.000 OA
ENDROOT
BRANCH   3  14
ATOM     14  C   UNL     1       3.536   4.766  17.836  0.00  0.00    +0.000 C 
ATOM     15  O   UNL     1       2.779   5.689  18.133  0.00  0.00    +0.000 OA
ATOM     16  N   UNL     1       3.524   3.505  18.378  0.00  0.00    +0.000 N 
ATOM     17  C   UNL     1       2.804   3.190  19.523  0.00  0.00    +0.000 A 
ATOM     18  C   UNL     1       1.444   3.449  19.605  0.00  0.00    +0.000 A 
ATOM     19  C   UNL     1       0.773   3.089  20.768  0.00  0.00    +0.000 A 
ATOM     20  C   UNL     1       1.492   2.537  21.822  0.00  0.00    +0.000 A 
ATOM     21  C   UNL     1       2.849   2.319  21.646  0.00  0.00    +0.000 A 
ATOM     22  N   UNL     1       3.512   2.590  20.500  0.00  0.00    +0.000 NA
ATOM     23  H   UNL     1       4.344   2.934  18.239  0.00  0.00    +0.000 HD
ENDBRANCH   3  14
BRANCH   4  24
ATOM     24  O   UNL     1       3.792   3.220  15.424  0.00  0.00    +0.000 OA
ATOM     25  H   UNL     1       3.499   3.326  14.489  0.00  0.00    +0.000 HD
ENDBRANCH   4  24
TORSDOF 2
ENDMDL
MODEL 8
REMARK VINA RESULT:      -7.2      1.300      1.500
REMARK  Name = 
REMARK  3 active torsions:
REMARK  status: ('A' for Active; 'I' for Inactive)
REMARK    1  A    between atoms: C_1  and  N_2
REMARK    2  A    between atoms: C_3  and  C_4
REMARK    3  A    between atoms: C_13  and  O_14
REMARK                            x       y       z     vdW  Elec       q    Type
REMARK                         _______ _______ _______ _____ _____    ______ ____
ROOT
ATOM      1  C   UNL     1       2.717   4.315  21.260  0.00  0.00    +0.000 C 
ATOM      2  N   UNL     1       2.008   4.794  20.045  0.00  0.00    +0.000 N 
ATOM      3  C   UNL     1       1.948   6.219  19.806  0.00  0.00    +0.000 C 
ATOM      4  C   UNL     1       2.702   6.787  18.836  0.00  0.00    +0.000 C 
ATOM      5  C   UNL     1       3.596   6.033  17.934  0.00  0.00    +0.000 A 
ATOM      6  C   UNL     1       4.646   6.660  17.243  0.00  0.00    +0.000 A 
ATOM      7  C   UNL     1       5.533   5.924  16.449  0.00  0.00    +0.000 A 
ATOM      8  C   UNL     1       5.371   4.548  16.310  0.00  0.00    +0.000 A 
ATOM      9  C   UNL     1       4.311   3.910  16.948  0.00  0.00    +0.000 A 
ATOM     10  C   UNL     1       3.437   4.663  17.750  0.00  0.00    +0.000 A 
ATOM     11  S   UNL     1       2.145   3.853  18.634  0.00  0.00    +0.000 S 
ATOM     12  O   UNL     1       2.654   2.554  18.999  0.00  0.00    +0.000 OA
ATOM     13  O   UNL     1       0.940   4.015  17.852  0.00  0.00    +0.000 OA
ENDROOT
BRANCH   3  14
ATOM     14  C   UNL     1       1.067   7.067  20.681  0.00  0.00    +0.000 C 
ATOM     15  O   UNL     1      -0.037   6.654  21.034  0.00  0.00    +0.000 OA
ATOM     16  N   UNL     1       1.597   8.301  20.965  0.00  0.00    +0.000 N 
ATOM     17  C   UNL     1       0.836   9.340  21.485  0.00  0.00    +0.000 A 
ATOM     18  C   UNL     1       0.100   9.173  22.648  0.00  0.00    +0.000 A 
ATOM     19  C   UNL     1      -0.623  10.257  23.132  0.00  0.00    +0.000 A 
ATOM     20  C   UNL     1      -0.627  11.445  22.411  0.00  0.00    +0.000 A 
ATOM     21  C   UNL     1       0.138  11.515  21.259  0.00  0.00    +0.000 A 
ATOM     22  N   UNL     1       0.908  10.501  20.805  0.00  0.00    +0.000 NA
ATOM     23  H   UNL     1       2.383   8.605  20.411  0.00  0.00    +0.000 HD
ENDBRANCH   3  14
BRANCH   4  24
ATOM     24  O   UNL     1       2.743   8.158  18.613  0.00  0.00    +0.000 OA
ATOM     25  H   UNL     1       1.939   8.573  19.003  0.00  0.00    +0.000 HD
ENDBRANCH   4  24
TORSDOF 2
ENDMDL
MODEL 9
REMARK VINA RESULT:      -7.1      3.332      7.909
REMARK  Name = 
REMARK  3 active torsions:
REMARK  status: ('A' for Active; 'I' for Inactive)
REMARK    1  A    between atoms: C_1  and  N_2
REMARK    2  A    between atoms: C_3  and  C_4
REMARK    3  A    between atoms: C_13  and  O_14
REMARK                            x       y       z     vdW  Elec       q    Type
REMARK                         _______ _______ _______ _____ _____    ______ ____
ROOT
ATOM      1  C   UNL     1       0.105   8.433  21.966  0.00  0.00    +0.000 C 
ATOM      2  N   UNL     1       0.680   9.539  21.155  0.00  0.00    +0.000 N 
ATOM      3  C   UNL     1       0.801   9.347  19.727  0.00  0.00    +0.000 C 
ATOM      4  C   UNL     1      -0.033   9.984  18.873  0.00  0.00    +0.000 C 
ATOM      5  C   UNL     1      -1.086  10.930  19.294  0.00  0.00    +0.000 A 
ATOM      6  C   UNL     1      -2.173  11.242  18.461  0.00  0.00    +0.000 A 
ATOM      7  C   UNL     1      -3.203  12.083  18.899  0.00  0.00    +0.000 A 
ATOM      8  C   UNL     1      -3.152  12.649  20.171  0.00  0.00    +0.000 A 
ATOM      9  C   UNL     1      -2.062  12.391  20.997  0.00  0.00    +0.000 A 
ATOM     10  C   UNL     1      -1.043  11.536  20.546  0.00  0.00    +0.000 A 
ATOM     11  S   UNL     1       0.297  11.131  21.616  0.00  0.00    +0.000 S 
ATOM     12  O   UNL     1      -0.245  11.101  22.953  0.00  0.00    +0.000 OA
ATOM     13  O   UNL     1       1.397  11.995  21.253  0.00  0.00    +0.000 OA
ENDROOT
BRANCH   3  14
ATOM     14  C   UNL     1       1.844   8.396  19.207  0.00  0.00    +0.000 C 
ATOM     15  O   UNL     1       2.380   8.599  18.118  0.00  0.00    +0.000 OA
ATOM     16  N   UNL     1       2.062   7.316  20.025  0.00  0.00    +0.000 N 
ATOM     17  C   UNL     1       2.739   6.180  19.601  0.00  0.00    +0.000 A 
ATOM     18  C   UNL     1       4.011   6.269  19.056  0.00  0.00    +0.000 A 
ATOM     19  C   UNL     1       4.647   5.095  18.671  0.00  0.00    +0.000 A 
ATOM     20  C   UNL     1       3.972   3.886  18.794  0.00  0.00    +0.000 A 
ATOM     21  C   UNL     1       2.702   3.899  19.349  0.00  0.00    +0.000 A 
ATOM     22  N   UNL     1       2.089   5.016  19.799  0.00  0.00    +0.000 NA
ATOM     23  H   UNL     1       1.384   7.142  20.751  0.00  0.00    +0.000 HD
ENDBRANCH   3  14
BRANCH   4  24
ATOM     24  O   UNL     1      -0.012   9.777  17.498  0.00  0.00    +0.000 OA
ATOM     25  H   UNL     1      -0.763  10.263  17.087  0.00  0.00    +0.000 HD
ENDBRANCH   4  24
TORSDOF 2
ENDMDL
