MODEL 1
REMARK VINA RESULT:      -6.9      0.000      0.000
REMARK  Name = 
REMARK  8 active torsions:
REMARK  status: ('A' for Active; 'I' for Inactive)
REMARK    1  A    between atoms: C_1  and  C_2
REMARK    2  A    between atoms: C_2  and  C_3
REMARK    3  A    between atoms: C_2  and  N_10
REMARK    4  A    between atoms: C_3  and  C_4
REMARK    5  A    between atoms: N_10  and  C_11
REMARK    6  A    between atoms: N_10  and  C_12
REMARK    7  A    between atoms: C_12  and  C_13
REMARK    8  A    between atoms: C_13  and  C_14
REMARK                            x       y       z     vdW  Elec       q    Type
REMARK                         _______ _______ _______ _____ _____    ______ ____
ROOT
ATOM      1  N   UNL     1       2.972   3.117  18.992  0.00  0.00    +0.000 NA
ATOM      2  C   UNL     1       2.514   2.456  17.752  0.00  0.00    +0.000 C 
ENDROOT
BRANCH   1   4
ATOM      3  C   UNL     1       0.957   3.835  20.327  0.00  0.00    +0.000 C 
ATOM      4  C   UNL     1       2.070   4.263  19.337  0.00  0.00    +0.000 C 
BRANCH   4   5
ATOM      5  C   UNL     1       2.815   5.464  19.974  0.00  0.00    +0.000 C 
BRANCH   5   6
ATOM      6  C   UNL     1       2.365   6.830  19.521  0.00  0.00    +0.000 A 
ATOM      7  C   UNL     1       2.570   7.237  18.199  0.00  0.00    +0.000 A 
ATOM      8  C   UNL     1       2.125   8.486  17.774  0.00  0.00    +0.000 A 
ATOM      9  C   UNL     1       1.468   9.334  18.666  0.00  0.00    +0.000 A 
ATOM     10  C   UNL     1       1.242   8.928  19.977  0.00  0.00    +0.000 A 
ATOM     11  C   UNL     1       1.682   7.677  20.405  0.00  0.00    +0.000 A 
ENDBRANCH   5   6
ENDBRANCH   4   5
ENDBRANCH   1   4
BRANCH   1  12
ATOM     12  C   UNL     1       4.401   3.479  18.800  0.00  0.00    +0.000 C 
BRANCH  12  13
ATOM     13  C   UNL     1       4.848   4.314  17.570  0.00  0.00    +0.000 C 
BRANCH  13  14
ATOM     14  C   UNL     1       5.911   5.359  17.804  0.00  0.00    +0.000 A 
ATOM     15  C   UNL     1       6.891   5.173  18.787  0.00  0.00    +0.000 A 
ATOM     16  C   UNL     1       7.900   6.116  18.973  0.00  0.00    +0.000 A 
ATOM     17  C   UNL     1       7.951   7.256  18.175  0.00  0.00    +0.000 A 
ATOM     18  C   UNL     1       6.985   7.455  17.192  0.00  0.00    +0.000 A 
ATOM     19  C   UNL     1       5.975   6.508  17.001  0.00  0.00    +0.000 A 
ENDBRANCH  13  14
ENDBRANCH  12  13
ENDBRANCH   1  12
TORSDOF 6
ENDMDL
MODEL 2
REMARK VINA RESULT:      -6.8      0.378      1.167
REMARK  Name = 
REMARK  8 active torsions:
REMARK  status: ('A' for Active; 'I' for Inactive)
REMARK    1  A    between atoms: C_1  and  C_2
REMARK    2  A    between atoms: C_2  and  C_3
REMARK    3  A    between atoms: C_2  and  N_10
REMARK    4  A    between atoms: C_3  and  C_4
REMARK    5  A    between atoms: N_10  and  C_11
REMARK    6  A    between atoms: N_10  and  C_12
REMARK    7  A    between atoms: C_12  and  C_13
REMARK    8  A    between atoms: C_13  and  C_14
REMARK                            x       y       z     vdW  Elec       q    Type
REMARK                         _______ _______ _______ _____ _____    ______ ____
ROOT
ATOM      1  N   UNL     1       2.772   3.383  18.643  0.00  0.00    +0.000 NA
ATOM      2  C   UNL     1       2.337   3.567  17.242  0.00  0.00    +0.000 C 
ENDROOT
BRANCH   1   4
ATOM      3  C   UNL     1       1.418   3.455  20.768  0.00  0.00    +0.000 C 
ATOM      4  C   UNL     1       1.966   4.253  19.559  0.00  0.00    +0.000 C 
BRANCH   4   5
ATOM      5  C   UNL     1       2.763   5.457  20.125  0.00  0.00    +0.000 C 
BRANCH   5   6
ATOM      6  C   UNL     1       2.362   6.813  19.602  0.00  0.00    +0.000 A 
ATOM      7  C   UNL     1       2.637   7.168  18.278  0.00  0.00    +0.000 A 
ATOM      8  C   UNL     1       2.237   8.409  17.788  0.00  0.00    +0.000 A 
ATOM      9  C   UNL     1       1.555   9.300  18.616  0.00  0.00    +0.000 A 
ATOM     10  C   UNL     1       1.258   8.946  19.928  0.00  0.00    +0.000 A 
ATOM     11  C   UNL     1       1.653   7.704  20.421  0.00  0.00    +0.000 A 
ENDBRANCH   5   6
ENDBRANCH   4   5
ENDBRANCH   1   4
BRANCH   1  12
ATOM     12  C   UNL     1       4.240   3.616  18.685  0.00  0.00    +0.000 C 
BRANCH  12  13
ATOM     13  C   UNL     1       4.993   4.149  17.437  0.00  0.00    +0.000 C 
BRANCH  13  14
ATOM     14  C   UNL     1       6.010   5.241  17.666  0.00  0.00    +0.000 A 
ATOM     15  C   UNL     1       5.939   6.443  16.950  0.00  0.00    +0.000 A 
ATOM     16  C   UNL     1       6.850   7.470  17.194  0.00  0.00    +0.000 A 
ATOM     17  C   UNL     1       7.841   7.314  18.158  0.00  0.00    +0.000 A 
ATOM     18  C   UNL     1       7.924   6.125  18.879  0.00  0.00    +0.000 A 
ATOM     19  C   UNL     1       7.008   5.097  18.640  0.00  0.00    +0.000 A 
ENDBRANCH  13  14
ENDBRANCH  12  13
ENDBRANCH   1  12
TORSDOF 6
ENDMDL
MODEL 3
REMARK VINA RESULT:      -6.8      2.808      6.501
REMARK  Name = 
REMARK  8 active torsions:
REMARK  status: ('A' for Active; 'I' for Inactive)
REMARK    1  A    between atoms: C_1  and  C_2
REMARK    2  A    between atoms: C_2  and  C_3
REMARK    3  A    between atoms: C_2  and  N_10
REMARK    4  A    between atoms: C_3  and  C_4
REMARK    5  A    between atoms: N_10  and  C_11
REMARK    6  A    between atoms: N_10  and  C_12
REMARK    7  A    between atoms: C_12  and  C_13
REMARK    8  A    between atoms: C_13  and  C_14
REMARK                            x       y       z     vdW  Elec       q    Type
REMARK                         _______ _______ _______ _____ _____    ______ ____
ROOT
ATOM      1  N   UNL     1       5.477   6.247  17.624  0.00  0.00    +0.000 NA
ATOM      2  C   UNL     1       6.546   7.178  17.205  0.00  0.00    +0.000 C 
ENDROOT
BRANCH   1   4
ATOM      3  C   UNL     1       5.460   3.793  18.203  0.00  0.00    +0.000 C 
ATOM      4  C   UNL     1       5.763   4.864  17.125  0.00  0.00    +0.000 C 
BRANCH   4   5
ATOM      5  C   UNL     1       4.952   4.486  15.859  0.00  0.00    +0.000 C 
BRANCH   5   6
ATOM      6  C   UNL     1       5.747   4.355  14.585  0.00  0.00    +0.000 A 
ATOM      7  C   UNL     1       5.260   3.579  13.527  0.00  0.00    +0.000 A 
ATOM      8  C   UNL     1       5.982   3.486  12.339  0.00  0.00    +0.000 A 
ATOM      9  C   UNL     1       7.190   4.168  12.199  0.00  0.00    +0.000 A 
ATOM     10  C   UNL     1       7.669   4.958  13.239  0.00  0.00    +0.000 A 
ATOM     11  C   UNL     1       6.949   5.059  14.427  0.00  0.00    +0.000 A 
ENDBRANCH   5   6
ENDBRANCH   4   5
ENDBRANCH   1   4
BRANCH   1  12
ATOM     12  C   UNL     1       4.184   6.824  17.171  0.00  0.00    +0.000 C 
BRANCH  12  13
ATOM     13  C   UNL     1       3.021   7.047  18.174  0.00  0.00    +0.000 C 
BRANCH  13  14
ATOM     14  C   UNL     1       2.335   5.815  18.710  0.00  0.00    +0.000 A 
ATOM     15  C   UNL     1       1.908   4.802  17.842  0.00  0.00    +0.000 A 
ATOM     16  C   UNL     1       1.315   3.642  18.339  0.00  0.00    +0.000 A 
ATOM     17  C   UNL     1       1.146   3.474  19.710  0.00  0.00    +0.000 A 
ATOM     18  C   UNL     1       1.566   4.470  20.587  0.00  0.00    +0.000 A 
ATOM     19  C   UNL     1       2.165   5.631  20.090  0.00  0.00    +0.000 A 
ENDBRANCH  13  14
ENDBRANCH  12  13
ENDBRANCH   1  12
TORSDOF 6
ENDMDL
MODEL 4
REMARK VINA RESULT:      -6.8      1.692      4.181
REMARK  Name = 
REMARK  8 active torsions:
REMARK  status: ('A' for Active; 'I' for Inactive)
REMARK    1  A    between atoms: C_1  and  C_2
REMARK    2  A    between atoms: C_2  and  C_3
REMARK    3  A    between atoms: C_2  and  N_10
REMARK    4  A    between atoms: C_3  and  C_4
REMARK    5  A    between atoms: N_10  and  C_11
REMARK    6  A    between atoms: N_10  and  C_12
REMARK    7  A    between atoms: C_12  and  C_13
REMARK    8  A    between atoms: C_13  and  C_14
REMARK                            x       y       z     vdW  Elec       q    Type
REMARK                         _______ _______ _______ _____ _____    ______ ____
ROOT
ATOM      1  N   UNL     1       2.184   7.648  18.179  0.00  0.00    +0.000 NA
ATOM      2  C   UNL     1       1.448   8.927  18.098  0.00  0.00    +0.000 C 
ENDROOT
BRANCH   1   4
ATOM      3  C   UNL     1       1.586   8.175  20.571  0.00  0.00    +0.000 C 
ATOM      4  C   UNL     1       2.343   7.226  19.608  0.00  0.00    +0.000 C 
BRANCH   4   5
ATOM      5  C   UNL     1       1.836   5.787  19.886  0.00  0.00    +0.000 C 
BRANCH   5   6
ATOM      6  C   UNL     1       2.519   4.690  19.110  0.00  0.00    +0.000 A 
ATOM      7  C   UNL     1       3.679   4.090  19.611  0.00  0.00    +0.000 A 
ATOM      8  C   UNL     1       4.290   3.054  18.908  0.00  0.00    +0.000 A 
ATOM      9  C   UNL     1       3.746   2.609  17.704  0.00  0.00    +0.000 A 
ATOM     10  C   UNL     1       2.580   3.188  17.210  0.00  0.00    +0.000 A 
ATOM     11  C   UNL     1       1.963   4.221  17.911  0.00  0.00    +0.000 A 
ENDBRANCH   5   6
ENDBRANCH   4   5
ENDBRANCH   1   4
BRANCH   1  12
ATOM     12  C   UNL     1       3.456   7.822  17.430  0.00  0.00    +0.000 C 
BRANCH  12  13
ATOM     13  C   UNL     1       4.792   7.275  18.001  0.00  0.00    +0.000 C 
BRANCH  13  14
ATOM     14  C   UNL     1       5.494   6.209  17.196  0.00  0.00    +0.000 A 
ATOM     15  C   UNL     1       6.632   5.568  17.702  0.00  0.00    +0.000 A 
ATOM     16  C   UNL     1       7.255   4.551  16.980  0.00  0.00    +0.000 A 
ATOM     17  C   UNL     1       6.748   4.155  15.746  0.00  0.00    +0.000 A 
ATOM     18  C   UNL     1       5.616   4.781  15.230  0.00  0.00    +0.000 A 
ATOM     19  C   UNL     1       4.988   5.798  15.955  0.00  0.00    +0.000 A 
ENDBRANCH  13  14
ENDBRANCH  12  13
ENDBRANCH   1  12
TORSDOF 6
ENDMDL
MODEL 5
REMARK VINA RESULT:      -6.7      1.562      5.245
REMARK  Name = 
REMARK  8 active torsions:
REMARK  status: ('A' for Active; 'I' for Inactive)
REMARK    1  A    between atoms: C_1  and  C_2
REMARK    2  A    between atoms: C_2  and  C_3
REMARK    3  A    between atoms: C_2  and  N_10
REMARK    4  A    between atoms: C_3  and  C_4
REMARK    5  A    between atoms: N_10  and  C_11
REMARK    6  A    between atoms: N_10  and  C_12
REMARK    7  A    between atoms: C_12  and  C_13
REMARK    8  A    between atoms: C_13  and  C_14
REMARK                            x       y       z     vdW  Elec       q    Type
REMARK                         _______ _______ _______ _____ _____    ______ ____
ROOT
ATOM      1  N   UNL     1       4.971   4.840  18.188  0.00  0.00    +0.000 NA
ATOM      2  C   UNL     1       6.440   4.775  18.046  0.00  0.00    +0.000 C 
ENDROOT
BRANCH   1   4
ATOM      3  C   UNL     1       5.337   3.623  16.011  0.00  0.00    +0.000 C 
ATOM      4  C   UNL     1       4.303   4.149  17.038  0.00  0.00    +0.000 C 
BRANCH   4   5
ATOM      5  C   UNL     1       3.426   2.945  17.467  0.00  0.00    +0.000 C 
BRANCH   5   6
ATOM      6  C   UNL     1       2.736   3.078  18.800  0.00  0.00    +0.000 A 
ATOM      7  C   UNL     1       3.334   2.567  19.957  0.00  0.00    +0.000 A 
ATOM      8  C   UNL     1       2.709   2.720  21.193  0.00  0.00    +0.000 A 
ATOM      9  C   UNL     1       1.488   3.388  21.281  0.00  0.00    +0.000 A 
ATOM     10  C   UNL     1       0.898   3.917  20.138  0.00  0.00    +0.000 A 
ATOM     11  C   UNL     1       1.520   3.771  18.900  0.00  0.00    +0.000 A 
ENDBRANCH   5   6
ENDBRANCH   4   5
ENDBRANCH   1   4
BRANCH   1  12
ATOM     12  C   UNL     1       4.605   6.271  18.358  0.00  0.00    +0.000 C 
BRANCH  12  13
ATOM     13  C   UNL     1       3.301   6.835  17.733  0.00  0.00    +0.000 C 
BRANCH  13  14
ATOM     14  C   UNL     1       2.450   7.721  18.610  0.00  0.00    +0.000 A 
ATOM     15  C   UNL     1       1.878   8.893  18.098  0.00  0.00    +0.000 A 
ATOM     16  C   UNL     1       1.054   9.688  18.893  0.00  0.00    +0.000 A 
ATOM     17  C   UNL     1       0.785   9.322  20.209  0.00  0.00    +0.000 A 
ATOM     18  C   UNL     1       1.345   8.160  20.733  0.00  0.00    +0.000 A 
ATOM     19  C   UNL     1       2.167   7.360  19.935  0.00  0.00    +0.000 A 
ENDBRANCH  13  14
ENDBRANCH  12  13
ENDBRANCH   1  12
TORSDOF 6
ENDMDL
MODEL 6
REMARK VINA RESULT:      -6.7      0.909      1.919
REMARK  Name = 
REMARK  8 active torsions:
REMARK  status: ('A' for Active; 'I' for Inactive)
REMARK    1  A    between atoms: C_1  and  C_2
REMARK    2  A    between atoms: C_2  and  C_3
REMARK    3  A    between atoms: C_2  and  N_10
REMARK    4  A    between atoms: C_3  and  C_4
REMARK    5  A    between atoms: N_10  and  C_11
REMARK    6  A    between atoms: N_10  and  C_12
REMARK    7  A    between atoms: C_12  and  C_13
REMARK    8  A    between atoms: C_13  and  C_14
REMARK                            x       y       z     vdW  Elec       q    Type
REMARK                         _______ _______ _______ _____ _____    ______ ____
ROOT
ATOM      1  N   UNL     1       2.091   2.974  19.142  0.00  0.00    +0.000 NA
ATOM      2  C   UNL     1       1.511   3.372  17.843  0.00  0.00    +0.000 C 
ENDROOT
BRANCH   1   4
ATOM      3  C   UNL     1       1.373   3.130  21.554  0.00  0.00    +0.000 C 
ATOM      4  C   UNL     1       1.620   3.893  20.228  0.00  0.00    +0.000 C 
BRANCH   4   5
ATOM      5  C   UNL     1       2.612   5.044  20.536  0.00  0.00    +0.000 C 
BRANCH   5   6
ATOM      6  C   UNL     1       2.260   6.387  19.950  0.00  0.00    +0.000 A 
ATOM      7  C   UNL     1       1.592   7.341  20.725  0.00  0.00    +0.000 A 
ATOM      8  C   UNL     1       1.297   8.594  20.191  0.00  0.00    +0.000 A 
ATOM      9  C   UNL     1       1.670   8.902  18.883  0.00  0.00    +0.000 A 
ATOM     10  C   UNL     1       2.353   7.966  18.114  0.00  0.00    +0.000 A 
ATOM     11  C   UNL     1       2.655   6.714  18.644  0.00  0.00    +0.000 A 
ENDBRANCH   5   6
ENDBRANCH   4   5
ENDBRANCH   1   4
BRANCH   1  12
ATOM     12  C   UNL     1       3.566   2.913  18.968  0.00  0.00    +0.000 C 
BRANCH  12  13
ATOM     13  C   UNL     1       4.211   3.177  17.581  0.00  0.00    +0.000 C 
BRANCH  13  14
ATOM     14  C   UNL     1       5.080   4.404  17.454  0.00  0.00    +0.000 A 
ATOM     15  C   UNL     1       4.971   5.243  16.337  0.00  0.00    +0.000 A 
ATOM     16  C   UNL     1       5.740   6.401  16.240  0.00  0.00    +0.000 A 
ATOM     17  C   UNL     1       6.625   6.743  17.258  0.00  0.00    +0.000 A 
ATOM     18  C   UNL     1       6.744   5.921  18.376  0.00  0.00    +0.000 A 
ATOM     19  C   UNL     1       5.970   4.762  18.477  0.00  0.00    +0.000 A 
ENDBRANCH  13  14
ENDBRANCH  12  13
ENDBRANCH   1  12
TORSDOF 6
ENDMDL
MODEL 7
REMARK VINA RESULT:      -6.7      0.953      4.953
REMARK  Name = 
REMARK  8 active torsions:
REMARK  status: ('A' for Active; 'I' for Inactive)
REMARK    1  A    between atoms: C_1  and  C_2
REMARK    2  A    between atoms: C_2  and  C_3
REMARK    3  A    between atoms: C_2  and  N_10
REMARK    4  A    between atoms: C_3  and  C_4
REMARK    5  A    between atoms: N_10  and  C_11
REMARK    6  A    between atoms: N_10  and  C_12
REMARK    7  A    between atoms: C_12  and  C_13
REMARK    8  A    between atoms: C_13  and  C_14
REMARK                            x       y       z     vdW  Elec       q    Type
REMARK                         _______ _______ _______ _____ _____    ______ ____
ROOT
ATOM      1  N   UNL     1       1.741   3.637  18.680  0.00  0.00    +0.000 NA
ATOM      2  C   UNL     1       0.976   2.388  18.876  0.00  0.00    +0.000 C 
ENDROOT
BRANCH   1   4
ATOM      3  C   UNL     1       3.400   1.834  18.083  0.00  0.00    +0.000 C 
ATOM      4  C   UNL     1       3.186   3.330  18.426  0.00  0.00    +0.000 C 
BRANCH   4   5
ATOM      5  C   UNL     1       3.799   4.161  17.269  0.00  0.00    +0.000 C 
BRANCH   5   6
ATOM      6  C   UNL     1       5.121   4.821  17.565  0.00  0.00    +0.000 A 
ATOM      7  C   UNL     1       5.810   5.501  16.556  0.00  0.00    +0.000 A 
ATOM      8  C   UNL     1       7.017   6.138  16.839  0.00  0.00    +0.000 A 
ATOM      9  C   UNL     1       7.539   6.103  18.132  0.00  0.00    +0.000 A 
ATOM     10  C   UNL     1       6.848   5.446  19.146  0.00  0.00    +0.000 A 
ATOM     11  C   UNL     1       5.640   4.811  18.868  0.00  0.00    +0.000 A 
ENDBRANCH   5   6
ENDBRANCH   4   5
ENDBRANCH   1   4
BRANCH   1  12
ATOM     12  C   UNL     1       1.481   4.505  19.859  0.00  0.00    +0.000 C 
BRANCH  12  13
ATOM     13  C   UNL     1       2.460   5.651  20.230  0.00  0.00    +0.000 C 
BRANCH  13  14
ATOM     14  C   UNL     1       2.070   7.047  19.810  0.00  0.00    +0.000 A 
ATOM     15  C   UNL     1       2.365   7.514  18.523  0.00  0.00    +0.000 A 
ATOM     16  C   UNL     1       1.964   8.786  18.119  0.00  0.00    +0.000 A 
ATOM     17  C   UNL     1       1.257   9.609  18.991  0.00  0.00    +0.000 A 
ATOM     18  C   UNL     1       0.954   9.159  20.273  0.00  0.00    +0.000 A 
ATOM     19  C   UNL     1       1.351   7.882  20.678  0.00  0.00    +0.000 A 
ENDBRANCH  13  14
ENDBRANCH  12  13
ENDBRANCH   1  12
TORSDOF 6
ENDMDL
MODEL 8
REMARK VINA RESULT:      -6.6      1.462      5.261
REMARK  Name = 
REMARK  8 active torsions:
REMARK  status: ('A' for Active; 'I' for Inactive)
REMARK    1  A    between atoms: C_1  and  C_2
REMARK    2  A    between atoms: C_2  and  C_3
REMARK    3  A    between atoms: C_2  and  N_10
REMARK    4  A    between atoms: C_3  and  C_4
REMARK    5  A    between atoms: N_10  and  C_11
REMARK    6  A    between atoms: N_10  and  C_12
REMARK    7  A    between atoms: C_12  and  C_13
REMARK    8  A    between atoms: C_13  and  C_14
REMARK                            x       y       z     vdW  Elec       q    Type
REMARK                         _______ _______ _______ _____ _____    ______ ____
ROOT
ATOM      1  N   UNL     1       5.135   5.554  17.697  0.00  0.00    +0.000 NA
ATOM      2  C   UNL     1       6.583   5.724  17.456  0.00  0.00    +0.000 C 
ENDROOT
BRANCH   1   4
ATOM      3  C   UNL     1       5.595   4.056  15.722  0.00  0.00    +0.000 C 
ATOM      4  C   UNL     1       4.581   4.477  16.816  0.00  0.00    +0.000 C 
BRANCH   4   5
ATOM      5  C   UNL     1       4.177   3.194  17.588  0.00  0.00    +0.000 C 
BRANCH   5   6
ATOM      6  C   UNL     1       3.125   3.373  18.652  0.00  0.00    +0.000 A 
ATOM      7  C   UNL     1       1.784   3.552  18.294  0.00  0.00    +0.000 A 
ATOM      8  C   UNL     1       0.809   3.685  19.280  0.00  0.00    +0.000 A 
ATOM      9  C   UNL     1       1.165   3.636  20.627  0.00  0.00    +0.000 A 
ATOM     10  C   UNL     1       2.494   3.438  20.990  0.00  0.00    +0.000 A 
ATOM     11  C   UNL     1       3.472   3.300  20.008  0.00  0.00    +0.000 A 
ENDBRANCH   5   6
ENDBRANCH   4   5
ENDBRANCH   1   4
BRANCH   1  12
ATOM     12  C   UNL     1       4.500   6.889  17.534  0.00  0.00    +0.000 C 
BRANCH  12  13
ATOM     13  C   UNL     1       2.956   7.026  17.451  0.00  0.00    +0.000 C 
BRANCH  13  14
ATOM     14  C   UNL     1       2.270   7.735  18.593  0.00  0.00    +0.000 A 
ATOM     15  C   UNL     1       1.663   8.982  18.396  0.00  0.00    +0.000 A 
ATOM     16  C   UNL     1       0.990   9.618  19.438  0.00  0.00    +0.000 A 
ATOM     17  C   UNL     1       0.907   9.015  20.690  0.00  0.00    +0.000 A 
ATOM     18  C   UNL     1       1.504   7.775  20.902  0.00  0.00    +0.000 A 
ATOM     19  C   UNL     1       2.176   7.135  19.857  0.00  0.00    +0.000 A 
ENDBRANCH  13  14
ENDBRANCH  12  13
ENDBRANCH   1  12
TORSDOF 6
ENDMDL
MODEL 9
REMARK VINA RESULT:      -6.6      2.816      6.764
REMARK  Name = 
REMARK  8 active torsions:
REMARK  status: ('A' for Active; 'I' for Inactive)
REMARK    1  A    between atoms: C_1  and  C_2
REMARK    2  A    between atoms: C_2  and  C_3
REMARK    3  A    between atoms: C_2  and  N_10
REMARK    4  A    between atoms: C_3  and  C_4
REMARK    5  A    between atoms: N_10  and  C_11
REMARK    6  A    between atoms: N_10  and  C_12
REMARK    7  A    between atoms: C_12  and  C_13
REMARK    8  A    between atoms: C_13  and  C_14
REMARK                            x       y       z     vdW  Elec       q    Type
REMARK                         _______ _______ _______ _____ _____    ______ ____
ROOT
ATOM      1  N   UNL     1       5.194   5.657  17.587  0.00  0.00    +0.000 NA
ATOM      2  C   UNL     1       5.683   5.522  18.975  0.00  0.00    +0.000 C 
ENDROOT
BRANCH   1   4
ATOM      3  C   UNL     1       7.224   7.142  17.417  0.00  0.00    +0.000 C 
ATOM      4  C   UNL     1       6.293   6.140  16.690  0.00  0.00    +0.000 C 
BRANCH   4   5
ATOM      5  C   UNL     1       7.186   4.998  16.139  0.00  0.00    +0.000 C 
BRANCH   5   6
ATOM      6  C   UNL     1       6.982   4.648  14.687  0.00  0.00    +0.000 A 
ATOM      7  C   UNL     1       5.954   3.779  14.310  0.00  0.00    +0.000 A 
ATOM      8  C   UNL     1       5.747   3.483  12.964  0.00  0.00    +0.000 A 
ATOM      9  C   UNL     1       6.562   4.056  11.989  0.00  0.00    +0.000 A 
ATOM     10  C   UNL     1       7.574   4.938  12.356  0.00  0.00    +0.000 A 
ATOM     11  C   UNL     1       7.782   5.241  13.699  0.00  0.00    +0.000 A 
ENDBRANCH   5   6
ENDBRANCH   4   5
ENDBRANCH   1   4
BRANCH   1  12
ATOM     12  C   UNL     1       3.987   6.525  17.625  0.00  0.00    +0.000 C 
BRANCH  12  13
ATOM     13  C   UNL     1       3.045   6.516  18.858  0.00  0.00    +0.000 C 
BRANCH  13  14
ATOM     14  C   UNL     1       2.290   5.239  19.133  0.00  0.00    +0.000 A 
ATOM     15  C   UNL     1       1.934   4.888  20.442  0.00  0.00    +0.000 A 
ATOM     16  C   UNL     1       1.196   3.733  20.692  0.00  0.00    +0.000 A 
ATOM     17  C   UNL     1       0.799   2.912  19.641  0.00  0.00    +0.000 A 
ATOM     18  C   UNL     1       1.144   3.247  18.334  0.00  0.00    +0.000 A 
ATOM     19  C   UNL     1       1.879   4.408  18.080  0.00  0.00    +0.000 A 
ENDBRANCH  13  14
ENDBRANCH  12  13
ENDBRANCH   1  12
TORSDOF 6
ENDMDL
