MODEL 1
REMARK VINA RESULT:      -7.6      0.000      0.000
REMARK  Name = 
REMARK  2 active torsions:
REMARK  status: ('A' for Active; 'I' for Inactive)
REMARK    1  A    between atoms: C_2  and  C_19
REMARK    2  A    between atoms: C_9  and  C_10
REMARK                            x       y       z     vdW  Elec       q    Type
REMARK                         _______ _______ _______ _____ _____    ______ ____
ROOT
ATOM      1  O   UNL     1       5.782   5.846  16.873  0.00  0.00    +0.000 OA
ATOM      2  C   UNL     1       5.398   4.768  16.429  0.00  0.00    +0.000 C 
ATOM      3  N   UNL     1       4.355   4.025  16.944  0.00  0.00    +0.000 N 
ATOM      4  C   UNL     1       3.680   4.387  18.091  0.00  0.00    +0.000 A 
ATOM      5  N   UNL     1       3.383   3.427  18.975  0.00  0.00    +0.000 NA
ATOM      6  N   UNL     1       2.825   4.107  19.998  0.00  0.00    +0.000 N 
ATOM      7  C   UNL     1       2.612   5.429  19.733  0.00  0.00    +0.000 A 
ATOM      8  N   UNL     1       1.987   6.311  20.531  0.00  0.00    +0.000 NA
ATOM      9  C   UNL     1       1.858   7.559  19.985  0.00  0.00    +0.000 A 
ATOM     10  C   UNL     1       2.327   7.895  18.704  0.00  0.00    +0.000 A 
ATOM     11 BR   UNL     1       2.129   9.611  17.909  0.00  0.00    +0.000 Br
ATOM     12  C   UNL     1       3.001   6.934  17.935  0.00  0.00    +0.000 A 
ATOM     13  C   UNL     1       3.154   5.651  18.478  0.00  0.00    +0.000 A 
ATOM     14  H   UNL     1       4.370   3.025  16.810  0.00  0.00    +0.000 HD
ATOM     15  H   UNL     1       2.581   3.611  20.846  0.00  0.00    +0.000 HD
ENDROOT
BRANCH   9  16
ATOM     16  C   UNL     1       1.163   8.530  20.863  0.00  0.00    +0.000 A 
ATOM     17  N   UNL     1       1.459   8.789  22.123  0.00  0.00    +0.000 NA
ATOM     18  C   UNL     1       0.559   9.681  22.663  0.00  0.00    +0.000 A 
ATOM     19  C   UNL     1      -0.401  10.150  21.797  0.00  0.00    +0.000 A 
ATOM     20  S   UNL     1      -0.178   9.443  20.253  0.00  0.00    +0.000 S 
ENDBRANCH   9  16
BRANCH   2  21
ATOM     21  C   UNL     1       6.018   4.135  15.184  0.00  0.00    +0.000 C 
ATOM     22  C   UNL     1       5.034   3.974  14.027  0.00  0.00    +0.000 C 
ATOM     23  C   UNL     1       5.934   3.680  12.834  0.00  0.00    +0.000 C 
ATOM     24  C   UNL     1       7.235   4.431  13.108  0.00  0.00    +0.000 C 
ATOM     25  C   UNL     1       7.135   4.953  14.542  0.00  0.00    +0.000 C 
ENDBRANCH   2  21
TORSDOF 2
ENDMDL
MODEL 2
REMARK VINA RESULT:      -7.6      1.200      1.383
REMARK  Name = 
REMARK  2 active torsions:
REMARK  status: ('A' for Active; 'I' for Inactive)
REMARK    1  A    between atoms: C_2  and  C_19
REMARK    2  A    between atoms: C_9  and  C_10
REMARK                            x       y       z     vdW  Elec       q    Type
REMARK                         _______ _______ _______ _____ _____    ______ ____
ROOT
ATOM      1  O   UNL     1       5.378   6.483  17.641  0.00  0.00    +0.000 OA
ATOM      2  C   UNL     1       5.029   5.346  17.334  0.00  0.00    +0.000 C 
ATOM      3  N   UNL     1       3.983   4.656  17.912  0.00  0.00    +0.000 N 
ATOM      4  C   UNL     1       3.263   5.153  18.977  0.00  0.00    +0.000 A 
ATOM      5  N   UNL     1       2.954   4.313  19.973  0.00  0.00    +0.000 NA
ATOM      6  N   UNL     1       2.349   5.111  20.878  0.00  0.00    +0.000 N 
ATOM      7  C   UNL     1       2.120   6.380  20.430  0.00  0.00    +0.000 A 
ATOM      8  N   UNL     1       1.452   7.346  21.082  0.00  0.00    +0.000 NA
ATOM      9  C   UNL     1       1.318   8.507  20.369  0.00  0.00    +0.000 A 
ATOM     10  C   UNL     1       1.824   8.679  19.069  0.00  0.00    +0.000 A 
ATOM     11 BR   UNL     1       1.622  10.267  18.045  0.00  0.00    +0.000 Br
ATOM     12  C   UNL     1       2.543   7.639  18.459  0.00  0.00    +0.000 A 
ATOM     13  C   UNL     1       2.700   6.444  19.174  0.00  0.00    +0.000 A 
ATOM     14  H   UNL     1       4.021   3.647  17.914  0.00  0.00    +0.000 HD
ATOM     15  H   UNL     1       2.085   4.728  21.776  0.00  0.00    +0.000 HD
ENDROOT
BRANCH   9  16
ATOM     16  C   UNL     1       0.576   9.571  21.085  0.00  0.00    +0.000 A 
ATOM     17  N   UNL     1       0.606  10.861  20.808  0.00  0.00    +0.000 NA
ATOM     18  C   UNL     1      -0.134  11.575  21.725  0.00  0.00    +0.000 A 
ATOM     19  C   UNL     1      -0.778  10.823  22.680  0.00  0.00    +0.000 A 
ATOM     20  S   UNL     1      -0.440   9.163  22.429  0.00  0.00    +0.000 S 
ENDBRANCH   9  16
BRANCH   2  21
ATOM     21  C   UNL     1       5.703   4.567  16.207  0.00  0.00    +0.000 C 
ATOM     22  C   UNL     1       4.856   4.473  14.939  0.00  0.00    +0.000 C 
ATOM     23  C   UNL     1       5.847   3.994  13.885  0.00  0.00    +0.000 C 
ATOM     24  C   UNL     1       7.196   4.580  14.295  0.00  0.00    +0.000 C 
ATOM     25  C   UNL     1       6.994   5.191  15.682  0.00  0.00    +0.000 C 
ENDBRANCH   2  21
TORSDOF 2
ENDMDL
MODEL 3
REMARK VINA RESULT:      -7.5      1.492      2.141
REMARK  Name = 
REMARK  2 active torsions:
REMARK  status: ('A' for Active; 'I' for Inactive)
REMARK    1  A    between atoms: C_2  and  C_19
REMARK    2  A    between atoms: C_9  and  C_10
REMARK                            x       y       z     vdW  Elec       q    Type
REMARK                         _______ _______ _______ _____ _____    ______ ____
ROOT
ATOM      1  O   UNL     1       4.918   7.520  17.418  0.00  0.00    +0.000 OA
ATOM      2  C   UNL     1       4.639   6.373  17.080  0.00  0.00    +0.000 C 
ATOM      3  N   UNL     1       3.709   5.566  17.705  0.00  0.00    +0.000 N 
ATOM      4  C   UNL     1       3.047   5.948  18.852  0.00  0.00    +0.000 A 
ATOM      5  N   UNL     1       2.897   5.039  19.823  0.00  0.00    +0.000 NA
ATOM      6  N   UNL     1       2.310   5.736  20.817  0.00  0.00    +0.000 N 
ATOM      7  C   UNL     1       1.938   7.000  20.460  0.00  0.00    +0.000 A 
ATOM      8  N   UNL     1       1.252   7.873  21.217  0.00  0.00    +0.000 NA
ATOM      9  C   UNL     1       0.959   9.049  20.582  0.00  0.00    +0.000 A 
ATOM     10  C   UNL     1       1.333   9.326  19.255  0.00  0.00    +0.000 A 
ATOM     11 BR   UNL     1       0.909  10.937  18.340  0.00  0.00    +0.000 Br
ATOM     12  C   UNL     1       2.079   8.383  18.532  0.00  0.00    +0.000 A 
ATOM     13  C   UNL     1       2.398   7.174  19.165  0.00  0.00    +0.000 A 
ATOM     14  H   UNL     1       3.831   4.566  17.648  0.00  0.00    +0.000 HD
ATOM     15  H   UNL     1       2.160   5.290  21.712  0.00  0.00    +0.000 HD
ENDROOT
BRANCH   9  16
ATOM     16  C   UNL     1       0.197  10.009  21.415  0.00  0.00    +0.000 A 
ATOM     17  N   UNL     1       0.063  11.302  21.185  0.00  0.00    +0.000 NA
ATOM     18  C   UNL     1      -0.638  11.909  22.204  0.00  0.00    +0.000 A 
ATOM     19  C   UNL     1      -1.091  11.067  23.193  0.00  0.00    +0.000 A 
ATOM     20  S   UNL     1      -0.615   9.460  22.844  0.00  0.00    +0.000 S 
ENDBRANCH   9  16
BRANCH   2  21
ATOM     21  C   UNL     1       5.274   5.709  15.859  0.00  0.00    +0.000 C 
ATOM     22  C   UNL     1       6.801   5.715  15.886  0.00  0.00    +0.000 C 
ATOM     23  C   UNL     1       7.179   4.716  14.799  0.00  0.00    +0.000 C 
ATOM     24  C   UNL     1       6.058   3.679  14.789  0.00  0.00    +0.000 C 
ATOM     25  C   UNL     1       4.962   4.222  15.707  0.00  0.00    +0.000 C 
ENDBRANCH   2  21
TORSDOF 2
ENDMDL
MODEL 4
REMARK VINA RESULT:      -7.3      3.444      8.841
REMARK  Name = 
REMARK  2 active torsions:
REMARK  status: ('A' for Active; 'I' for Inactive)
REMARK    1  A    between atoms: C_2  and  C_19
REMARK    2  A    between atoms: C_9  and  C_10
REMARK                            x       y       z     vdW  Elec       q    Type
REMARK                         _______ _______ _______ _____ _____    ______ ____
ROOT
ATOM      1  O   UNL     1       1.247  10.459  22.110  0.00  0.00    +0.000 OA
ATOM      2  C   UNL     1       0.330  11.064  21.561  0.00  0.00    +0.000 C 
ATOM      3  N   UNL     1       0.068  11.046  20.206  0.00  0.00    +0.000 N 
ATOM      4  C   UNL     1       0.882  10.399  19.301  0.00  0.00    +0.000 A 
ATOM      5  N   UNL     1       1.157  11.021  18.148  0.00  0.00    +0.000 NA
ATOM      6  N   UNL     1       2.030  10.188  17.544  0.00  0.00    +0.000 N 
ATOM      7  C   UNL     1       2.194   8.997  18.190  0.00  0.00    +0.000 A 
ATOM      8  N   UNL     1       2.923   7.952  17.763  0.00  0.00    +0.000 NA
ATOM      9  C   UNL     1       2.859   6.858  18.582  0.00  0.00    +0.000 A 
ATOM     10  C   UNL     1       2.098   6.819  19.762  0.00  0.00    +0.000 A 
ATOM     11 BR   UNL     1       1.965   5.301  20.899  0.00  0.00    +0.000 Br
ATOM     12  C   UNL     1       1.386   7.958  20.169  0.00  0.00    +0.000 A 
ATOM     13  C   UNL     1       1.443   9.093  19.350  0.00  0.00    +0.000 A 
ATOM     14  H   UNL     1      -0.397  11.844  19.800  0.00  0.00    +0.000 HD
ATOM     15  H   UNL     1       2.463  10.471  16.675  0.00  0.00    +0.000 HD
ENDROOT
BRANCH   9  16
ATOM     16  C   UNL     1       3.658   5.703  18.107  0.00  0.00    +0.000 A 
ATOM     17  N   UNL     1       3.203   4.675  17.415  0.00  0.00    +0.000 NA
ATOM     18  C   UNL     1       4.197   3.743  17.214  0.00  0.00    +0.000 A 
ATOM     19  C   UNL     1       5.435   4.084  17.708  0.00  0.00    +0.000 A 
ATOM     20  S   UNL     1       5.353   5.619  18.461  0.00  0.00    +0.000 S 
ENDBRANCH   9  16
BRANCH   2  21
ATOM     21  C   UNL     1      -0.686  11.888  22.350  0.00  0.00    +0.000 C 
ATOM     22  C   UNL     1      -1.669  12.654  21.467  0.00  0.00    +0.000 C 
ATOM     23  C   UNL     1      -2.761  13.082  22.439  0.00  0.00    +0.000 C 
ATOM     24  C   UNL     1      -2.821  11.982  23.497  0.00  0.00    +0.000 C 
ATOM     25  C   UNL     1      -1.623  11.069  23.235  0.00  0.00    +0.000 C 
ENDBRANCH   2  21
TORSDOF 2
ENDMDL
MODEL 5
REMARK VINA RESULT:      -7.2      1.012      1.351
REMARK  Name = 
REMARK  2 active torsions:
REMARK  status: ('A' for Active; 'I' for Inactive)
REMARK    1  A    between atoms: C_2  and  C_19
REMARK    2  A    between atoms: C_9  and  C_10
REMARK                            x       y       z     vdW  Elec       q    Type
REMARK                         _______ _______ _______ _____ _____    ______ ____
ROOT
ATOM      1  O   UNL     1       5.410   6.900  16.440  0.00  0.00    +0.000 OA
ATOM      2  C   UNL     1       5.193   5.797  15.946  0.00  0.00    +0.000 C 
ATOM      3  N   UNL     1       4.409   4.814  16.516  0.00  0.00    +0.000 N 
ATOM      4  C   UNL     1       3.848   4.943  17.768  0.00  0.00    +0.000 A 
ATOM      5  N   UNL     1       3.884   3.884  18.586  0.00  0.00    +0.000 NA
ATOM      6  N   UNL     1       3.353   4.357  19.732  0.00  0.00    +0.000 N 
ATOM      7  C   UNL     1       2.839   5.617  19.625  0.00  0.00    +0.000 A 
ATOM      8  N   UNL     1       2.169   6.287  20.578  0.00  0.00    +0.000 NA
ATOM      9  C   UNL     1       1.710   7.512  20.176  0.00  0.00    +0.000 A 
ATOM     10  C   UNL     1       1.910   8.028  18.884  0.00  0.00    +0.000 A 
ATOM     11 BR   UNL     1       1.254   9.710  18.291  0.00  0.00    +0.000 Br
ATOM     12  C   UNL     1       2.649   7.288  17.947  0.00  0.00    +0.000 A 
ATOM     13  C   UNL     1       3.136   6.035  18.339  0.00  0.00    +0.000 A 
ATOM     14  H   UNL     1       4.608   3.852  16.284  0.00  0.00    +0.000 HD
ATOM     15  H   UNL     1       3.341   3.764  20.552  0.00  0.00    +0.000 HD
ENDROOT
BRANCH   9  16
ATOM     16  C   UNL     1       0.966   8.249  21.225  0.00  0.00    +0.000 A 
ATOM     17  N   UNL     1      -0.340   8.224  21.414  0.00  0.00    +0.000 NA
ATOM     18  C   UNL     1      -0.705   9.091  22.421  0.00  0.00    +0.000 A 
ATOM     19  C   UNL     1       0.334   9.745  23.043  0.00  0.00    +0.000 A 
ATOM     20  S   UNL     1       1.819   9.267  22.338  0.00  0.00    +0.000 S 
ENDBRANCH   9  16
BRANCH   2  21
ATOM     21  C   UNL     1       5.743   5.398  14.578  0.00  0.00    +0.000 C 
ATOM     22  C   UNL     1       7.244   5.116  14.581  0.00  0.00    +0.000 C 
ATOM     23  C   UNL     1       7.476   4.411  13.251  0.00  0.00    +0.000 C 
ATOM     24  C   UNL     1       6.188   3.642  12.965  0.00  0.00    +0.000 C 
ATOM     25  C   UNL     1       5.175   4.097  14.017  0.00  0.00    +0.000 C 
ENDBRANCH   2  21
TORSDOF 2
ENDMDL
MODEL 6
REMARK VINA RESULT:      -7.1      3.462      4.863
REMARK  Name = 
REMARK  2 active torsions:
REMARK  status: ('A' for Active; 'I' for Inactive)
REMARK    1  A    between atoms: C_2  and  C_19
REMARK    2  A    between atoms: C_9  and  C_10
REMARK                            x       y       z     vdW  Elec       q    Type
REMARK                         _______ _______ _______ _____ _____    ______ ____
ROOT
ATOM      1  O   UNL     1       1.293   5.702  19.606  0.00  0.00    +0.000 OA
ATOM      2  C   UNL     1       2.394   5.738  19.063  0.00  0.00    +0.000 C 
ATOM      3  N   UNL     1       2.979   6.870  18.534  0.00  0.00    +0.000 N 
ATOM      4  C   UNL     1       2.332   8.087  18.483  0.00  0.00    +0.000 A 
ATOM      5  N   UNL     1       2.444   8.812  17.364  0.00  0.00    +0.000 NA
ATOM      6  N   UNL     1       1.639   9.870  17.595  0.00  0.00    +0.000 N 
ATOM      7  C   UNL     1       1.152   9.925  18.869  0.00  0.00    +0.000 A 
ATOM      8  N   UNL     1       0.411  10.915  19.396  0.00  0.00    +0.000 NA
ATOM      9  C   UNL     1       0.113  10.740  20.720  0.00  0.00    +0.000 A 
ATOM     10  C   UNL     1       0.544   9.632  21.471  0.00  0.00    +0.000 A 
ATOM     11 BR   UNL     1       0.172   9.383  23.318  0.00  0.00    +0.000 Br
ATOM     12  C   UNL     1       1.286   8.617  20.849  0.00  0.00    +0.000 A 
ATOM     13  C   UNL     1       1.596   8.770  19.491  0.00  0.00    +0.000 A 
ATOM     14  H   UNL     1       3.639   6.757  17.779  0.00  0.00    +0.000 HD
ATOM     15  H   UNL     1       1.481  10.541  16.855  0.00  0.00    +0.000 HD
ENDROOT
BRANCH   9  16
ATOM     16  C   UNL     1      -0.699  11.834  21.304  0.00  0.00    +0.000 A 
ATOM     17  N   UNL     1      -0.407  12.523  22.392  0.00  0.00    +0.000 NA
ATOM     18  C   UNL     1      -1.420  13.406  22.697  0.00  0.00    +0.000 A 
ATOM     19  C   UNL     1      -2.469  13.432  21.807  0.00  0.00    +0.000 A 
ATOM     20  S   UNL     1      -2.186  12.305  20.549  0.00  0.00    +0.000 S 
ENDBRANCH   9  16
BRANCH   2  21
ATOM     21  C   UNL     1       3.288   4.504  18.958  0.00  0.00    +0.000 C 
ATOM     22  C   UNL     1       3.061   3.488  20.075  0.00  0.00    +0.000 C 
ATOM     23  C   UNL     1       3.769   2.238  19.569  0.00  0.00    +0.000 C 
ATOM     24  C   UNL     1       3.641   2.283  18.048  0.00  0.00    +0.000 C 
ATOM     25  C   UNL     1       3.063   3.658  17.706  0.00  0.00    +0.000 C 
ENDBRANCH   2  21
TORSDOF 2
ENDMDL
MODEL 7
REMARK VINA RESULT:      -7.1      3.768      4.762
REMARK  Name = 
REMARK  2 active torsions:
REMARK  status: ('A' for Active; 'I' for Inactive)
REMARK    1  A    between atoms: C_2  and  C_19
REMARK    2  A    between atoms: C_9  and  C_10
REMARK                            x       y       z     vdW  Elec       q    Type
REMARK                         _______ _______ _______ _____ _____    ______ ____
ROOT
ATOM      1  O   UNL     1       0.850   5.220  20.139  0.00  0.00    +0.000 OA
ATOM      2  C   UNL     1       1.989   4.999  19.736  0.00  0.00    +0.000 C 
ATOM      3  N   UNL     1       2.827   5.940  19.173  0.00  0.00    +0.000 N 
ATOM      4  C   UNL     1       2.427   7.236  18.922  0.00  0.00    +0.000 A 
ATOM      5  N   UNL     1       2.787   7.790  17.758  0.00  0.00    +0.000 NA
ATOM      6  N   UNL     1       2.175   8.992  17.781  0.00  0.00    +0.000 N 
ATOM      7  C   UNL     1       1.577   9.284  18.973  0.00  0.00    +0.000 A 
ATOM      8  N   UNL     1       0.983  10.444  19.303  0.00  0.00    +0.000 NA
ATOM      9  C   UNL     1       0.522  10.484  20.591  0.00  0.00    +0.000 A 
ATOM     10  C   UNL     1       0.658   9.417  21.495  0.00  0.00    +0.000 A 
ATOM     11 BR   UNL     1       0.056   9.461  23.298  0.00  0.00    +0.000 Br
ATOM     12  C   UNL     1       1.259   8.221  21.074  0.00  0.00    +0.000 A 
ATOM     13  C   UNL     1       1.731   8.153  19.757  0.00  0.00    +0.000 A 
ATOM     14  H   UNL     1       3.529   5.624  18.521  0.00  0.00    +0.000 HD
ATOM     15  H   UNL     1       2.222   9.586  16.964  0.00  0.00    +0.000 HD
ENDROOT
BRANCH   9  16
ATOM     16  C   UNL     1      -0.128  11.765  20.957  0.00  0.00    +0.000 A 
ATOM     17  N   UNL     1       0.391  12.709  21.721  0.00  0.00    +0.000 NA
ATOM     18  C   UNL     1      -0.516  13.726  21.925  0.00  0.00    +0.000 A 
ATOM     19  C   UNL     1      -1.718  13.586  21.270  0.00  0.00    +0.000 A 
ATOM     20  S   UNL     1      -1.719  12.126  20.374  0.00  0.00    +0.000 S 
ENDBRANCH   9  16
BRANCH   2  21
ATOM     21  C   UNL     1       2.643   3.625  19.866  0.00  0.00    +0.000 C 
ATOM     22  C   UNL     1       2.126   2.604  18.854  0.00  0.00    +0.000 C 
ATOM     23  C   UNL     1       3.146   1.476  18.935  0.00  0.00    +0.000 C 
ATOM     24  C   UNL     1       4.474   2.148  19.275  0.00  0.00    +0.000 C 
ATOM     25  C   UNL     1       4.147   3.607  19.598  0.00  0.00    +0.000 C 
ENDBRANCH   2  21
TORSDOF 2
ENDMDL
MODEL 8
REMARK VINA RESULT:      -7.1      3.857      5.484
REMARK  Name = 
REMARK  2 active torsions:
REMARK  status: ('A' for Active; 'I' for Inactive)
REMARK    1  A    between atoms: C_2  and  C_19
REMARK    2  A    between atoms: C_9  and  C_10
REMARK                            x       y       z     vdW  Elec       q    Type
REMARK                         _______ _______ _______ _____ _____    ______ ____
ROOT
ATOM      1  O   UNL     1       0.973   5.892  20.402  0.00  0.00    +0.000 OA
ATOM      2  C   UNL     1       2.137   5.855  20.014  0.00  0.00    +0.000 C 
ATOM      3  N   UNL     1       2.784   6.877  19.348  0.00  0.00    +0.000 N 
ATOM      4  C   UNL     1       2.144   8.038  18.968  0.00  0.00    +0.000 A 
ATOM      5  N   UNL     1       2.403   8.527  17.750  0.00  0.00    +0.000 NA
ATOM      6  N   UNL     1       1.569   9.583  17.654  0.00  0.00    +0.000 N 
ATOM      7  C   UNL     1       0.913   9.877  18.815  0.00  0.00    +0.000 A 
ATOM      8  N   UNL     1       0.102  10.927  19.028  0.00  0.00    +0.000 NA
ATOM      9  C   UNL     1      -0.372  11.011  20.309  0.00  0.00    +0.000 A 
ATOM     10  C   UNL     1      -0.042  10.090  21.318  0.00  0.00    +0.000 A 
ATOM     11 BR   UNL     1      -0.661  10.203  23.112  0.00  0.00    +0.000 Br
ATOM     12  C   UNL     1       0.783   8.995  21.018  0.00  0.00    +0.000 A 
ATOM     13  C   UNL     1       1.274   8.884  19.710  0.00  0.00    +0.000 A 
ATOM     14  H   UNL     1       3.541   6.637  18.726  0.00  0.00    +0.000 HD
ATOM     15  H   UNL     1       1.509  10.088  16.779  0.00  0.00    +0.000 HD
ENDROOT
BRANCH   9  16
ATOM     16  C   UNL     1      -1.261  12.173  20.546  0.00  0.00    +0.000 A 
ATOM     17  N   UNL     1      -2.553  12.229  20.283  0.00  0.00    +0.000 NA
ATOM     18  C   UNL     1      -3.051  13.487  20.547  0.00  0.00    +0.000 A 
ATOM     19  C   UNL     1      -2.146  14.383  21.066  0.00  0.00    +0.000 A 
ATOM     20  S   UNL     1      -0.615  13.633  21.221  0.00  0.00    +0.000 S 
ENDBRANCH   9  16
BRANCH   2  21
ATOM     21  C   UNL     1       3.044   4.654  20.279  0.00  0.00    +0.000 C 
ATOM     22  C   UNL     1       2.368   3.545  21.083  0.00  0.00    +0.000 C 
ATOM     23  C   UNL     1       3.305   2.357  20.907  0.00  0.00    +0.000 C 
ATOM     24  C   UNL     1       3.922   2.525  19.520  0.00  0.00    +0.000 C 
ATOM     25  C   UNL     1       3.498   3.909  19.026  0.00  0.00    +0.000 C 
ENDBRANCH   2  21
TORSDOF 2
ENDMDL
MODEL 9
REMARK VINA RESULT:      -7.0      3.433      5.524
REMARK  Name = 
REMARK  2 active torsions:
REMARK  status: ('A' for Active; 'I' for Inactive)
REMARK    1  A    between atoms: C_2  and  C_19
REMARK    2  A    between atoms: C_9  and  C_10
REMARK                            x       y       z     vdW  Elec       q    Type
REMARK                         _______ _______ _______ _____ _____    ______ ____
ROOT
ATOM      1  O   UNL     1       2.447   8.736  18.100  0.00  0.00    +0.000 OA
ATOM      2  C   UNL     1       2.408   7.667  18.703  0.00  0.00    +0.000 C 
ATOM      3  N   UNL     1       1.824   7.475  19.939  0.00  0.00    +0.000 N 
ATOM      4  C   UNL     1       1.289   8.510  20.677  0.00  0.00    +0.000 A 
ATOM      5  N   UNL     1       1.533   8.535  21.992  0.00  0.00    +0.000 NA
ATOM      6  N   UNL     1       0.966   9.691  22.393  0.00  0.00    +0.000 N 
ATOM      7  C   UNL     1       0.239  10.316  21.422  0.00  0.00    +0.000 A 
ATOM      8  N   UNL     1      -0.504  11.425  21.572  0.00  0.00    +0.000 NA
ATOM      9  C   UNL     1      -1.180  11.798  20.443  0.00  0.00    +0.000 A 
ATOM     10  C   UNL     1      -1.114  11.089  19.231  0.00  0.00    +0.000 A 
ATOM     11 BR   UNL     1      -2.069  11.566  17.659  0.00  0.00    +0.000 Br
ATOM     12  C   UNL     1      -0.290   9.957  19.133  0.00  0.00    +0.000 A 
ATOM     13  C   UNL     1       0.419   9.561  20.275  0.00  0.00    +0.000 A 
ATOM     14  H   UNL     1       2.178   6.732  20.523  0.00  0.00    +0.000 HD
ATOM     15  H   UNL     1       1.083   9.992  23.352  0.00  0.00    +0.000 HD
ENDROOT
BRANCH   9  16
ATOM     16  C   UNL     1      -2.006  13.018  20.611  0.00  0.00    +0.000 A 
ATOM     17  N   UNL     1      -1.574  14.264  20.545  0.00  0.00    +0.000 NA
ATOM     18  C   UNL     1      -2.590  15.149  20.833  0.00  0.00    +0.000 A 
ATOM     19  C   UNL     1      -3.821  14.579  21.068  0.00  0.00    +0.000 A 
ATOM     20  S   UNL     1      -3.702  12.876  20.934  0.00  0.00    +0.000 S 
ENDBRANCH   9  16
BRANCH   2  21
ATOM     21  C   UNL     1       2.973   6.379  18.108  0.00  0.00    +0.000 C 
ATOM     22  C   UNL     1       4.039   5.719  18.981  0.00  0.00    +0.000 C 
ATOM     23  C   UNL     1       4.174   4.324  18.384  0.00  0.00    +0.000 C 
ATOM     24  C   UNL     1       2.790   3.975  17.843  0.00  0.00    +0.000 C 
ATOM     25  C   UNL     1       1.955   5.253  17.941  0.00  0.00    +0.000 C 
ENDBRANCH   2  21
TORSDOF 2
ENDMDL
