MODEL 1
REMARK VINA RESULT:      -6.5      0.000      0.000
REMARK  Name = 
REMARK  3 active torsions:
REMARK  status: ('A' for Active; 'I' for Inactive)
REMARK    1  A    between atoms: C_1  and  N_2
REMARK    2  A    between atoms: N_4  and  C_5
REMARK    3  A    between atoms: C_5  and  C_7
REMARK                            x       y       z     vdW  Elec       q    Type
REMARK                         _______ _______ _______ _____ _____    ______ ____
ROOT
ATOM      1  C   UNL     1       4.300   3.841  16.775  0.00  0.00    +0.000 C 
ATOM      2  N   UNL     1       3.728   4.679  17.808  0.00  0.00    +0.000 N 
ATOM      3  C   UNL     1       3.807   6.064  17.882  0.00  0.00    +0.000 A 
ATOM      4  N   UNL     1       4.532   6.991  17.369  0.00  0.00    +0.000 NA
ATOM      5  S   UNL     1       2.560   6.678  19.039  0.00  0.00    +0.000 S 
ATOM      6  C   UNL     1       2.182   5.022  19.553  0.00  0.00    +0.000 A 
ATOM      7  C   UNL     1       1.317   4.637  20.567  0.00  0.00    +0.000 A 
ATOM      8  C   UNL     1       1.171   3.276  20.834  0.00  0.00    +0.000 A 
ATOM      9  C   UNL     1       1.888   2.333  20.089  0.00  0.00    +0.000 A 
ATOM     10  C   UNL     1       2.754   2.738  19.066  0.00  0.00    +0.000 A 
ATOM     11  C   UNL     1       2.900   4.094  18.784  0.00  0.00    +0.000 A 
ENDROOT
BRANCH   4  12
ATOM     12  C   UNL     1       5.640   6.689  16.624  0.00  0.00    +0.000 C 
ATOM     13  O   UNL     1       5.648   6.527  15.406  0.00  0.00    +0.000 OA
BRANCH  12  14
ATOM     14  C   UNL     1       6.885   6.448  17.452  0.00  0.00    +0.000 C 
ATOM     15 CL   UNL     1       7.809   7.959  17.584  0.00  0.00    +0.000 Cl
ENDBRANCH  12  14
ENDBRANCH   4  12
TORSDOF 2
ENDMDL
MODEL 2
REMARK VINA RESULT:      -6.3      1.594      1.676
REMARK  Name = 
REMARK  3 active torsions:
REMARK  status: ('A' for Active; 'I' for Inactive)
REMARK    1  A    between atoms: C_1  and  N_2
REMARK    2  A    between atoms: N_4  and  C_5
REMARK    3  A    between atoms: C_5  and  C_7
REMARK                            x       y       z     vdW  Elec       q    Type
REMARK                         _______ _______ _______ _____ _____    ______ ____
ROOT
ATOM      1  C   UNL     1       4.785   3.627  16.716  0.00  0.00    +0.000 C 
ATOM      2  N   UNL     1       4.217   4.131  17.948  0.00  0.00    +0.000 N 
ATOM      3  C   UNL     1       4.696   5.195  18.701  0.00  0.00    +0.000 A 
ATOM      4  N   UNL     1       5.794   5.855  18.801  0.00  0.00    +0.000 NA
ATOM      5  S   UNL     1       3.413   5.749  19.849  0.00  0.00    +0.000 S 
ATOM      6  C   UNL     1       2.401   4.351  19.434  0.00  0.00    +0.000 A 
ATOM      7  C   UNL     1       1.194   3.990  20.015  0.00  0.00    +0.000 A 
ATOM      8  C   UNL     1       0.558   2.836  19.560  0.00  0.00    +0.000 A 
ATOM      9  C   UNL     1       1.136   2.069  18.542  0.00  0.00    +0.000 A 
ATOM     10  C   UNL     1       2.353   2.449  17.963  0.00  0.00    +0.000 A 
ATOM     11  C   UNL     1       2.992   3.606  18.402  0.00  0.00    +0.000 A 
ENDROOT
BRANCH   4  12
ATOM     12  C   UNL     1       6.924   5.446  18.145  0.00  0.00    +0.000 C 
ATOM     13  O   UNL     1       7.651   4.522  18.504  0.00  0.00    +0.000 OA
BRANCH  12  14
ATOM     14  C   UNL     1       7.292   6.316  16.962  0.00  0.00    +0.000 C 
ATOM     15 CL   UNL     1       7.760   7.930  17.536  0.00  0.00    +0.000 Cl
ENDBRANCH  12  14
ENDBRANCH   4  12
TORSDOF 2
ENDMDL
MODEL 3
REMARK VINA RESULT:      -6.2      1.237      1.271
REMARK  Name = 
REMARK  3 active torsions:
REMARK  status: ('A' for Active; 'I' for Inactive)
REMARK    1  A    between atoms: C_1  and  N_2
REMARK    2  A    between atoms: N_4  and  C_5
REMARK    3  A    between atoms: C_5  and  C_7
REMARK                            x       y       z     vdW  Elec       q    Type
REMARK                         _______ _______ _______ _____ _____    ______ ____
ROOT
ATOM      1  C   UNL     1       4.494   3.700  16.289  0.00  0.00    +0.000 C 
ATOM      2  N   UNL     1       4.035   4.344  17.501  0.00  0.00    +0.000 N 
ATOM      3  C   UNL     1       4.490   5.552  18.014  0.00  0.00    +0.000 A 
ATOM      4  N   UNL     1       5.515   6.310  17.861  0.00  0.00    +0.000 NA
ATOM      5  S   UNL     1       3.310   6.171  19.237  0.00  0.00    +0.000 S 
ATOM      6  C   UNL     1       2.408   4.644  19.179  0.00  0.00    +0.000 A 
ATOM      7  C   UNL     1       1.329   4.279  19.971  0.00  0.00    +0.000 A 
ATOM      8  C   UNL     1       0.766   3.017  19.785  0.00  0.00    +0.000 A 
ATOM      9  C   UNL     1       1.290   2.149  18.820  0.00  0.00    +0.000 A 
ATOM     10  C   UNL     1       2.377   2.534  18.026  0.00  0.00    +0.000 A 
ATOM     11  C   UNL     1       2.940   3.797  18.196  0.00  0.00    +0.000 A 
ENDROOT
BRANCH   4  12
ATOM     12  C   UNL     1       6.591   5.900  17.120  0.00  0.00    +0.000 C 
ATOM     13  O   UNL     1       6.759   6.144  15.927  0.00  0.00    +0.000 OA
BRANCH  12  14
ATOM     14  C   UNL     1       7.542   4.993  17.874  0.00  0.00    +0.000 C 
ATOM     15 CL   UNL     1       7.959   5.737  19.431  0.00  0.00    +0.000 Cl
ENDBRANCH  12  14
ENDBRANCH   4  12
TORSDOF 2
ENDMDL
MODEL 4
REMARK VINA RESULT:      -6.1      3.231      5.360
REMARK  Name = 
REMARK  3 active torsions:
REMARK  status: ('A' for Active; 'I' for Inactive)
REMARK    1  A    between atoms: C_1  and  N_2
REMARK    2  A    between atoms: N_4  and  C_5
REMARK    3  A    between atoms: C_5  and  C_7
REMARK                            x       y       z     vdW  Elec       q    Type
REMARK                         _______ _______ _______ _____ _____    ______ ____
ROOT
ATOM      1  C   UNL     1       3.709   2.147  18.217  0.00  0.00    +0.000 C 
ATOM      2  N   UNL     1       3.510   3.553  17.935  0.00  0.00    +0.000 N 
ATOM      3  C   UNL     1       2.627   4.406  18.586  0.00  0.00    +0.000 A 
ATOM      4  N   UNL     1       1.591   4.290  19.336  0.00  0.00    +0.000 NA
ATOM      5  S   UNL     1       3.076   6.122  18.232  0.00  0.00    +0.000 S 
ATOM      6  C   UNL     1       4.261   5.592  17.022  0.00  0.00    +0.000 A 
ATOM      7  C   UNL     1       5.011   6.396  16.178  0.00  0.00    +0.000 A 
ATOM      8  C   UNL     1       5.879   5.783  15.275  0.00  0.00    +0.000 A 
ATOM      9  C   UNL     1       5.978   4.388  15.232  0.00  0.00    +0.000 A 
ATOM     10  C   UNL     1       5.216   3.589  16.095  0.00  0.00    +0.000 A 
ATOM     11  C   UNL     1       4.355   4.192  17.008  0.00  0.00    +0.000 A 
ENDROOT
BRANCH   4  12
ATOM     12  C   UNL     1       1.005   3.070  19.544  0.00  0.00    +0.000 C 
ATOM     13  O   UNL     1       0.245   2.510  18.756  0.00  0.00    +0.000 OA
BRANCH  12  14
ATOM     14  C   UNL     1       1.281   2.485  20.913  0.00  0.00    +0.000 C 
ATOM     15 CL   UNL     1       2.232   3.640  21.869  0.00  0.00    +0.000 Cl
ENDBRANCH  12  14
ENDBRANCH   4  12
TORSDOF 2
ENDMDL
MODEL 5
REMARK VINA RESULT:      -6.1      1.678      1.878
REMARK  Name = 
REMARK  3 active torsions:
REMARK  status: ('A' for Active; 'I' for Inactive)
REMARK    1  A    between atoms: C_1  and  N_2
REMARK    2  A    between atoms: N_4  and  C_5
REMARK    3  A    between atoms: C_5  and  C_7
REMARK                            x       y       z     vdW  Elec       q    Type
REMARK                         _______ _______ _______ _____ _____    ______ ____
ROOT
ATOM      1  C   UNL     1       6.015   4.045  16.368  0.00  0.00    +0.000 C 
ATOM      2  N   UNL     1       5.001   4.761  17.112  0.00  0.00    +0.000 N 
ATOM      3  C   UNL     1       4.980   6.126  17.372  0.00  0.00    +0.000 A 
ATOM      4  N   UNL     1       5.821   7.096  17.359  0.00  0.00    +0.000 NA
ATOM      5  S   UNL     1       3.319   6.616  17.891  0.00  0.00    +0.000 S 
ATOM      6  C   UNL     1       2.815   4.917  17.980  0.00  0.00    +0.000 A 
ATOM      7  C   UNL     1       1.599   4.427  18.433  0.00  0.00    +0.000 A 
ATOM      8  C   UNL     1       1.403   3.046  18.445  0.00  0.00    +0.000 A 
ATOM      9  C   UNL     1       2.419   2.188  18.010  0.00  0.00    +0.000 A 
ATOM     10  C   UNL     1       3.640   2.698  17.551  0.00  0.00    +0.000 A 
ATOM     11  C   UNL     1       3.842   4.076  17.525  0.00  0.00    +0.000 A 
ENDROOT
BRANCH   4  12
ATOM     12  C   UNL     1       7.158   6.867  17.177  0.00  0.00    +0.000 C 
ATOM     13  O   UNL     1       7.669   6.470  16.132  0.00  0.00    +0.000 OA
BRANCH  12  14
ATOM     14  C   UNL     1       7.985   7.038  18.434  0.00  0.00    +0.000 C 
ATOM     15 CL   UNL     1       7.818   5.593  19.453  0.00  0.00    +0.000 Cl
ENDBRANCH  12  14
ENDBRANCH   4  12
TORSDOF 2
ENDMDL
MODEL 6
REMARK VINA RESULT:      -6.1      1.955      2.424
REMARK  Name = 
REMARK  3 active torsions:
REMARK  status: ('A' for Active; 'I' for Inactive)
REMARK    1  A    between atoms: C_1  and  N_2
REMARK    2  A    between atoms: N_4  and  C_5
REMARK    3  A    between atoms: C_5  and  C_7
REMARK                            x       y       z     vdW  Elec       q    Type
REMARK                         _______ _______ _______ _____ _____    ______ ____
ROOT
ATOM      1  C   UNL     1       5.782   4.949  19.495  0.00  0.00    +0.000 C 
ATOM      2  N   UNL     1       4.701   4.432  18.682  0.00  0.00    +0.000 N 
ATOM      3  C   UNL     1       4.810   3.928  17.392  0.00  0.00    +0.000 A 
ATOM      4  N   UNL     1       5.662   3.982  16.433  0.00  0.00    +0.000 NA
ATOM      5  S   UNL     1       3.328   2.975  16.989  0.00  0.00    +0.000 S 
ATOM      6  C   UNL     1       2.535   3.526  18.478  0.00  0.00    +0.000 A 
ATOM      7  C   UNL     1       1.228   3.279  18.871  0.00  0.00    +0.000 A 
ATOM      8  C   UNL     1       0.784   3.823  20.076  0.00  0.00    +0.000 A 
ATOM      9  C   UNL     1       1.647   4.600  20.858  0.00  0.00    +0.000 A 
ATOM     10  C   UNL     1       2.965   4.837  20.448  0.00  0.00    +0.000 A 
ATOM     11  C   UNL     1       3.422   4.289  19.252  0.00  0.00    +0.000 A 
ENDROOT
BRANCH   4  12
ATOM     12  C   UNL     1       6.747   4.815  16.499  0.00  0.00    +0.000 C 
ATOM     13  O   UNL     1       7.895   4.458  16.753  0.00  0.00    +0.000 OA
BRANCH  12  14
ATOM     14  C   UNL     1       6.401   6.281  16.341  0.00  0.00    +0.000 C 
ATOM     15 CL   UNL     1       7.498   7.258  17.339  0.00  0.00    +0.000 Cl
ENDBRANCH  12  14
ENDBRANCH   4  12
TORSDOF 2
ENDMDL
MODEL 7
REMARK VINA RESULT:      -6.1      2.162      2.751
REMARK  Name = 
REMARK  3 active torsions:
REMARK  status: ('A' for Active; 'I' for Inactive)
REMARK    1  A    between atoms: C_1  and  N_2
REMARK    2  A    between atoms: N_4  and  C_5
REMARK    3  A    between atoms: C_5  and  C_7
REMARK                            x       y       z     vdW  Elec       q    Type
REMARK                         _______ _______ _______ _____ _____    ______ ____
ROOT
ATOM      1  C   UNL     1       5.602   5.468  18.915  0.00  0.00    +0.000 C 
ATOM      2  N   UNL     1       4.575   4.555  18.458  0.00  0.00    +0.000 N 
ATOM      3  C   UNL     1       4.696   3.628  17.430  0.00  0.00    +0.000 A 
ATOM      4  N   UNL     1       5.480   3.431  16.431  0.00  0.00    +0.000 NA
ATOM      5  S   UNL     1       3.361   2.414  17.552  0.00  0.00    +0.000 S 
ATOM      6  C   UNL     1       2.569   3.372  18.818  0.00  0.00    +0.000 A 
ATOM      7  C   UNL     1       1.338   3.124  19.408  0.00  0.00    +0.000 A 
ATOM      8  C   UNL     1       0.876   4.014  20.377  0.00  0.00    +0.000 A 
ATOM      9  C   UNL     1       1.646   5.127  20.734  0.00  0.00    +0.000 A 
ATOM     10  C   UNL     1       2.889   5.360  20.133  0.00  0.00    +0.000 A 
ATOM     11  C   UNL     1       3.365   4.472  19.171  0.00  0.00    +0.000 A 
ENDROOT
BRANCH   4  12
ATOM     12  C   UNL     1       6.423   4.360  16.082  0.00  0.00    +0.000 C 
ATOM     13  O   UNL     1       7.508   4.506  16.640  0.00  0.00    +0.000 OA
BRANCH  12  14
ATOM     14  C   UNL     1       5.973   5.306  14.989  0.00  0.00    +0.000 C 
ATOM     15 CL   UNL     1       5.076   6.659  15.709  0.00  0.00    +0.000 Cl
ENDBRANCH  12  14
ENDBRANCH   4  12
TORSDOF 2
ENDMDL
MODEL 8
REMARK VINA RESULT:      -6.0      1.899      2.367
REMARK  Name = 
REMARK  3 active torsions:
REMARK  status: ('A' for Active; 'I' for Inactive)
REMARK    1  A    between atoms: C_1  and  N_2
REMARK    2  A    between atoms: N_4  and  C_5
REMARK    3  A    between atoms: C_5  and  C_7
REMARK                            x       y       z     vdW  Elec       q    Type
REMARK                         _______ _______ _______ _____ _____    ______ ____
ROOT
ATOM      1  C   UNL     1       5.125   5.546  18.936  0.00  0.00    +0.000 C 
ATOM      2  N   UNL     1       4.118   4.694  18.339  0.00  0.00    +0.000 N 
ATOM      3  C   UNL     1       4.184   4.095  17.088  0.00  0.00    +0.000 A 
ATOM      4  N   UNL     1       4.859   4.251  16.007  0.00  0.00    +0.000 NA
ATOM      5  S   UNL     1       2.958   2.768  16.989  0.00  0.00    +0.000 S 
ATOM      6  C   UNL     1       2.252   3.268  18.539  0.00  0.00    +0.000 A 
ATOM      7  C   UNL     1       1.117   2.752  19.146  0.00  0.00    +0.000 A 
ATOM      8  C   UNL     1       0.709   3.299  20.363  0.00  0.00    +0.000 A 
ATOM      9  C   UNL     1       1.436   4.344  20.943  0.00  0.00    +0.000 A 
ATOM     10  C   UNL     1       2.583   4.851  20.319  0.00  0.00    +0.000 A 
ATOM     11  C   UNL     1       3.005   4.305  19.109  0.00  0.00    +0.000 A 
ENDROOT
BRANCH   4  12
ATOM     12  C   UNL     1       5.690   5.327  15.844  0.00  0.00    +0.000 C 
ATOM     13  O   UNL     1       5.317   6.489  15.703  0.00  0.00    +0.000 OA
BRANCH  12  14
ATOM     14  C   UNL     1       7.155   4.957  15.735  0.00  0.00    +0.000 C 
ATOM     15 CL   UNL     1       7.759   4.458  17.329  0.00  0.00    +0.000 Cl
ENDBRANCH  12  14
ENDBRANCH   4  12
TORSDOF 2
ENDMDL
MODEL 9
REMARK VINA RESULT:      -6.0      3.469      5.395
REMARK  Name = 
REMARK  3 active torsions:
REMARK  status: ('A' for Active; 'I' for Inactive)
REMARK    1  A    between atoms: C_1  and  N_2
REMARK    2  A    between atoms: N_4  and  C_5
REMARK    3  A    between atoms: C_5  and  C_7
REMARK                            x       y       z     vdW  Elec       q    Type
REMARK                         _______ _______ _______ _____ _____    ______ ____
ROOT
ATOM      1  C   UNL     1       4.432   2.693  19.418  0.00  0.00    +0.000 C 
ATOM      2  N   UNL     1       3.968   4.013  19.043  0.00  0.00    +0.000 N 
ATOM      3  C   UNL     1       3.143   4.839  19.795  0.00  0.00    +0.000 A 
ATOM      4  N   UNL     1       2.336   4.710  20.786  0.00  0.00    +0.000 NA
ATOM      5  S   UNL     1       3.241   6.529  19.159  0.00  0.00    +0.000 S 
ATOM      6  C   UNL     1       4.180   5.977  17.759  0.00  0.00    +0.000 A 
ATOM      7  C   UNL     1       4.590   6.737  16.673  0.00  0.00    +0.000 A 
ATOM      8  C   UNL     1       5.307   6.109  15.656  0.00  0.00    +0.000 A 
ATOM      9  C   UNL     1       5.598   4.743  15.741  0.00  0.00    +0.000 A 
ATOM     10  C   UNL     1       5.181   3.990  16.846  0.00  0.00    +0.000 A 
ATOM     11  C   UNL     1       4.474   4.610  17.873  0.00  0.00    +0.000 A 
ENDROOT
BRANCH   4  12
ATOM     12  C   UNL     1       1.999   3.471  21.263  0.00  0.00    +0.000 C 
ATOM     13  O   UNL     1       2.684   2.804  22.035  0.00  0.00    +0.000 OA
BRANCH  12  14
ATOM     14  C   UNL     1       0.727   2.911  20.663  0.00  0.00    +0.000 C 
ATOM     15 CL   UNL     1       1.094   2.147  19.103  0.00  0.00    +0.000 Cl
ENDBRANCH  12  14
ENDBRANCH   4  12
TORSDOF 2
ENDMDL
