MODEL 1
REMARK VINA RESULT:      -7.0      0.000      0.000
REMARK  Name = 
REMARK  10 active torsions:
REMARK  status: ('A' for Active; 'I' for Inactive)
REMARK    1  A    between atoms: C_1  and  C_2
REMARK    2  A    between atoms: C_2  and  C_3
REMARK    3  A    between atoms: C_3  and  C_4
REMARK    4  A    between atoms: C_4  and  C_5
REMARK    5  A    between atoms: C_5  and  C_6
REMARK    6  A    between atoms: C_6  and  C_7
REMARK    7  A    between atoms: N_9  and  C_10
REMARK    8  A    between atoms: C_10  and  C_11
REMARK    9  A    between atoms: C_15  and  O_16
REMARK   10  A    between atoms: O_16  and  C_17
REMARK                            x       y       z     vdW  Elec       q    Type
REMARK                         _______ _______ _______ _____ _____    ______ ____
ROOT
ATOM      1  C   UNL     1       6.748   4.463  13.907  0.00  0.00    +0.000 A 
ATOM      2  C   UNL     1       6.031   3.953  14.965  0.00  0.00    +0.000 A 
ATOM      3  N   UNL     1       6.500   4.646  16.042  0.00  0.00    +0.000 N 
ATOM      4  N   UNL     1       7.459   5.519  15.684  0.00  0.00    +0.000 NA
ATOM      5  N   UNL     1       7.606   5.427  14.369  0.00  0.00    +0.000 NA
ENDROOT
BRANCH   1   6
ATOM      6  C   UNL     1       6.708   4.101  12.470  0.00  0.00    +0.000 C 
BRANCH   6   7
ATOM      7  C   UNL     1       6.420   2.613  12.274  0.00  0.00    +0.000 C 
BRANCH   7   8
ATOM      8  C   UNL     1       5.317   2.386  11.245  0.00  0.00    +0.000 C 
BRANCH   8   9
ATOM      9  C   UNL     1       4.081   3.217  11.590  0.00  0.00    +0.000 C 
BRANCH   9  11
ATOM     10  C   UNL     1       2.699   3.605   9.533  0.00  0.00    +0.000 C 
ATOM     11  C   UNL     1       3.735   4.198  10.474  0.00  0.00    +0.000 C 
ENDBRANCH   9  11
ENDBRANCH   8   9
ENDBRANCH   7   8
ENDBRANCH   6   7
ENDBRANCH   1   6
BRANCH   3  12
ATOM     12  C   UNL     1       6.123   4.496  17.433  0.00  0.00    +0.000 C 
BRANCH  12  13
ATOM     13  C   UNL     1       4.657   4.781  17.644  0.00  0.00    +0.000 A 
ATOM     14  C   UNL     1       3.688   3.785  17.439  0.00  0.00    +0.000 A 
ATOM     15  C   UNL     1       2.342   4.058  17.673  0.00  0.00    +0.000 A 
ATOM     16  C   UNL     1       1.953   5.325  18.109  0.00  0.00    +0.000 A 
ATOM     17  C   UNL     1       2.900   6.331  18.303  0.00  0.00    +0.000 A 
ATOM     18  C   UNL     1       4.248   6.056  18.062  0.00  0.00    +0.000 A 
BRANCH  17  19
ATOM     19  O   UNL     1       2.400   7.528  18.737  0.00  0.00    +0.000 OA
ATOM     20  C   UNL     1       2.274   8.555  17.758  0.00  0.00    +0.000 C 
ENDBRANCH  17  19
ENDBRANCH  12  13
ENDBRANCH   3  12
TORSDOF 8
ENDMDL
MODEL 2
REMARK VINA RESULT:      -6.9      1.907      2.524
REMARK  Name = 
REMARK  10 active torsions:
REMARK  status: ('A' for Active; 'I' for Inactive)
REMARK    1  A    between atoms: C_1  and  C_2
REMARK    2  A    between atoms: C_2  and  C_3
REMARK    3  A    between atoms: C_3  and  C_4
REMARK    4  A    between atoms: C_4  and  C_5
REMARK    5  A    between atoms: C_5  and  C_6
REMARK    6  A    between atoms: C_6  and  C_7
REMARK    7  A    between atoms: N_9  and  C_10
REMARK    8  A    between atoms: C_10  and  C_11
REMARK    9  A    between atoms: C_15  and  O_16
REMARK   10  A    between atoms: O_16  and  C_17
REMARK                            x       y       z     vdW  Elec       q    Type
REMARK                         _______ _______ _______ _____ _____    ______ ____
ROOT
ATOM      1  C   UNL     1       5.919   4.502  14.795  0.00  0.00    +0.000 A 
ATOM      2  C   UNL     1       5.402   4.228  16.040  0.00  0.00    +0.000 A 
ATOM      3  N   UNL     1       6.400   4.592  16.895  0.00  0.00    +0.000 N 
ATOM      4  N   UNL     1       7.476   5.048  16.228  0.00  0.00    +0.000 NA
ATOM      5  N   UNL     1       7.182   5.014  14.936  0.00  0.00    +0.000 NA
ENDROOT
BRANCH   1   6
ATOM      6  C   UNL     1       5.320   4.303  13.453  0.00  0.00    +0.000 C 
BRANCH   6   7
ATOM      7  C   UNL     1       6.229   3.470  12.551  0.00  0.00    +0.000 C 
BRANCH   7   8
ATOM      8  C   UNL     1       5.426   2.511  11.676  0.00  0.00    +0.000 C 
BRANCH   8   9
ATOM      9  C   UNL     1       4.049   3.096  11.363  0.00  0.00    +0.000 C 
BRANCH   9  11
ATOM     10  C   UNL     1       2.641   4.137   9.567  0.00  0.00    +0.000 C 
ATOM     11  C   UNL     1       4.057   3.881  10.054  0.00  0.00    +0.000 C 
ENDBRANCH   9  11
ENDBRANCH   8   9
ENDBRANCH   7   8
ENDBRANCH   6   7
ENDBRANCH   1   6
BRANCH   3  12
ATOM     12  C   UNL     1       6.419   4.487  18.340  0.00  0.00    +0.000 C 
BRANCH  12  13
ATOM     13  C   UNL     1       5.032   4.606  18.923  0.00  0.00    +0.000 A 
ATOM     14  C   UNL     1       4.382   5.848  18.997  0.00  0.00    +0.000 A 
ATOM     15  C   UNL     1       3.088   5.932  19.506  0.00  0.00    +0.000 A 
ATOM     16  C   UNL     1       2.436   4.780  19.948  0.00  0.00    +0.000 A 
ATOM     17  C   UNL     1       3.073   3.540  19.896  0.00  0.00    +0.000 A 
ATOM     18  C   UNL     1       4.372   3.459  19.390  0.00  0.00    +0.000 A 
BRANCH  17  19
ATOM     19  O   UNL     1       2.332   2.483  20.351  0.00  0.00    +0.000 OA
ATOM     20  C   UNL     1       1.631   2.680  21.575  0.00  0.00    +0.000 C 
ENDBRANCH  17  19
ENDBRANCH  12  13
ENDBRANCH   3  12
TORSDOF 8
ENDMDL
MODEL 3
REMARK VINA RESULT:      -6.7      1.863      2.679
REMARK  Name = 
REMARK  10 active torsions:
REMARK  status: ('A' for Active; 'I' for Inactive)
REMARK    1  A    between atoms: C_1  and  C_2
REMARK    2  A    between atoms: C_2  and  C_3
REMARK    3  A    between atoms: C_3  and  C_4
REMARK    4  A    between atoms: C_4  and  C_5
REMARK    5  A    between atoms: C_5  and  C_6
REMARK    6  A    between atoms: C_6  and  C_7
REMARK    7  A    between atoms: N_9  and  C_10
REMARK    8  A    between atoms: C_10  and  C_11
REMARK    9  A    between atoms: C_15  and  O_16
REMARK   10  A    between atoms: O_16  and  C_17
REMARK                            x       y       z     vdW  Elec       q    Type
REMARK                         _______ _______ _______ _____ _____    ______ ____
ROOT
ATOM      1  C   UNL     1       6.019   5.058  14.981  0.00  0.00    +0.000 A 
ATOM      2  C   UNL     1       5.273   5.260  16.119  0.00  0.00    +0.000 A 
ATOM      3  N   UNL     1       6.210   5.451  17.093  0.00  0.00    +0.000 N 
ATOM      4  N   UNL     1       7.458   5.357  16.599  0.00  0.00    +0.000 NA
ATOM      5  N   UNL     1       7.351   5.134  15.296  0.00  0.00    +0.000 NA
ENDROOT
BRANCH   1   6
ATOM      6  C   UNL     1       5.577   4.775  13.593  0.00  0.00    +0.000 C 
BRANCH   6   7
ATOM      7  C   UNL     1       6.359   3.614  12.982  0.00  0.00    +0.000 C 
BRANCH   7   8
ATOM      8  C   UNL     1       5.536   2.875  11.930  0.00  0.00    +0.000 C 
BRANCH   8   9
ATOM      9  C   UNL     1       4.235   3.625  11.644  0.00  0.00    +0.000 C 
BRANCH   9  11
ATOM     10  C   UNL     1       2.892   4.113   9.582  0.00  0.00    +0.000 C 
ATOM     11  C   UNL     1       3.490   3.023  10.455  0.00  0.00    +0.000 C 
ENDBRANCH   9  11
ENDBRANCH   8   9
ENDBRANCH   7   8
ENDBRANCH   6   7
ENDBRANCH   1   6
BRANCH   3  12
ATOM     12  C   UNL     1       5.993   5.673  18.508  0.00  0.00    +0.000 C 
BRANCH  12  13
ATOM     13  C   UNL     1       4.628   5.195  18.941  0.00  0.00    +0.000 A 
ATOM     14  C   UNL     1       3.632   6.104  19.329  0.00  0.00    +0.000 A 
ATOM     15  C   UNL     1       2.367   5.646  19.692  0.00  0.00    +0.000 A 
ATOM     16  C   UNL     1       2.089   4.278  19.673  0.00  0.00    +0.000 A 
ATOM     17  C   UNL     1       3.072   3.360  19.304  0.00  0.00    +0.000 A 
ATOM     18  C   UNL     1       4.340   3.822  18.946  0.00  0.00    +0.000 A 
BRANCH  17  19
ATOM     19  O   UNL     1       2.680   2.049  19.318  0.00  0.00    +0.000 OA
ATOM     20  C   UNL     1       3.510   1.131  18.612  0.00  0.00    +0.000 C 
ENDBRANCH  17  19
ENDBRANCH  12  13
ENDBRANCH   3  12
TORSDOF 8
ENDMDL
MODEL 4
REMARK VINA RESULT:      -6.5      4.182      6.891
REMARK  Name = 
REMARK  10 active torsions:
REMARK  status: ('A' for Active; 'I' for Inactive)
REMARK    1  A    between atoms: C_1  and  C_2
REMARK    2  A    between atoms: C_2  and  C_3
REMARK    3  A    between atoms: C_3  and  C_4
REMARK    4  A    between atoms: C_4  and  C_5
REMARK    5  A    between atoms: C_5  and  C_6
REMARK    6  A    between atoms: C_6  and  C_7
REMARK    7  A    between atoms: N_9  and  C_10
REMARK    8  A    between atoms: C_10  and  C_11
REMARK    9  A    between atoms: C_15  and  O_16
REMARK   10  A    between atoms: O_16  and  C_17
REMARK                            x       y       z     vdW  Elec       q    Type
REMARK                         _______ _______ _______ _____ _____    ______ ____
ROOT
ATOM      1  C   UNL     1       7.302   6.474  17.623  0.00  0.00    +0.000 A 
ATOM      2  C   UNL     1       6.160   5.814  18.015  0.00  0.00    +0.000 A 
ATOM      3  N   UNL     1       5.703   5.241  16.865  0.00  0.00    +0.000 N 
ATOM      4  N   UNL     1       6.497   5.539  15.820  0.00  0.00    +0.000 NA
ATOM      5  N   UNL     1       7.494   6.281  16.280  0.00  0.00    +0.000 NA
ENDROOT
BRANCH   1   6
ATOM      6  C   UNL     1       8.239   7.305  18.418  0.00  0.00    +0.000 C 
BRANCH   6   7
ATOM      7  C   UNL     1       8.168   8.775  18.011  0.00  0.00    +0.000 C 
BRANCH   7   8
ATOM      8  C   UNL     1       9.054   9.647  18.897  0.00  0.00    +0.000 C 
BRANCH   8   9
ATOM      9  C   UNL     1       9.441  10.933  18.168  0.00  0.00    +0.000 C 
BRANCH   9  11
ATOM     10  C   UNL     1      11.530  11.689  19.334  0.00  0.00    +0.000 C 
ATOM     11  C   UNL     1      10.049  11.957  19.122  0.00  0.00    +0.000 C 
ENDBRANCH   9  11
ENDBRANCH   8   9
ENDBRANCH   7   8
ENDBRANCH   6   7
ENDBRANCH   1   6
BRANCH   3  12
ATOM     12  C   UNL     1       4.503   4.451  16.677  0.00  0.00    +0.000 C 
BRANCH  12  13
ATOM     13  C   UNL     1       3.569   4.574  17.856  0.00  0.00    +0.000 A 
ATOM     14  C   UNL     1       3.099   5.827  18.280  0.00  0.00    +0.000 A 
ATOM     15  C   UNL     1       2.209   5.917  19.348  0.00  0.00    +0.000 A 
ATOM     16  C   UNL     1       1.785   4.759  20.002  0.00  0.00    +0.000 A 
ATOM     17  C   UNL     1       2.254   3.507  19.603  0.00  0.00    +0.000 A 
ATOM     18  C   UNL     1       3.150   3.420  18.536  0.00  0.00    +0.000 A 
BRANCH  17  19
ATOM     19  O   UNL     1       1.763   2.446  20.315  0.00  0.00    +0.000 OA
ATOM     20  C   UNL     1       1.748   2.586  21.733  0.00  0.00    +0.000 C 
ENDBRANCH  17  19
ENDBRANCH  12  13
ENDBRANCH   3  12
TORSDOF 8
ENDMDL
MODEL 5
REMARK VINA RESULT:      -6.5      4.049      6.834
REMARK  Name = 
REMARK  10 active torsions:
REMARK  status: ('A' for Active; 'I' for Inactive)
REMARK    1  A    between atoms: C_1  and  C_2
REMARK    2  A    between atoms: C_2  and  C_3
REMARK    3  A    between atoms: C_3  and  C_4
REMARK    4  A    between atoms: C_4  and  C_5
REMARK    5  A    between atoms: C_5  and  C_6
REMARK    6  A    between atoms: C_6  and  C_7
REMARK    7  A    between atoms: N_9  and  C_10
REMARK    8  A    between atoms: C_10  and  C_11
REMARK    9  A    between atoms: C_15  and  O_16
REMARK   10  A    between atoms: O_16  and  C_17
REMARK                            x       y       z     vdW  Elec       q    Type
REMARK                         _______ _______ _______ _____ _____    ______ ____
ROOT
ATOM      1  C   UNL     1       7.723   6.569  18.297  0.00  0.00    +0.000 A 
ATOM      2  C   UNL     1       6.878   6.330  17.238  0.00  0.00    +0.000 A 
ATOM      3  N   UNL     1       6.507   5.027  17.405  0.00  0.00    +0.000 N 
ATOM      4  N   UNL     1       7.096   4.484  18.486  0.00  0.00    +0.000 NA
ATOM      5  N   UNL     1       7.831   5.430  19.052  0.00  0.00    +0.000 NA
ENDROOT
BRANCH   1   6
ATOM      6  C   UNL     1       8.469   7.799  18.658  0.00  0.00    +0.000 C 
BRANCH   6   7
ATOM      7  C   UNL     1       7.988   9.003  17.850  0.00  0.00    +0.000 C 
BRANCH   7   8
ATOM      8  C   UNL     1       8.865  10.229  18.093  0.00  0.00    +0.000 C 
BRANCH   8   9
ATOM      9  C   UNL     1       9.326  10.278  19.550  0.00  0.00    +0.000 C 
BRANCH   9  11
ATOM     10  C   UNL     1      11.189  11.832  20.187  0.00  0.00    +0.000 C 
ATOM     11  C   UNL     1       9.690  11.698  19.975  0.00  0.00    +0.000 C 
ENDBRANCH   9  11
ENDBRANCH   8   9
ENDBRANCH   7   8
ENDBRANCH   6   7
ENDBRANCH   1   6
BRANCH   3  12
ATOM     12  C   UNL     1       5.648   4.229  16.555  0.00  0.00    +0.000 C 
BRANCH  12  13
ATOM     13  C   UNL     1       4.317   3.955  17.212  0.00  0.00    +0.000 A 
ATOM     14  C   UNL     1       3.701   2.698  17.105  0.00  0.00    +0.000 A 
ATOM     15  C   UNL     1       2.491   2.453  17.749  0.00  0.00    +0.000 A 
ATOM     16  C   UNL     1       1.884   3.461  18.500  0.00  0.00    +0.000 A 
ATOM     17  C   UNL     1       2.475   4.721  18.605  0.00  0.00    +0.000 A 
ATOM     18  C   UNL     1       3.686   4.965  17.954  0.00  0.00    +0.000 A 
BRANCH  17  19
ATOM     19  O   UNL     1       1.791   5.624  19.372  0.00  0.00    +0.000 OA
ATOM     20  C   UNL     1       1.651   5.306  20.754  0.00  0.00    +0.000 C 
ENDBRANCH  17  19
ENDBRANCH  12  13
ENDBRANCH   3  12
TORSDOF 8
ENDMDL
MODEL 6
REMARK VINA RESULT:      -6.5      2.284      3.198
REMARK  Name = 
REMARK  10 active torsions:
REMARK  status: ('A' for Active; 'I' for Inactive)
REMARK    1  A    between atoms: C_1  and  C_2
REMARK    2  A    between atoms: C_2  and  C_3
REMARK    3  A    between atoms: C_3  and  C_4
REMARK    4  A    between atoms: C_4  and  C_5
REMARK    5  A    between atoms: C_5  and  C_6
REMARK    6  A    between atoms: C_6  and  C_7
REMARK    7  A    between atoms: N_9  and  C_10
REMARK    8  A    between atoms: C_10  and  C_11
REMARK    9  A    between atoms: C_15  and  O_16
REMARK   10  A    between atoms: O_16  and  C_17
REMARK                            x       y       z     vdW  Elec       q    Type
REMARK                         _______ _______ _______ _____ _____    ______ ____
ROOT
ATOM      1  C   UNL     1       5.606   5.088  15.921  0.00  0.00    +0.000 A 
ATOM      2  C   UNL     1       4.561   4.847  16.783  0.00  0.00    +0.000 A 
ATOM      3  N   UNL     1       4.114   6.094  17.108  0.00  0.00    +0.000 N 
ATOM      4  N   UNL     1       4.843   7.050  16.504  0.00  0.00    +0.000 NA
ATOM      5  N   UNL     1       5.751   6.441  15.756  0.00  0.00    +0.000 NA
ENDROOT
BRANCH   1   6
ATOM      6  C   UNL     1       6.513   4.133  15.238  0.00  0.00    +0.000 C 
BRANCH   6   7
ATOM      7  C   UNL     1       6.688   4.484  13.762  0.00  0.00    +0.000 C 
BRANCH   7   8
ATOM      8  C   UNL     1       6.168   3.372  12.854  0.00  0.00    +0.000 C 
BRANCH   8   9
ATOM      9  C   UNL     1       5.105   3.913  11.899  0.00  0.00    +0.000 C 
BRANCH   9  11
ATOM     10  C   UNL     1       3.218   3.341  10.349  0.00  0.00    +0.000 C 
ATOM     11  C   UNL     1       4.318   2.785  11.238  0.00  0.00    +0.000 C 
ENDBRANCH   9  11
ENDBRANCH   8   9
ENDBRANCH   7   8
ENDBRANCH   6   7
ENDBRANCH   1   6
BRANCH   3  12
ATOM     12  C   UNL     1       3.044   6.449  18.018  0.00  0.00    +0.000 C 
BRANCH  12  13
ATOM     13  C   UNL     1       2.395   5.224  18.615  0.00  0.00    +0.000 A 
ATOM     14  C   UNL     1       1.590   4.378  17.836  0.00  0.00    +0.000 A 
ATOM     15  C   UNL     1       1.029   3.233  18.396  0.00  0.00    +0.000 A 
ATOM     16  C   UNL     1       1.263   2.925  19.737  0.00  0.00    +0.000 A 
ATOM     17  C   UNL     1       2.049   3.762  20.530  0.00  0.00    +0.000 A 
ATOM     18  C   UNL     1       2.606   4.913  19.967  0.00  0.00    +0.000 A 
BRANCH  17  19
ATOM     19  O   UNL     1       2.213   3.354  21.825  0.00  0.00    +0.000 OA
ATOM     20  C   UNL     1       1.388   2.278  22.261  0.00  0.00    +0.000 C 
ENDBRANCH  17  19
ENDBRANCH  12  13
ENDBRANCH   3  12
TORSDOF 8
ENDMDL
MODEL 7
REMARK VINA RESULT:      -6.4      2.003      2.738
REMARK  Name = 
REMARK  10 active torsions:
REMARK  status: ('A' for Active; 'I' for Inactive)
REMARK    1  A    between atoms: C_1  and  C_2
REMARK    2  A    between atoms: C_2  and  C_3
REMARK    3  A    between atoms: C_3  and  C_4
REMARK    4  A    between atoms: C_4  and  C_5
REMARK    5  A    between atoms: C_5  and  C_6
REMARK    6  A    between atoms: C_6  and  C_7
REMARK    7  A    between atoms: N_9  and  C_10
REMARK    8  A    between atoms: C_10  and  C_11
REMARK    9  A    between atoms: C_15  and  O_16
REMARK   10  A    between atoms: O_16  and  C_17
REMARK                            x       y       z     vdW  Elec       q    Type
REMARK                         _______ _______ _______ _____ _____    ______ ____
ROOT
ATOM      1  C   UNL     1       5.794   5.022  16.541  0.00  0.00    +0.000 A 
ATOM      2  C   UNL     1       4.828   4.241  17.132  0.00  0.00    +0.000 A 
ATOM      3  N   UNL     1       5.369   3.911  18.340  0.00  0.00    +0.000 N 
ATOM      4  N   UNL     1       6.599   4.437  18.486  0.00  0.00    +0.000 NA
ATOM      5  N   UNL     1       6.862   5.138  17.393  0.00  0.00    +0.000 NA
ENDROOT
BRANCH   1   6
ATOM      6  C   UNL     1       5.807   5.668  15.206  0.00  0.00    +0.000 C 
BRANCH   6   7
ATOM      7  C   UNL     1       6.755   4.952  14.246  0.00  0.00    +0.000 C 
BRANCH   7   8
ATOM      8  C   UNL     1       6.247   3.557  13.892  0.00  0.00    +0.000 C 
BRANCH   8   9
ATOM      9  C   UNL     1       5.986   3.446  12.390  0.00  0.00    +0.000 C 
BRANCH   9  11
ATOM     10  C   UNL     1       4.102   3.561  10.738  0.00  0.00    +0.000 C 
ATOM     11  C   UNL     1       4.542   3.048  12.099  0.00  0.00    +0.000 C 
ENDBRANCH   9  11
ENDBRANCH   8   9
ENDBRANCH   7   8
ENDBRANCH   6   7
ENDBRANCH   1   6
BRANCH   3  12
ATOM     12  C   UNL     1       4.802   3.067  19.372  0.00  0.00    +0.000 C 
BRANCH  12  13
ATOM     13  C   UNL     1       3.390   3.477  19.709  0.00  0.00    +0.000 A 
ATOM     14  C   UNL     1       2.332   2.556  19.644  0.00  0.00    +0.000 A 
ATOM     15  C   UNL     1       1.041   2.945  19.994  0.00  0.00    +0.000 A 
ATOM     16  C   UNL     1       0.795   4.256  20.407  0.00  0.00    +0.000 A 
ATOM     17  C   UNL     1       1.831   5.188  20.464  0.00  0.00    +0.000 A 
ATOM     18  C   UNL     1       3.124   4.796  20.108  0.00  0.00    +0.000 A 
BRANCH  17  19
ATOM     19  O   UNL     1       1.470   6.437  20.890  0.00  0.00    +0.000 OA
ATOM     20  C   UNL     1       1.988   7.535  20.145  0.00  0.00    +0.000 C 
ENDBRANCH  17  19
ENDBRANCH  12  13
ENDBRANCH   3  12
TORSDOF 8
ENDMDL
MODEL 8
REMARK VINA RESULT:      -6.4      1.856      2.985
REMARK  Name = 
REMARK  10 active torsions:
REMARK  status: ('A' for Active; 'I' for Inactive)
REMARK    1  A    between atoms: C_1  and  C_2
REMARK    2  A    between atoms: C_2  and  C_3
REMARK    3  A    between atoms: C_3  and  C_4
REMARK    4  A    between atoms: C_4  and  C_5
REMARK    5  A    between atoms: C_5  and  C_6
REMARK    6  A    between atoms: C_6  and  C_7
REMARK    7  A    between atoms: N_9  and  C_10
REMARK    8  A    between atoms: C_10  and  C_11
REMARK    9  A    between atoms: C_15  and  O_16
REMARK   10  A    between atoms: O_16  and  C_17
REMARK                            x       y       z     vdW  Elec       q    Type
REMARK                         _______ _______ _______ _____ _____    ______ ____
ROOT
ATOM      1  C   UNL     1       6.665   4.795  14.732  0.00  0.00    +0.000 A 
ATOM      2  C   UNL     1       5.661   5.518  15.335  0.00  0.00    +0.000 A 
ATOM      3  N   UNL     1       6.191   5.866  16.542  0.00  0.00    +0.000 N 
ATOM      4  N   UNL     1       7.436   5.378  16.691  0.00  0.00    +0.000 NA
ATOM      5  N   UNL     1       7.744   4.733  15.575  0.00  0.00    +0.000 NA
ENDROOT
BRANCH   1   6
ATOM      6  C   UNL     1       6.690   4.126  13.408  0.00  0.00    +0.000 C 
BRANCH   6   7
ATOM      7  C   UNL     1       5.301   3.640  12.999  0.00  0.00    +0.000 C 
BRANCH   7   8
ATOM      8  C   UNL     1       5.315   2.997  11.615  0.00  0.00    +0.000 C 
BRANCH   8   9
ATOM      9  C   UNL     1       6.357   1.880  11.554  0.00  0.00    +0.000 C 
BRANCH   9  11
ATOM     10  C   UNL     1       6.239  -0.622  11.424  0.00  0.00    +0.000 C 
ATOM     11  C   UNL     1       5.852   0.685  10.751  0.00  0.00    +0.000 C 
ENDBRANCH   9  11
ENDBRANCH   8   9
ENDBRANCH   7   8
ENDBRANCH   6   7
ENDBRANCH   1   6
BRANCH   3  12
ATOM     12  C   UNL     1       5.559   6.609  17.613  0.00  0.00    +0.000 C 
BRANCH  12  13
ATOM     13  C   UNL     1       4.355   5.880  18.158  0.00  0.00    +0.000 A 
ATOM     14  C   UNL     1       3.095   6.497  18.206  0.00  0.00    +0.000 A 
ATOM     15  C   UNL     1       1.989   5.795  18.679  0.00  0.00    +0.000 A 
ATOM     16  C   UNL     1       2.132   4.475  19.111  0.00  0.00    +0.000 A 
ATOM     17  C   UNL     1       3.380   3.852  19.084  0.00  0.00    +0.000 A 
ATOM     18  C   UNL     1       4.488   4.560  18.614  0.00  0.00    +0.000 A 
BRANCH  17  19
ATOM     19  O   UNL     1       3.395   2.557  19.526  0.00  0.00    +0.000 OA
ATOM     20  C   UNL     1       3.547   1.549  18.531  0.00  0.00    +0.000 C 
ENDBRANCH  17  19
ENDBRANCH  12  13
ENDBRANCH   3  12
TORSDOF 8
ENDMDL
MODEL 9
REMARK VINA RESULT:      -6.4      3.894      6.707
REMARK  Name = 
REMARK  10 active torsions:
REMARK  status: ('A' for Active; 'I' for Inactive)
REMARK    1  A    between atoms: C_1  and  C_2
REMARK    2  A    between atoms: C_2  and  C_3
REMARK    3  A    between atoms: C_3  and  C_4
REMARK    4  A    between atoms: C_4  and  C_5
REMARK    5  A    between atoms: C_5  and  C_6
REMARK    6  A    between atoms: C_6  and  C_7
REMARK    7  A    between atoms: N_9  and  C_10
REMARK    8  A    between atoms: C_10  and  C_11
REMARK    9  A    between atoms: C_15  and  O_16
REMARK   10  A    between atoms: O_16  and  C_17
REMARK                            x       y       z     vdW  Elec       q    Type
REMARK                         _______ _______ _______ _____ _____    ______ ____
ROOT
ATOM      1  C   UNL     1       1.684   5.195  19.716  0.00  0.00    +0.000 A 
ATOM      2  C   UNL     1       2.287   5.256  18.480  0.00  0.00    +0.000 A 
ATOM      3  N   UNL     1       2.898   6.475  18.476  0.00  0.00    +0.000 N 
ATOM      4  N   UNL     1       2.676   7.139  19.625  0.00  0.00    +0.000 NA
ATOM      5  N   UNL     1       1.946   6.352  20.402  0.00  0.00    +0.000 NA
ENDROOT
BRANCH   1   6
ATOM      6  C   UNL     1       0.847   4.125  20.312  0.00  0.00    +0.000 C 
BRANCH   6   7
ATOM      7  C   UNL     1       1.522   2.759  20.204  0.00  0.00    +0.000 C 
BRANCH   7   8
ATOM      8  C   UNL     1       2.836   2.719  20.978  0.00  0.00    +0.000 C 
BRANCH   8   9
ATOM      9  C   UNL     1       3.995   2.359  20.050  0.00  0.00    +0.000 C 
BRANCH   9  11
ATOM     10  C   UNL     1       4.020   2.563  17.550  0.00  0.00    +0.000 C 
ATOM     11  C   UNL     1       3.498   1.767  18.734  0.00  0.00    +0.000 C 
ENDBRANCH   9  11
ENDBRANCH   8   9
ENDBRANCH   7   8
ENDBRANCH   6   7
ENDBRANCH   1   6
BRANCH   3  12
ATOM     12  C   UNL     1       3.657   7.089  17.405  0.00  0.00    +0.000 C 
BRANCH  12  13
ATOM     13  C   UNL     1       4.861   6.259  17.033  0.00  0.00    +0.000 A 
ATOM     14  C   UNL     1       5.104   5.892  15.699  0.00  0.00    +0.000 A 
ATOM     15  C   UNL     1       6.239   5.156  15.371  0.00  0.00    +0.000 A 
ATOM     16  C   UNL     1       7.138   4.777  16.369  0.00  0.00    +0.000 A 
ATOM     17  C   UNL     1       6.905   5.120  17.701  0.00  0.00    +0.000 A 
ATOM     18  C   UNL     1       5.762   5.854  18.028  0.00  0.00    +0.000 A 
BRANCH  17  19
ATOM     19  O   UNL     1       7.858   4.699  18.588  0.00  0.00    +0.000 OA
ATOM     20  C   UNL     1       8.129   5.564  19.687  0.00  0.00    +0.000 C 
ENDBRANCH  17  19
ENDBRANCH  12  13
ENDBRANCH   3  12
TORSDOF 8
ENDMDL
