MODEL 1
REMARK VINA RESULT:      -7.3      0.000      0.000
REMARK  Name = 
REMARK  5 active torsions:
REMARK  status: ('A' for Active; 'I' for Inactive)
REMARK    1  A    between atoms: C_1  and  O_2
REMARK    2  A    between atoms: O_2  and  C_3
REMARK    3  A    between atoms: C_3  and  C_5
REMARK    4  A    between atoms: C_9  and  N_10
REMARK    5  A    between atoms: C_11  and  C_13
REMARK                            x       y       z     vdW  Elec       q    Type
REMARK                         _______ _______ _______ _____ _____    ______ ____
ROOT
ATOM      1  N   UNL     1       2.572   6.457  20.000  0.00  0.00    +0.000 N 
ATOM      2  C   UNL     1       2.149   7.562  19.262  0.00  0.00    +0.000 C 
ATOM      3  O   UNL     1       2.351   7.701  18.060  0.00  0.00    +0.000 OA
ATOM      4  H   UNL     1       2.234   6.379  20.954  0.00  0.00    +0.000 HD
ENDROOT
BRANCH   2   5
ATOM      5  C   UNL     1       1.402   8.563  20.023  0.00  0.00    +0.000 A 
ATOM      6  C   UNL     1       0.878   8.422  21.299  0.00  0.00    +0.000 A 
ATOM      7  C   UNL     1       0.179   9.589  21.749  0.00  0.00    +0.000 A 
ATOM      8  C   UNL     1       0.196  10.567  20.783  0.00  0.00    +0.000 A 
ATOM      9  S   UNL     1       1.042  10.105  19.382  0.00  0.00    +0.000 S 
ATOM     10  C   UNL     1      -0.450  11.901  20.863  0.00  0.00    +0.000 C 
ATOM     11  C   UNL     1      -1.044  12.210  22.237  0.00  0.00    +0.000 C 
ATOM     12  C   UNL     1      -1.326  11.045  23.197  0.00  0.00    +0.000 C 
ATOM     13  C   UNL     1      -0.479   9.770  23.076  0.00  0.00    +0.000 C 
ENDBRANCH   2   5
BRANCH   1  18
ATOM     14  C   UNL     1       2.895   4.162  19.166  0.00  0.00    +0.000 A 
ATOM     15  S   UNL     1       4.174   3.124  18.647  0.00  0.00    +0.000 S 
ATOM     16  C   UNL     1       5.352   4.320  18.896  0.00  0.00    +0.000 A 
ATOM     17  C   UNL     1       4.802   5.482  19.378  0.00  0.00    +0.000 A 
ATOM     18  C   UNL     1       3.379   5.417  19.530  0.00  0.00    +0.000 A 
BRANCH  14  19
ATOM     19  C   UNL     1       1.555   3.599  19.113  0.00  0.00    +0.000 C 
ATOM     20  O   UNL     1       1.030   3.066  18.142  0.00  0.00    +0.000 OA
BRANCH  19  22
ATOM     21  C   UNL     1       1.353   2.822  21.308  0.00  0.00    +0.000 C 
ATOM     22  O   UNL     1       0.915   3.757  20.314  0.00  0.00    +0.000 OA
ENDBRANCH  19  22
ENDBRANCH  14  19
ENDBRANCH   1  18
TORSDOF 4
ENDMDL
MODEL 2
REMARK VINA RESULT:      -7.2      0.745      1.170
REMARK  Name = 
REMARK  5 active torsions:
REMARK  status: ('A' for Active; 'I' for Inactive)
REMARK    1  A    between atoms: C_1  and  O_2
REMARK    2  A    between atoms: O_2  and  C_3
REMARK    3  A    between atoms: C_3  and  C_5
REMARK    4  A    between atoms: C_9  and  N_10
REMARK    5  A    between atoms: C_11  and  C_13
REMARK                            x       y       z     vdW  Elec       q    Type
REMARK                         _______ _______ _______ _____ _____    ______ ____
ROOT
ATOM      1  N   UNL     1       2.536   6.262  20.296  0.00  0.00    +0.000 N 
ATOM      2  C   UNL     1       2.198   7.349  19.490  0.00  0.00    +0.000 C 
ATOM      3  O   UNL     1       2.498   7.442  18.305  0.00  0.00    +0.000 OA
ATOM      4  H   UNL     1       2.123   6.225  21.223  0.00  0.00    +0.000 HD
ENDROOT
BRANCH   2   5
ATOM      5  C   UNL     1       1.415   8.391  20.156  0.00  0.00    +0.000 A 
ATOM      6  C   UNL     1       0.971   8.391  21.470  0.00  0.00    +0.000 A 
ATOM      7  C   UNL     1       0.208   9.556  21.802  0.00  0.00    +0.000 A 
ATOM      8  C   UNL     1       0.098  10.390  20.714  0.00  0.00    +0.000 A 
ATOM      9  S   UNL     1       0.903   9.800  19.338  0.00  0.00    +0.000 S 
ATOM     10  C   UNL     1      -0.646  11.673  20.656  0.00  0.00    +0.000 C 
ATOM     11  C   UNL     1      -1.190  12.127  22.010  0.00  0.00    +0.000 C 
ATOM     12  C   UNL     1      -1.329  11.088  23.133  0.00  0.00    +0.000 C 
ATOM     13  C   UNL     1      -0.392   9.872  23.131  0.00  0.00    +0.000 C 
ENDBRANCH   2   5
BRANCH   1  18
ATOM     14  C   UNL     1       3.087   3.862  20.248  0.00  0.00    +0.000 A 
ATOM     15  S   UNL     1       4.316   2.811  19.645  0.00  0.00    +0.000 S 
ATOM     16  C   UNL     1       5.190   4.096  18.962  0.00  0.00    +0.000 A 
ATOM     17  C   UNL     1       4.581   5.305  19.194  0.00  0.00    +0.000 A 
ATOM     18  C   UNL     1       3.354   5.191  19.927  0.00  0.00    +0.000 A 
BRANCH  14  19
ATOM     19  C   UNL     1       1.983   3.220  20.946  0.00  0.00    +0.000 C 
ATOM     20  O   UNL     1       2.067   2.532  21.957  0.00  0.00    +0.000 OA
BRANCH  19  22
ATOM     21  C   UNL     1       0.641   2.700  19.105  0.00  0.00    +0.000 C 
ATOM     22  O   UNL     1       0.797   3.465  20.306  0.00  0.00    +0.000 OA
ENDBRANCH  19  22
ENDBRANCH  14  19
ENDBRANCH   1  18
TORSDOF 4
ENDMDL
MODEL 3
REMARK VINA RESULT:      -7.0      1.500      1.959
REMARK  Name = 
REMARK  5 active torsions:
REMARK  status: ('A' for Active; 'I' for Inactive)
REMARK    1  A    between atoms: C_1  and  O_2
REMARK    2  A    between atoms: O_2  and  C_3
REMARK    3  A    between atoms: C_3  and  C_5
REMARK    4  A    between atoms: C_9  and  N_10
REMARK    5  A    between atoms: C_11  and  C_13
REMARK                            x       y       z     vdW  Elec       q    Type
REMARK                         _______ _______ _______ _____ _____    ______ ____
ROOT
ATOM      1  N   UNL     1       2.777   6.958  18.719  0.00  0.00    +0.000 N 
ATOM      2  C   UNL     1       2.218   8.187  18.367  0.00  0.00    +0.000 C 
ATOM      3  O   UNL     1       2.345   8.704  17.263  0.00  0.00    +0.000 OA
ATOM      4  H   UNL     1       2.498   6.559  19.611  0.00  0.00    +0.000 HD
ENDROOT
BRANCH   2   5
ATOM      5  C   UNL     1       1.424   8.826  19.416  0.00  0.00    +0.000 A 
ATOM      6  C   UNL     1       0.693  10.000  19.312  0.00  0.00    +0.000 A 
ATOM      7  C   UNL     1       0.044  10.365  20.535  0.00  0.00    +0.000 A 
ATOM      8  C   UNL     1       0.322   9.450  21.523  0.00  0.00    +0.000 A 
ATOM      9  S   UNL     1       1.319   8.180  20.994  0.00  0.00    +0.000 S 
ATOM     10  C   UNL     1      -0.138   9.505  22.934  0.00  0.00    +0.000 C 
ATOM     11  C   UNL     1      -1.137  10.629  23.208  0.00  0.00    +0.000 C 
ATOM     12  C   UNL     1      -1.218  11.800  22.218  0.00  0.00    +0.000 C 
ATOM     13  C   UNL     1      -0.832  11.554  20.752  0.00  0.00    +0.000 C 
ENDBRANCH   2   5
BRANCH   1  18
ATOM     14  C   UNL     1       3.412   4.876  17.566  0.00  0.00    +0.000 A 
ATOM     15  S   UNL     1       4.705   4.249  16.611  0.00  0.00    +0.000 S 
ATOM     16  C   UNL     1       5.567   5.709  16.677  0.00  0.00    +0.000 A 
ATOM     17  C   UNL     1       4.906   6.656  17.420  0.00  0.00    +0.000 A 
ATOM     18  C   UNL     1       3.649   6.199  17.935  0.00  0.00    +0.000 A 
BRANCH  14  19
ATOM     19  C   UNL     1       2.297   3.971  17.805  0.00  0.00    +0.000 C 
ATOM     20  O   UNL     1       2.077   2.921  17.213  0.00  0.00    +0.000 OA
BRANCH  19  22
ATOM     21  C   UNL     1       1.116   3.462  19.756  0.00  0.00    +0.000 C 
ATOM     22  O   UNL     1       1.480   4.458  18.791  0.00  0.00    +0.000 OA
ENDBRANCH  19  22
ENDBRANCH  14  19
ENDBRANCH   1  18
TORSDOF 4
ENDMDL
MODEL 4
REMARK VINA RESULT:      -6.9      1.125      1.125
REMARK  Name = 
REMARK  5 active torsions:
REMARK  status: ('A' for Active; 'I' for Inactive)
REMARK    1  A    between atoms: C_1  and  O_2
REMARK    2  A    between atoms: O_2  and  C_3
REMARK    3  A    between atoms: C_3  and  C_5
REMARK    4  A    between atoms: C_9  and  N_10
REMARK    5  A    between atoms: C_11  and  C_13
REMARK                            x       y       z     vdW  Elec       q    Type
REMARK                         _______ _______ _______ _____ _____    ______ ____
ROOT
ATOM      1  N   UNL     1       2.504   6.942  18.852  0.00  0.00    +0.000 N 
ATOM      2  C   UNL     1       2.113   8.210  18.422  0.00  0.00    +0.000 C 
ATOM      3  O   UNL     1       2.349   8.656  17.304  0.00  0.00    +0.000 OA
ATOM      4  H   UNL     1       2.141   6.622  19.745  0.00  0.00    +0.000 HD
ENDROOT
BRANCH   2   5
ATOM      5  C   UNL     1       1.357   8.988  19.403  0.00  0.00    +0.000 A 
ATOM      6  C   UNL     1       1.106   8.649  20.724  0.00  0.00    +0.000 A 
ATOM      7  C   UNL     1       0.311   9.624  21.410  0.00  0.00    +0.000 A 
ATOM      8  C   UNL     1      -0.015  10.662  20.570  0.00  0.00    +0.000 A 
ATOM      9  S   UNL     1       0.628  10.482  19.007  0.00  0.00    +0.000 S 
ATOM     10  C   UNL     1      -0.854  11.840  20.904  0.00  0.00    +0.000 C 
ATOM     11  C   UNL     1      -1.233  11.921  22.383  0.00  0.00    +0.000 C 
ATOM     12  C   UNL     1      -1.132  10.650  23.240  0.00  0.00    +0.000 C 
ATOM     13  C   UNL     1      -0.116   9.571  22.839  0.00  0.00    +0.000 C 
ENDBRANCH   2   5
BRANCH   1  18
ATOM     14  C   UNL     1       2.990   4.710  17.932  0.00  0.00    +0.000 A 
ATOM     15  S   UNL     1       4.222   3.903  17.031  0.00  0.00    +0.000 S 
ATOM     16  C   UNL     1       5.168   5.307  16.917  0.00  0.00    +0.000 A 
ATOM     17  C   UNL     1       4.581   6.369  17.560  0.00  0.00    +0.000 A 
ATOM     18  C   UNL     1       3.312   6.049  18.144  0.00  0.00    +0.000 A 
BRANCH  14  19
ATOM     19  C   UNL     1       1.831   3.906  18.290  0.00  0.00    +0.000 C 
ATOM     20  O   UNL     1       1.403   2.937  17.674  0.00  0.00    +0.000 OA
BRANCH  19  22
ATOM     21  C   UNL     1       1.422   3.525  20.560  0.00  0.00    +0.000 C 
ATOM     22  O   UNL     1       1.241   4.387  19.429  0.00  0.00    +0.000 OA
ENDBRANCH  19  22
ENDBRANCH  14  19
ENDBRANCH   1  18
TORSDOF 4
ENDMDL
MODEL 5
REMARK VINA RESULT:      -6.8      2.456      3.049
REMARK  Name = 
REMARK  5 active torsions:
REMARK  status: ('A' for Active; 'I' for Inactive)
REMARK    1  A    between atoms: C_1  and  O_2
REMARK    2  A    between atoms: O_2  and  C_3
REMARK    3  A    between atoms: C_3  and  C_5
REMARK    4  A    between atoms: C_9  and  N_10
REMARK    5  A    between atoms: C_11  and  C_13
REMARK                            x       y       z     vdW  Elec       q    Type
REMARK                         _______ _______ _______ _____ _____    ______ ____
ROOT
ATOM      1  N   UNL     1       4.117   7.026  17.927  0.00  0.00    +0.000 N 
ATOM      2  C   UNL     1       2.793   6.730  18.251  0.00  0.00    +0.000 C 
ATOM      3  O   UNL     1       2.234   5.681  17.952  0.00  0.00    +0.000 OA
ATOM      4  H   UNL     1       4.521   7.861  18.340  0.00  0.00    +0.000 HD
ENDROOT
BRANCH   2   5
ATOM      5  C   UNL     1       2.100   7.764  19.020  0.00  0.00    +0.000 A 
ATOM      6  C   UNL     1       1.766   7.722  20.365  0.00  0.00    +0.000 A 
ATOM      7  C   UNL     1       1.069   8.894  20.805  0.00  0.00    +0.000 A 
ATOM      8  C   UNL     1       0.896   9.774  19.763  0.00  0.00    +0.000 A 
ATOM      9  S   UNL     1       1.566   9.220  18.303  0.00  0.00    +0.000 S 
ATOM     10  C   UNL     1       0.190  11.079  19.817  0.00  0.00    +0.000 C 
ATOM     11  C   UNL     1      -0.227  11.492  21.228  0.00  0.00    +0.000 C 
ATOM     12  C   UNL     1      -0.305  10.411  22.318  0.00  0.00    +0.000 C 
ATOM     13  C   UNL     1       0.590   9.171  22.191  0.00  0.00    +0.000 C 
ENDBRANCH   2   5
BRANCH   1  18
ATOM     14  C   UNL     1       5.827   5.281  17.616  0.00  0.00    +0.000 A 
ATOM     15  S   UNL     1       6.720   4.533  16.342  0.00  0.00    +0.000 S 
ATOM     16  C   UNL     1       5.962   5.474  15.151  0.00  0.00    +0.000 A 
ATOM     17  C   UNL     1       5.061   6.355  15.698  0.00  0.00    +0.000 A 
ATOM     18  C   UNL     1       4.957   6.251  17.123  0.00  0.00    +0.000 A 
BRANCH  14  19
ATOM     19  C   UNL     1       6.087   4.780  18.958  0.00  0.00    +0.000 C 
ATOM     20  O   UNL     1       6.688   5.370  19.848  0.00  0.00    +0.000 OA
BRANCH  19  22
ATOM     21  C   UNL     1       4.234   3.512  19.609  0.00  0.00    +0.000 C 
ATOM     22  O   UNL     1       5.578   3.517  19.110  0.00  0.00    +0.000 OA
ENDBRANCH  19  22
ENDBRANCH  14  19
ENDBRANCH   1  18
TORSDOF 4
ENDMDL
MODEL 6
REMARK VINA RESULT:      -6.8      4.147      8.371
REMARK  Name = 
REMARK  5 active torsions:
REMARK  status: ('A' for Active; 'I' for Inactive)
REMARK    1  A    between atoms: C_1  and  O_2
REMARK    2  A    between atoms: O_2  and  C_3
REMARK    3  A    between atoms: C_3  and  C_5
REMARK    4  A    between atoms: C_9  and  N_10
REMARK    5  A    between atoms: C_11  and  C_13
REMARK                            x       y       z     vdW  Elec       q    Type
REMARK                         _______ _______ _______ _____ _____    ______ ____
ROOT
ATOM      1  N   UNL     1       3.836   3.774  17.838  0.00  0.00    +0.000 N 
ATOM      2  C   UNL     1       5.190   4.100  17.773  0.00  0.00    +0.000 C 
ATOM      3  O   UNL     1       5.913   4.223  18.756  0.00  0.00    +0.000 OA
ATOM      4  H   UNL     1       3.366   3.565  16.962  0.00  0.00    +0.000 HD
ENDROOT
BRANCH   2   5
ATOM      5  C   UNL     1       5.721   4.263  16.419  0.00  0.00    +0.000 A 
ATOM      6  C   UNL     1       5.337   3.569  15.282  0.00  0.00    +0.000 A 
ATOM      7  C   UNL     1       6.073   3.956  14.115  0.00  0.00    +0.000 A 
ATOM      8  C   UNL     1       6.996   4.927  14.424  0.00  0.00    +0.000 A 
ATOM      9  S   UNL     1       6.969   5.375  16.063  0.00  0.00    +0.000 S 
ATOM     10  C   UNL     1       7.967   5.552  13.491  0.00  0.00    +0.000 C 
ATOM     11  C   UNL     1       7.764   5.143  12.033  0.00  0.00    +0.000 C 
ATOM     12  C   UNL     1       6.960   3.870  11.730  0.00  0.00    +0.000 C 
ATOM     13  C   UNL     1       5.890   3.419  12.735  0.00  0.00    +0.000 C 
ENDBRANCH   2   5
BRANCH   1  18
ATOM     14  C   UNL     1       2.478   4.739  19.651  0.00  0.00    +0.000 A 
ATOM     15  S   UNL     1       1.629   4.231  21.066  0.00  0.00    +0.000 S 
ATOM     16  C   UNL     1       2.041   2.603  20.825  0.00  0.00    +0.000 A 
ATOM     17  C   UNL     1       2.821   2.437  19.706  0.00  0.00    +0.000 A 
ATOM     18  C   UNL     1       3.075   3.660  19.004  0.00  0.00    +0.000 A 
BRANCH  14  19
ATOM     19  C   UNL     1       2.414   6.160  19.344  0.00  0.00    +0.000 C 
ATOM     20  O   UNL     1       2.254   7.070  20.150  0.00  0.00    +0.000 OA
BRANCH  19  22
ATOM     21  C   UNL     1       3.473   7.410  17.677  0.00  0.00    +0.000 C 
ATOM     22  O   UNL     1       2.538   6.371  17.996  0.00  0.00    +0.000 OA
ENDBRANCH  19  22
ENDBRANCH  14  19
ENDBRANCH   1  18
TORSDOF 4
ENDMDL
MODEL 7
REMARK VINA RESULT:      -6.8      2.459      3.254
REMARK  Name = 
REMARK  5 active torsions:
REMARK  status: ('A' for Active; 'I' for Inactive)
REMARK    1  A    between atoms: C_1  and  O_2
REMARK    2  A    between atoms: O_2  and  C_3
REMARK    3  A    between atoms: C_3  and  C_5
REMARK    4  A    between atoms: C_9  and  N_10
REMARK    5  A    between atoms: C_11  and  C_13
REMARK                            x       y       z     vdW  Elec       q    Type
REMARK                         _______ _______ _______ _____ _____    ______ ____
ROOT
ATOM      1  N   UNL     1       4.069   6.980  17.898  0.00  0.00    +0.000 N 
ATOM      2  C   UNL     1       2.776   6.666  18.316  0.00  0.00    +0.000 C 
ATOM      3  O   UNL     1       2.232   5.587  18.106  0.00  0.00    +0.000 OA
ATOM      4  H   UNL     1       4.470   7.847  18.242  0.00  0.00    +0.000 HD
ENDROOT
BRANCH   2   5
ATOM      5  C   UNL     1       2.097   7.720  19.069  0.00  0.00    +0.000 A 
ATOM      6  C   UNL     1       1.750   7.697  20.411  0.00  0.00    +0.000 A 
ATOM      7  C   UNL     1       1.073   8.887  20.834  0.00  0.00    +0.000 A 
ATOM      8  C   UNL     1       0.928   9.761  19.784  0.00  0.00    +0.000 A 
ATOM      9  S   UNL     1       1.600   9.180  18.334  0.00  0.00    +0.000 S 
ATOM     10  C   UNL     1       0.248  11.080  19.819  0.00  0.00    +0.000 C 
ATOM     11  C   UNL     1      -0.173  11.514  21.223  0.00  0.00    +0.000 C 
ATOM     12  C   UNL     1      -0.284  10.445  22.321  0.00  0.00    +0.000 C 
ATOM     13  C   UNL     1       0.587   9.186  22.213  0.00  0.00    +0.000 C 
ENDBRANCH   2   5
BRANCH   1  18
ATOM     14  C   UNL     1       5.649   5.121  17.559  0.00  0.00    +0.000 A 
ATOM     15  S   UNL     1       6.542   4.376  16.284  0.00  0.00    +0.000 S 
ATOM     16  C   UNL     1       5.923   5.444  15.120  0.00  0.00    +0.000 A 
ATOM     17  C   UNL     1       5.068   6.363  15.677  0.00  0.00    +0.000 A 
ATOM     18  C   UNL     1       4.885   6.186  17.087  0.00  0.00    +0.000 A 
BRANCH  14  19
ATOM     19  C   UNL     1       5.799   4.524  18.878  0.00  0.00    +0.000 C 
ATOM     20  O   UNL     1       5.420   3.408  19.216  0.00  0.00    +0.000 OA
BRANCH  19  22
ATOM     21  C   UNL     1       7.754   5.723  19.329  0.00  0.00    +0.000 C 
ATOM     22  O   UNL     1       6.420   5.393  19.736  0.00  0.00    +0.000 OA
ENDBRANCH  19  22
ENDBRANCH  14  19
ENDBRANCH   1  18
TORSDOF 4
ENDMDL
MODEL 8
REMARK VINA RESULT:      -6.8      4.098      8.199
REMARK  Name = 
REMARK  5 active torsions:
REMARK  status: ('A' for Active; 'I' for Inactive)
REMARK    1  A    between atoms: C_1  and  O_2
REMARK    2  A    between atoms: O_2  and  C_3
REMARK    3  A    between atoms: C_3  and  C_5
REMARK    4  A    between atoms: C_9  and  N_10
REMARK    5  A    between atoms: C_11  and  C_13
REMARK                            x       y       z     vdW  Elec       q    Type
REMARK                         _______ _______ _______ _____ _____    ______ ____
ROOT
ATOM      1  N   UNL     1       3.520   4.733  17.555  0.00  0.00    +0.000 N 
ATOM      2  C   UNL     1       4.885   4.447  17.529  0.00  0.00    +0.000 C 
ATOM      3  O   UNL     1       5.541   4.147  18.521  0.00  0.00    +0.000 OA
ATOM      4  H   UNL     1       3.050   4.837  16.661  0.00  0.00    +0.000 HD
ENDROOT
BRANCH   2   5
ATOM      5  C   UNL     1       5.501   4.500  16.203  0.00  0.00    +0.000 A 
ATOM      6  C   UNL     1       5.146   3.756  15.088  0.00  0.00    +0.000 A 
ATOM      7  C   UNL     1       5.968   4.032  13.947  0.00  0.00    +0.000 A 
ATOM      8  C   UNL     1       6.922   4.974  14.254  0.00  0.00    +0.000 A 
ATOM      9  S   UNL     1       6.824   5.524  15.859  0.00  0.00    +0.000 S 
ATOM     10  C   UNL     1       7.977   5.491  13.346  0.00  0.00    +0.000 C 
ATOM     11  C   UNL     1       7.837   5.003  11.905  0.00  0.00    +0.000 C 
ATOM     12  C   UNL     1       6.984   3.755  11.629  0.00  0.00    +0.000 C 
ATOM     13  C   UNL     1       5.836   3.421  12.592  0.00  0.00    +0.000 C 
ENDBRANCH   2   5
BRANCH   1  18
ATOM     14  C   UNL     1       1.806   3.879  19.103  0.00  0.00    +0.000 A 
ATOM     15  S   UNL     1       0.995   4.351  20.552  0.00  0.00    +0.000 S 
ATOM     16  C   UNL     1       1.856   5.810  20.652  0.00  0.00    +0.000 A 
ATOM     17  C   UNL     1       2.731   5.956  19.603  0.00  0.00    +0.000 A 
ATOM     18  C   UNL     1       2.727   4.843  18.701  0.00  0.00    +0.000 A 
BRANCH  14  19
ATOM     19  C   UNL     1       1.439   2.579  18.561  0.00  0.00    +0.000 C 
ATOM     20  O   UNL     1       0.374   1.997  18.732  0.00  0.00    +0.000 OA
BRANCH  19  22
ATOM     21  C   UNL     1       3.391   1.296  18.620  0.00  0.00    +0.000 C 
ATOM     22  O   UNL     1       2.468   2.052  17.826  0.00  0.00    +0.000 OA
ENDBRANCH  19  22
ENDBRANCH  14  19
ENDBRANCH   1  18
TORSDOF 4
ENDMDL
MODEL 9
REMARK VINA RESULT:      -6.8      0.796      1.420
REMARK  Name = 
REMARK  5 active torsions:
REMARK  status: ('A' for Active; 'I' for Inactive)
REMARK    1  A    between atoms: C_1  and  O_2
REMARK    2  A    between atoms: O_2  and  C_3
REMARK    3  A    between atoms: C_3  and  C_5
REMARK    4  A    between atoms: C_9  and  N_10
REMARK    5  A    between atoms: C_11  and  C_13
REMARK                            x       y       z     vdW  Elec       q    Type
REMARK                         _______ _______ _______ _____ _____    ______ ____
ROOT
ATOM      1  N   UNL     1       2.401   6.635  19.952  0.00  0.00    +0.000 N 
ATOM      2  C   UNL     1       2.128   7.844  19.312  0.00  0.00    +0.000 C 
ATOM      3  O   UNL     1       2.547   8.138  18.198  0.00  0.00    +0.000 OA
ATOM      4  H   UNL     1       1.894   6.439  20.810  0.00  0.00    +0.000 HD
ENDROOT
BRANCH   2   5
ATOM      5  C   UNL     1       1.261   8.756  20.059  0.00  0.00    +0.000 A 
ATOM      6  C   UNL     1       0.600   9.871  19.566  0.00  0.00    +0.000 A 
ATOM      7  C   UNL     1      -0.153  10.563  20.570  0.00  0.00    +0.000 A 
ATOM      8  C   UNL     1      -0.021   9.941  21.789  0.00  0.00    +0.000 A 
ATOM      9  S   UNL     1       0.964   8.558  21.729  0.00  0.00    +0.000 S 
ATOM     10  C   UNL     1      -0.620  10.381  23.074  0.00  0.00    +0.000 C 
ATOM     11  C   UNL     1      -1.589  11.554  22.928  0.00  0.00    +0.000 C 
ATOM     12  C   UNL     1      -1.512  12.419  21.660  0.00  0.00    +0.000 C 
ATOM     13  C   UNL     1      -0.989  11.781  20.365  0.00  0.00    +0.000 C 
ENDBRANCH   2   5
BRANCH   1  18
ATOM     14  C   UNL     1       2.864   4.372  19.096  0.00  0.00    +0.000 A 
ATOM     15  S   UNL     1       4.208   3.406  18.606  0.00  0.00    +0.000 S 
ATOM     16  C   UNL     1       5.317   4.654  18.910  0.00  0.00    +0.000 A 
ATOM     17  C   UNL     1       4.695   5.780  19.390  0.00  0.00    +0.000 A 
ATOM     18  C   UNL     1       3.273   5.644  19.495  0.00  0.00    +0.000 A 
BRANCH  14  19
ATOM     19  C   UNL     1       1.555   3.746  18.992  0.00  0.00    +0.000 C 
ATOM     20  O   UNL     1       1.083   3.216  17.993  0.00  0.00    +0.000 OA
BRANCH  19  22
ATOM     21  C   UNL     1       1.329   2.890  21.155  0.00  0.00    +0.000 C 
ATOM     22  O   UNL     1       0.877   3.837  20.179  0.00  0.00    +0.000 OA
ENDBRANCH  19  22
ENDBRANCH  14  19
ENDBRANCH   1  18
TORSDOF 4
ENDMDL
