MODEL 1
REMARK VINA RESULT:      -7.7      0.000      0.000
REMARK  Name = 
REMARK  6 active torsions:
REMARK  status: ('A' for Active; 'I' for Inactive)
REMARK    1  A    between atoms: C_1  and  O_2
REMARK    2  A    between atoms: O_2  and  C_3
REMARK    3  A    between atoms: C_6  and  S_7
REMARK    4  A    between atoms: S_7  and  N_10
REMARK    5  A    between atoms: N_13  and  S_14
REMARK    6  A    between atoms: S_14  and  C_17
REMARK                            x       y       z     vdW  Elec       q    Type
REMARK                         _______ _______ _______ _____ _____    ______ ____
ROOT
ATOM      1  N   UNL     1       4.473   6.262  19.116  0.00  0.00    +0.000 NA
ATOM      2  C   UNL     1       5.422   5.115  19.195  0.00  0.00    +0.000 C 
ATOM      3  C   UNL     1       5.419   4.248  17.927  0.00  0.00    +0.000 C 
ATOM      4  N   UNL     1       5.595   5.028  16.661  0.00  0.00    +0.000 NA
ATOM      5  C   UNL     1       4.796   6.298  16.611  0.00  0.00    +0.000 C 
ATOM      6  C   UNL     1       4.863   7.101  17.922  0.00  0.00    +0.000 C 
ENDROOT
BRANCH   1   7
ATOM      7  S   UNL     1       2.793   5.939  19.211  0.00  0.00    +0.000 S 
ATOM      8  O   UNL     1       2.571   5.093  20.361  0.00  0.00    +0.000 OA
ATOM      9  O   UNL     1       2.358   5.518  17.895  0.00  0.00    +0.000 OA
BRANCH   7  13
ATOM     10  C   UNL     1       0.661   9.898  20.117  0.00  0.00    +0.000 A 
ATOM     11  C   UNL     1       1.187   9.653  18.841  0.00  0.00    +0.000 A 
ATOM     12  C   UNL     1       1.842   8.449  18.547  0.00  0.00    +0.000 A 
ATOM     13  C   UNL     1       1.997   7.496  19.551  0.00  0.00    +0.000 A 
ATOM     14  C   UNL     1       1.453   7.721  20.822  0.00  0.00    +0.000 A 
ATOM     15  C   UNL     1       0.790   8.921  21.104  0.00  0.00    +0.000 A 
BRANCH  10  17
ATOM     16  C   UNL     1       0.940  12.229  20.495  0.00  0.00    +0.000 C 
ATOM     17  O   UNL     1       0.070  11.122  20.284  0.00  0.00    +0.000 OA
ENDBRANCH  10  17
ENDBRANCH   7  13
ENDBRANCH   1   7
BRANCH   4  18
ATOM     18  S   UNL     1       7.167   5.110  16.022  0.00  0.00    +0.000 S 
ATOM     19  O   UNL     1       7.607   6.485  16.025  0.00  0.00    +0.000 OA
ATOM     20  O   UNL     1       7.928   4.101  16.732  0.00  0.00    +0.000 OA
BRANCH  18  21
ATOM     21  C   UNL     1       6.949   4.628  14.351  0.00  0.00    +0.000 A 
ATOM     22  C   UNL     1       5.917   3.757  14.021  0.00  0.00    +0.000 A 
ATOM     23  F   UNL     1       5.100   3.258  14.956  0.00  0.00    +0.000 F 
ATOM     24  C   UNL     1       5.712   3.363  12.696  0.00  0.00    +0.000 A 
ATOM     25  C   UNL     1       6.536   3.856  11.685  0.00  0.00    +0.000 A 
ATOM     26  C   UNL     1       7.567   4.736  12.012  0.00  0.00    +0.000 A 
ATOM     27  C   UNL     1       7.772   5.111  13.341  0.00  0.00    +0.000 A 
ATOM     28  F   UNL     1       8.800   5.929  13.600  0.00  0.00    +0.000 F 
ENDBRANCH  18  21
ENDBRANCH   4  18
TORSDOF 5
ENDMDL
MODEL 2
REMARK VINA RESULT:      -7.6      0.496      1.032
REMARK  Name = 
REMARK  6 active torsions:
REMARK  status: ('A' for Active; 'I' for Inactive)
REMARK    1  A    between atoms: C_1  and  O_2
REMARK    2  A    between atoms: O_2  and  C_3
REMARK    3  A    between atoms: C_6  and  S_7
REMARK    4  A    between atoms: S_7  and  N_10
REMARK    5  A    between atoms: N_13  and  S_14
REMARK    6  A    between atoms: S_14  and  C_17
REMARK                            x       y       z     vdW  Elec       q    Type
REMARK                         _______ _______ _______ _____ _____    ______ ____
ROOT
ATOM      1  N   UNL     1       4.486   6.061  19.209  0.00  0.00    +0.000 NA
ATOM      2  C   UNL     1       5.400   4.882  19.183  0.00  0.00    +0.000 C 
ATOM      3  C   UNL     1       5.382   4.143  17.837  0.00  0.00    +0.000 C 
ATOM      4  N   UNL     1       5.592   5.035  16.653  0.00  0.00    +0.000 NA
ATOM      5  C   UNL     1       4.832   6.327  16.721  0.00  0.00    +0.000 C 
ATOM      6  C   UNL     1       4.911   6.998  18.104  0.00  0.00    +0.000 C 
ENDROOT
BRANCH   1   7
ATOM      7  S   UNL     1       2.797   5.781  19.263  0.00  0.00    +0.000 S 
ATOM      8  O   UNL     1       2.493   5.152  20.528  0.00  0.00    +0.000 OA
ATOM      9  O   UNL     1       2.423   5.142  18.018  0.00  0.00    +0.000 OA
BRANCH   7  13
ATOM     10  C   UNL     1       0.876   9.947  19.261  0.00  0.00    +0.000 A 
ATOM     11  C   UNL     1       1.046   9.245  20.464  0.00  0.00    +0.000 A 
ATOM     12  C   UNL     1       1.630   7.972  20.482  0.00  0.00    +0.000 A 
ATOM     13  C   UNL     1       2.019   7.384  19.281  0.00  0.00    +0.000 A 
ATOM     14  C   UNL     1       1.877   8.087  18.077  0.00  0.00    +0.000 A 
ATOM     15  C   UNL     1       1.303   9.363  18.069  0.00  0.00    +0.000 A 
BRANCH  10  17
ATOM     16  C   UNL     1      -0.631  11.336  20.466  0.00  0.00    +0.000 C 
ATOM     17  O   UNL     1       0.267  11.168  19.375  0.00  0.00    +0.000 OA
ENDBRANCH  10  17
ENDBRANCH   7  13
ENDBRANCH   1   7
BRANCH   4  18
ATOM     18  S   UNL     1       7.171   5.130  16.033  0.00  0.00    +0.000 S 
ATOM     19  O   UNL     1       7.607   6.506  16.063  0.00  0.00    +0.000 OA
ATOM     20  O   UNL     1       7.926   4.112  16.737  0.00  0.00    +0.000 OA
BRANCH  18  21
ATOM     21  C   UNL     1       6.974   4.674  14.353  0.00  0.00    +0.000 A 
ATOM     22  C   UNL     1       5.950   3.803  13.998  0.00  0.00    +0.000 A 
ATOM     23  F   UNL     1       5.125   3.286  14.916  0.00  0.00    +0.000 F 
ATOM     24  C   UNL     1       5.761   3.429  12.665  0.00  0.00    +0.000 A 
ATOM     25  C   UNL     1       6.594   3.942  11.671  0.00  0.00    +0.000 A 
ATOM     26  C   UNL     1       7.617   4.821  12.023  0.00  0.00    +0.000 A 
ATOM     27  C   UNL     1       7.805   5.177  13.360  0.00  0.00    +0.000 A 
ATOM     28  F   UNL     1       8.827   5.994  13.644  0.00  0.00    +0.000 F 
ENDBRANCH  18  21
ENDBRANCH   4  18
TORSDOF 5
ENDMDL
MODEL 3
REMARK VINA RESULT:      -7.6      0.233      1.821
REMARK  Name = 
REMARK  6 active torsions:
REMARK  status: ('A' for Active; 'I' for Inactive)
REMARK    1  A    between atoms: C_1  and  O_2
REMARK    2  A    between atoms: O_2  and  C_3
REMARK    3  A    between atoms: C_6  and  S_7
REMARK    4  A    between atoms: S_7  and  N_10
REMARK    5  A    between atoms: N_13  and  S_14
REMARK    6  A    between atoms: S_14  and  C_17
REMARK                            x       y       z     vdW  Elec       q    Type
REMARK                         _______ _______ _______ _____ _____    ______ ____
ROOT
ATOM      1  N   UNL     1       4.481   6.313  19.084  0.00  0.00    +0.000 NA
ATOM      2  C   UNL     1       5.444   5.179  19.179  0.00  0.00    +0.000 C 
ATOM      3  C   UNL     1       5.432   4.281  17.933  0.00  0.00    +0.000 C 
ATOM      4  N   UNL     1       5.581   5.030  16.645  0.00  0.00    +0.000 NA
ATOM      5  C   UNL     1       4.767   6.289  16.575  0.00  0.00    +0.000 C 
ATOM      6  C   UNL     1       4.844   7.126  17.864  0.00  0.00    +0.000 C 
ENDROOT
BRANCH   1   7
ATOM      7  S   UNL     1       2.806   5.974  19.212  0.00  0.00    +0.000 S 
ATOM      8  O   UNL     1       2.596   5.246  20.443  0.00  0.00    +0.000 OA
ATOM      9  O   UNL     1       2.379   5.414  17.947  0.00  0.00    +0.000 OA
BRANCH   7  13
ATOM     10  C   UNL     1       0.771  10.063  19.635  0.00  0.00    +0.000 A 
ATOM     11  C   UNL     1       0.932   9.233  20.754  0.00  0.00    +0.000 A 
ATOM     12  C   UNL     1       1.551   7.980  20.642  0.00  0.00    +0.000 A 
ATOM     13  C   UNL     1       1.984   7.545  19.392  0.00  0.00    +0.000 A 
ATOM     14  C   UNL     1       1.852   8.378  18.274  0.00  0.00    +0.000 A 
ATOM     15  C   UNL     1       1.243   9.632  18.396  0.00  0.00    +0.000 A 
BRANCH  10  17
ATOM     16  C   UNL     1       0.684  12.091  20.875  0.00  0.00    +0.000 C 
ATOM     17  O   UNL     1       0.127  11.248  19.871  0.00  0.00    +0.000 OA
ENDBRANCH  10  17
ENDBRANCH   7  13
ENDBRANCH   1   7
BRANCH   4  18
ATOM     18  S   UNL     1       7.142   5.112  15.981  0.00  0.00    +0.000 S 
ATOM     19  O   UNL     1       7.581   6.488  15.978  0.00  0.00    +0.000 OA
ATOM     20  O   UNL     1       7.915   4.104  16.678  0.00  0.00    +0.000 OA
BRANCH  18  21
ATOM     21  C   UNL     1       6.898   4.633  14.313  0.00  0.00    +0.000 A 
ATOM     22  C   UNL     1       7.785   5.076  13.338  0.00  0.00    +0.000 A 
ATOM     23  F   UNL     1       8.809   5.882  13.643  0.00  0.00    +0.000 F 
ATOM     24  C   UNL     1       7.622   4.702  12.002  0.00  0.00    +0.000 A 
ATOM     25  C   UNL     1       6.571   3.863  11.634  0.00  0.00    +0.000 A 
ATOM     26  C   UNL     1       5.684   3.411  12.611  0.00  0.00    +0.000 A 
ATOM     27  C   UNL     1       5.848   3.802  13.941  0.00  0.00    +0.000 A 
ATOM     28  F   UNL     1       4.945   3.368  14.828  0.00  0.00    +0.000 F 
ENDBRANCH  18  21
ENDBRANCH   4  18
TORSDOF 5
ENDMDL
MODEL 4
REMARK VINA RESULT:      -7.6      0.573      1.663
REMARK  Name = 
REMARK  6 active torsions:
REMARK  status: ('A' for Active; 'I' for Inactive)
REMARK    1  A    between atoms: C_1  and  O_2
REMARK    2  A    between atoms: O_2  and  C_3
REMARK    3  A    between atoms: C_6  and  S_7
REMARK    4  A    between atoms: S_7  and  N_10
REMARK    5  A    between atoms: N_13  and  S_14
REMARK    6  A    between atoms: S_14  and  C_17
REMARK                            x       y       z     vdW  Elec       q    Type
REMARK                         _______ _______ _______ _____ _____    ______ ____
ROOT
ATOM      1  N   UNL     1       4.490   6.036  19.176  0.00  0.00    +0.000 NA
ATOM      2  C   UNL     1       5.352   4.821  19.092  0.00  0.00    +0.000 C 
ATOM      3  C   UNL     1       5.295   4.143  17.716  0.00  0.00    +0.000 C 
ATOM      4  N   UNL     1       5.538   5.077  16.570  0.00  0.00    +0.000 NA
ATOM      5  C   UNL     1       4.835   6.396  16.700  0.00  0.00    +0.000 C 
ATOM      6  C   UNL     1       4.950   7.002  18.111  0.00  0.00    +0.000 C 
ENDROOT
BRANCH   1   7
ATOM      7  S   UNL     1       2.790   5.827  19.229  0.00  0.00    +0.000 S 
ATOM      8  O   UNL     1       2.461   5.195  20.486  0.00  0.00    +0.000 OA
ATOM      9  O   UNL     1       2.389   5.220  17.976  0.00  0.00    +0.000 OA
BRANCH   7  13
ATOM     10  C   UNL     1       0.881   9.995  19.375  0.00  0.00    +0.000 A 
ATOM     11  C   UNL     1       1.329   9.463  18.157  0.00  0.00    +0.000 A 
ATOM     12  C   UNL     1       1.915   8.192  18.095  0.00  0.00    +0.000 A 
ATOM     13  C   UNL     1       2.081   7.461  19.269  0.00  0.00    +0.000 A 
ATOM     14  C   UNL     1       1.613   7.972  20.486  0.00  0.00    +0.000 A 
ATOM     15  C   UNL     1       1.018   9.238  20.538  0.00  0.00    +0.000 A 
BRANCH  10  17
ATOM     16  C   UNL     1      -1.028  11.390  19.630  0.00  0.00    +0.000 C 
ATOM     17  O   UNL     1       0.353  11.256  19.307  0.00  0.00    +0.000 OA
ENDBRANCH  10  17
ENDBRANCH   7  13
ENDBRANCH   1   7
BRANCH   4  18
ATOM     18  S   UNL     1       7.117   5.131  15.945  0.00  0.00    +0.000 S 
ATOM     19  O   UNL     1       7.581   6.499  15.954  0.00  0.00    +0.000 OA
ATOM     20  O   UNL     1       7.854   4.109  16.661  0.00  0.00    +0.000 OA
BRANCH  18  21
ATOM     21  C   UNL     1       6.906   4.656  14.272  0.00  0.00    +0.000 A 
ATOM     22  C   UNL     1       7.812   5.101  13.316  0.00  0.00    +0.000 A 
ATOM     23  F   UNL     1       8.831   5.905  13.643  0.00  0.00    +0.000 F 
ATOM     24  C   UNL     1       7.676   4.730  11.976  0.00  0.00    +0.000 A 
ATOM     25  C   UNL     1       6.632   3.893  11.585  0.00  0.00    +0.000 A 
ATOM     26  C   UNL     1       5.726   3.439  12.543  0.00  0.00    +0.000 A 
ATOM     27  C   UNL     1       5.863   3.827  13.877  0.00  0.00    +0.000 A 
ATOM     28  F   UNL     1       4.942   3.391  14.745  0.00  0.00    +0.000 F 
ENDBRANCH  18  21
ENDBRANCH   4  18
TORSDOF 5
ENDMDL
MODEL 5
REMARK VINA RESULT:      -6.9      3.832      8.486
REMARK  Name = 
REMARK  6 active torsions:
REMARK  status: ('A' for Active; 'I' for Inactive)
REMARK    1  A    between atoms: C_1  and  O_2
REMARK    2  A    between atoms: O_2  and  C_3
REMARK    3  A    between atoms: C_6  and  S_7
REMARK    4  A    between atoms: S_7  and  N_10
REMARK    5  A    between atoms: N_13  and  S_14
REMARK    6  A    between atoms: S_14  and  C_17
REMARK                            x       y       z     vdW  Elec       q    Type
REMARK                         _______ _______ _______ _____ _____    ______ ____
ROOT
ATOM      1  N   UNL     1       7.307   4.719  15.485  0.00  0.00    +0.000 NA
ATOM      2  C   UNL     1       7.417   5.716  16.589  0.00  0.00    +0.000 C 
ATOM      3  C   UNL     1       6.061   6.323  16.982  0.00  0.00    +0.000 C 
ATOM      4  N   UNL     1       4.999   5.303  17.257  0.00  0.00    +0.000 NA
ATOM      5  C   UNL     1       4.970   4.172  16.271  0.00  0.00    +0.000 C 
ATOM      6  C   UNL     1       6.371   3.626  15.942  0.00  0.00    +0.000 C 
ENDROOT
BRANCH   1   7
ATOM      7  S   UNL     1       6.981   5.288  13.902  0.00  0.00    +0.000 S 
ATOM      8  O   UNL     1       8.184   5.913  13.401  0.00  0.00    +0.000 OA
ATOM      9  O   UNL     1       5.738   6.029  13.955  0.00  0.00    +0.000 OA
BRANCH   7  13
ATOM     10  C   UNL     1       6.273   1.623  11.237  0.00  0.00    +0.000 A 
ATOM     11  C   UNL     1       5.195   2.255  11.872  0.00  0.00    +0.000 A 
ATOM     12  C   UNL     1       5.394   3.376  12.691  0.00  0.00    +0.000 A 
ATOM     13  C   UNL     1       6.688   3.846  12.897  0.00  0.00    +0.000 A 
ATOM     14  C   UNL     1       7.769   3.238  12.246  0.00  0.00    +0.000 A 
ATOM     15  C   UNL     1       7.560   2.126  11.421  0.00  0.00    +0.000 A 
BRANCH  10  17
ATOM     16  C   UNL     1       5.888  -0.723  11.175  0.00  0.00    +0.000 C 
ATOM     17  O   UNL     1       5.950   0.523  10.488  0.00  0.00    +0.000 OA
ENDBRANCH  10  17
ENDBRANCH   7  13
ENDBRANCH   1   7
BRANCH   4  18
ATOM     18  S   UNL     1       4.740   4.883  18.883  0.00  0.00    +0.000 S 
ATOM     19  O   UNL     1       5.834   4.056  19.335  0.00  0.00    +0.000 OA
ATOM     20  O   UNL     1       4.439   6.127  19.562  0.00  0.00    +0.000 OA
BRANCH  18  21
ATOM     21  C   UNL     1       3.309   3.876  18.817  0.00  0.00    +0.000 A 
ATOM     22  C   UNL     1       2.118   4.411  18.336  0.00  0.00    +0.000 A 
ATOM     23  F   UNL     1       2.037   5.688  17.944  0.00  0.00    +0.000 F 
ATOM     24  C   UNL     1       0.962   3.630  18.261  0.00  0.00    +0.000 A 
ATOM     25  C   UNL     1       0.996   2.293  18.656  0.00  0.00    +0.000 A 
ATOM     26  C   UNL     1       2.190   1.751  19.131  0.00  0.00    +0.000 A 
ATOM     27  C   UNL     1       3.335   2.545  19.215  0.00  0.00    +0.000 A 
ATOM     28  F   UNL     1       4.442   1.982  19.715  0.00  0.00    +0.000 F 
ENDBRANCH  18  21
ENDBRANCH   4  18
TORSDOF 5
ENDMDL
MODEL 6
REMARK VINA RESULT:      -6.8      6.120     10.844
REMARK  Name = 
REMARK  6 active torsions:
REMARK  status: ('A' for Active; 'I' for Inactive)
REMARK    1  A    between atoms: C_1  and  O_2
REMARK    2  A    between atoms: O_2  and  C_3
REMARK    3  A    between atoms: C_6  and  S_7
REMARK    4  A    between atoms: S_7  and  N_10
REMARK    5  A    between atoms: N_13  and  S_14
REMARK    6  A    between atoms: S_14  and  C_17
REMARK                            x       y       z     vdW  Elec       q    Type
REMARK                         _______ _______ _______ _____ _____    ______ ____
ROOT
ATOM      1  N   UNL     1       1.249  11.914  20.108  0.00  0.00    +0.000 NA
ATOM      2  C   UNL     1       1.812  12.889  19.130  0.00  0.00    +0.000 C 
ATOM      3  C   UNL     1       0.774  13.909  18.640  0.00  0.00    +0.000 C 
ATOM      4  N   UNL     1       0.031  14.596  19.744  0.00  0.00    +0.000 NA
ATOM      5  C   UNL     1      -0.398  13.680  20.851  0.00  0.00    +0.000 C 
ATOM      6  C   UNL     1       0.707  12.697  21.280  0.00  0.00    +0.000 C 
ENDROOT
BRANCH   1   7
ATOM      7  S   UNL     1       0.177  10.709  19.532  0.00  0.00    +0.000 S 
ATOM      8  O   UNL     1      -0.367  11.165  18.273  0.00  0.00    +0.000 OA
ATOM      9  O   UNL     1      -0.705  10.354  20.625  0.00  0.00    +0.000 OA
BRANCH   7  13
ATOM     10  C   UNL     1       2.798   7.037  18.699  0.00  0.00    +0.000 A 
ATOM     11  C   UNL     1       2.593   8.003  17.702  0.00  0.00    +0.000 A 
ATOM     12  C   UNL     1       1.794   9.130  17.940  0.00  0.00    +0.000 A 
ATOM     13  C   UNL     1       1.172   9.274  19.177  0.00  0.00    +0.000 A 
ATOM     14  C   UNL     1       1.391   8.329  20.188  0.00  0.00    +0.000 A 
ATOM     15  C   UNL     1       2.199   7.212  19.946  0.00  0.00    +0.000 A 
BRANCH  10  17
ATOM     16  C   UNL     1       4.433   5.432  19.333  0.00  0.00    +0.000 C 
ATOM     17  O   UNL     1       3.574   5.971  18.333  0.00  0.00    +0.000 OA
ENDBRANCH  10  17
ENDBRANCH   7  13
ENDBRANCH   1   7
BRANCH   4  18
ATOM     18  S   UNL     1       0.602  16.125  20.218  0.00  0.00    +0.000 S 
ATOM     19  O   UNL     1      -0.346  16.720  21.131  0.00  0.00    +0.000 OA
ATOM     20  O   UNL     1       1.976  15.916  20.630  0.00  0.00    +0.000 OA
BRANCH  18  21
ATOM     21  C   UNL     1       0.557  17.052  18.732  0.00  0.00    +0.000 A 
ATOM     22  C   UNL     1       1.738  17.280  18.034  0.00  0.00    +0.000 A 
ATOM     23  F   UNL     1       2.913  16.827  18.486  0.00  0.00    +0.000 F 
ATOM     24  C   UNL     1       1.733  18.007  16.840  0.00  0.00    +0.000 A 
ATOM     25  C   UNL     1       0.533  18.499  16.327  0.00  0.00    +0.000 A 
ATOM     26  C   UNL     1      -0.654  18.265  17.021  0.00  0.00    +0.000 A 
ATOM     27  C   UNL     1      -0.634  17.550  18.220  0.00  0.00    +0.000 A 
ATOM     28  F   UNL     1      -1.798  17.389  18.862  0.00  0.00    +0.000 F 
ENDBRANCH  18  21
ENDBRANCH   4  18
TORSDOF 5
ENDMDL
MODEL 7
REMARK VINA RESULT:      -6.8      6.153     10.809
REMARK  Name = 
REMARK  6 active torsions:
REMARK  status: ('A' for Active; 'I' for Inactive)
REMARK    1  A    between atoms: C_1  and  O_2
REMARK    2  A    between atoms: O_2  and  C_3
REMARK    3  A    between atoms: C_6  and  S_7
REMARK    4  A    between atoms: S_7  and  N_10
REMARK    5  A    between atoms: N_13  and  S_14
REMARK    6  A    between atoms: S_14  and  C_17
REMARK                            x       y       z     vdW  Elec       q    Type
REMARK                         _______ _______ _______ _____ _____    ______ ____
ROOT
ATOM      1  N   UNL     1       1.415  12.040  20.040  0.00  0.00    +0.000 NA
ATOM      2  C   UNL     1       1.864  13.013  19.002  0.00  0.00    +0.000 C 
ATOM      3  C   UNL     1       0.767  14.011  18.606  0.00  0.00    +0.000 C 
ATOM      4  N   UNL     1       0.124  14.699  19.771  0.00  0.00    +0.000 NA
ATOM      5  C   UNL     1      -0.179  13.788  20.925  0.00  0.00    +0.000 C 
ATOM      6  C   UNL     1       0.979  12.828  21.253  0.00  0.00    +0.000 C 
ENDROOT
BRANCH   1   7
ATOM      7  S   UNL     1       0.312  10.812  19.584  0.00  0.00    +0.000 S 
ATOM      8  O   UNL     1      -0.333  11.229  18.360  0.00  0.00    +0.000 OA
ATOM      9  O   UNL     1      -0.478  10.482  20.753  0.00  0.00    +0.000 OA
BRANCH   7  13
ATOM     10  C   UNL     1       2.763   7.090  18.498  0.00  0.00    +0.000 A 
ATOM     11  C   UNL     1       2.259   7.252  19.797  0.00  0.00    +0.000 A 
ATOM     12  C   UNL     1       1.509   8.384  20.146  0.00  0.00    +0.000 A 
ATOM     13  C   UNL     1       1.288   9.374  19.192  0.00  0.00    +0.000 A 
ATOM     14  C   UNL     1       1.765   9.209  17.885  0.00  0.00    +0.000 A 
ATOM     15  C   UNL     1       2.504   8.071  17.541  0.00  0.00    +0.000 A 
BRANCH  10  17
ATOM     16  C   UNL     1       4.024   5.314  19.451  0.00  0.00    +0.000 C 
ATOM     17  O   UNL     1       3.502   5.956  18.292  0.00  0.00    +0.000 OA
ENDBRANCH  10  17
ENDBRANCH   7  13
ENDBRANCH   1   7
BRANCH   4  18
ATOM     18  S   UNL     1       0.714  16.241  20.172  0.00  0.00    +0.000 S 
ATOM     19  O   UNL     1      -0.212  16.878  21.080  0.00  0.00    +0.000 OA
ATOM     20  O   UNL     1       2.095  16.040  20.564  0.00  0.00    +0.000 OA
BRANCH  18  21
ATOM     21  C   UNL     1       0.643  17.108  18.652  0.00  0.00    +0.000 A 
ATOM     22  C   UNL     1      -0.583  17.570  18.185  0.00  0.00    +0.000 A 
ATOM     23  F   UNL     1      -1.715  17.345  18.862  0.00  0.00    +0.000 F 
ATOM     24  C   UNL     1      -0.670  18.274  16.981  0.00  0.00    +0.000 A 
ATOM     25  C   UNL     1       0.482  18.534  16.240  0.00  0.00    +0.000 A 
ATOM     26  C   UNL     1       1.714  18.080  16.709  0.00  0.00    +0.000 A 
ATOM     27  C   UNL     1       1.787  17.365  17.906  0.00  0.00    +0.000 A 
ATOM     28  F   UNL     1       2.991  16.921  18.287  0.00  0.00    +0.000 F 
ENDBRANCH  18  21
ENDBRANCH   4  18
TORSDOF 5
ENDMDL
MODEL 8
REMARK VINA RESULT:      -6.6      8.687      9.882
REMARK  Name = 
REMARK  6 active torsions:
REMARK  status: ('A' for Active; 'I' for Inactive)
REMARK    1  A    between atoms: C_1  and  O_2
REMARK    2  A    between atoms: O_2  and  C_3
REMARK    3  A    between atoms: C_6  and  S_7
REMARK    4  A    between atoms: S_7  and  N_10
REMARK    5  A    between atoms: N_13  and  S_14
REMARK    6  A    between atoms: S_14  and  C_17
REMARK                            x       y       z     vdW  Elec       q    Type
REMARK                         _______ _______ _______ _____ _____    ______ ____
ROOT
ATOM      1  N   UNL     1       6.106  15.960  19.815  0.00  0.00    +0.000 NA
ATOM      2  C   UNL     1       6.979  14.781  20.086  0.00  0.00    +0.000 C 
ATOM      3  C   UNL     1       7.890  14.429  18.901  0.00  0.00    +0.000 C 
ATOM      4  N   UNL     1       8.674  15.591  18.374  0.00  0.00    +0.000 NA
ATOM      5  C   UNL     1       7.880  16.859  18.258  0.00  0.00    +0.000 C 
ATOM      6  C   UNL     1       7.002  17.133  19.493  0.00  0.00    +0.000 C 
ENDROOT
BRANCH   1   7
ATOM      7  S   UNL     1       4.798  15.773  18.725  0.00  0.00    +0.000 S 
ATOM      8  O   UNL     1       5.213  14.855  17.689  0.00  0.00    +0.000 OA
ATOM      9  O   UNL     1       4.326  17.099  18.383  0.00  0.00    +0.000 OA
BRANCH   7  13
ATOM     10  C   UNL     1       1.497  13.703  21.147  0.00  0.00    +0.000 A 
ATOM     11  C   UNL     1       1.886  13.194  19.899  0.00  0.00    +0.000 A 
ATOM     12  C   UNL     1       2.892  13.815  19.146  0.00  0.00    +0.000 A 
ATOM     13  C   UNL     1       3.491  14.973  19.635  0.00  0.00    +0.000 A 
ATOM     14  C   UNL     1       3.128  15.475  20.891  0.00  0.00    +0.000 A 
ATOM     15  C   UNL     1       2.131  14.842  21.642  0.00  0.00    +0.000 A 
BRANCH  10  17
ATOM     16  C   UNL     1      -0.418  12.310  20.930  0.00  0.00    +0.000 C 
ATOM     17  O   UNL     1       0.485  13.023  21.769  0.00  0.00    +0.000 OA
ENDBRANCH  10  17
ENDBRANCH   7  13
ENDBRANCH   1   7
BRANCH   4  18
ATOM     18  S   UNL     1      10.270  15.757  18.932  0.00  0.00    +0.000 S 
ATOM     19  O   UNL     1      11.041  16.480  17.948  0.00  0.00    +0.000 OA
ATOM     20  O   UNL     1      10.157  16.265  20.285  0.00  0.00    +0.000 OA
BRANCH  18  21
ATOM     21  C   UNL     1      10.862  14.109  18.959  0.00  0.00    +0.000 A 
ATOM     22  C   UNL     1      11.192  13.482  17.763  0.00  0.00    +0.000 A 
ATOM     23  F   UNL     1      11.045  14.104  16.587  0.00  0.00    +0.000 F 
ATOM     24  C   UNL     1      11.677  12.171  17.753  0.00  0.00    +0.000 A 
ATOM     25  C   UNL     1      11.848  11.481  18.952  0.00  0.00    +0.000 A 
ATOM     26  C   UNL     1      11.525  12.109  20.154  0.00  0.00    +0.000 A 
ATOM     27  C   UNL     1      11.029  13.414  20.151  0.00  0.00    +0.000 A 
ATOM     28  F   UNL     1      10.699  13.953  21.332  0.00  0.00    +0.000 F 
ENDBRANCH  18  21
ENDBRANCH   4  18
TORSDOF 5
ENDMDL
MODEL 9
REMARK VINA RESULT:      -6.5      6.287     11.117
REMARK  Name = 
REMARK  6 active torsions:
REMARK  status: ('A' for Active; 'I' for Inactive)
REMARK    1  A    between atoms: C_1  and  O_2
REMARK    2  A    between atoms: O_2  and  C_3
REMARK    3  A    between atoms: C_6  and  S_7
REMARK    4  A    between atoms: S_7  and  N_10
REMARK    5  A    between atoms: N_13  and  S_14
REMARK    6  A    between atoms: S_14  and  C_17
REMARK                            x       y       z     vdW  Elec       q    Type
REMARK                         _______ _______ _______ _____ _____    ______ ____
ROOT
ATOM      1  N   UNL     1       1.356  12.344  19.468  0.00  0.00    +0.000 NA
ATOM      2  C   UNL     1       1.212  13.452  18.480  0.00  0.00    +0.000 C 
ATOM      3  C   UNL     1       0.063  14.411  18.823  0.00  0.00    +0.000 C 
ATOM      4  N   UNL     1       0.102  14.922  20.230  0.00  0.00    +0.000 NA
ATOM      5  C   UNL     1       0.429  13.873  21.251  0.00  0.00    +0.000 C 
ATOM      6  C   UNL     1       1.595  12.963  20.824  0.00  0.00    +0.000 C 
ENDROOT
BRANCH   1   7
ATOM      7  S   UNL     1       0.177  11.100  19.476  0.00  0.00    +0.000 S 
ATOM      8  O   UNL     1      -0.618  11.237  18.277  0.00  0.00    +0.000 OA
ATOM      9  O   UNL     1      -0.454  11.111  20.780  0.00  0.00    +0.000 OA
BRANCH   7  13
ATOM     10  C   UNL     1       2.397   7.109  19.047  0.00  0.00    +0.000 A 
ATOM     11  C   UNL     1       1.869   7.496  20.288  0.00  0.00    +0.000 A 
ATOM     12  C   UNL     1       1.189   8.713  20.436  0.00  0.00    +0.000 A 
ATOM     13  C   UNL     1       1.064   9.561  19.339  0.00  0.00    +0.000 A 
ATOM     14  C   UNL     1       1.565   9.172  18.090  0.00  0.00    +0.000 A 
ATOM     15  C   UNL     1       2.233   7.950  17.947  0.00  0.00    +0.000 A 
BRANCH  10  17
ATOM     16  C   UNL     1       4.150   5.791  18.129  0.00  0.00    +0.000 C 
ATOM     17  O   UNL     1       3.062   5.913  19.040  0.00  0.00    +0.000 OA
ENDBRANCH  10  17
ENDBRANCH   7  13
ENDBRANCH   1   7
BRANCH   4  18
ATOM     18  S   UNL     1       0.809  16.448  20.474  0.00  0.00    +0.000 S 
ATOM     19  O   UNL     1       0.110  17.127  21.539  0.00  0.00    +0.000 OA
ATOM     20  O   UNL     1       2.234  16.203  20.578  0.00  0.00    +0.000 OA
BRANCH  18  21
ATOM     21  C   UNL     1       0.456  17.299  18.984  0.00  0.00    +0.000 A 
ATOM     22  C   UNL     1       1.476  17.516  18.063  0.00  0.00    +0.000 A 
ATOM     23  F   UNL     1       2.728  17.108  18.301  0.00  0.00    +0.000 F 
ATOM     24  C   UNL     1       1.223  18.182  16.861  0.00  0.00    +0.000 A 
ATOM     25  C   UNL     1      -0.066  18.625  16.565  0.00  0.00    +0.000 A 
ATOM     26  C   UNL     1      -1.092  18.403  17.483  0.00  0.00    +0.000 A 
ATOM     27  C   UNL     1      -0.825  17.748  18.687  0.00  0.00    +0.000 A 
ATOM     28  F   UNL     1      -1.840  17.597  19.546  0.00  0.00    +0.000 F 
ENDBRANCH  18  21
ENDBRANCH   4  18
TORSDOF 5
ENDMDL
