MODEL 1
REMARK VINA RESULT:      -6.9      0.000      0.000
REMARK  Name = 
REMARK  7 active torsions:
REMARK  status: ('A' for Active; 'I' for Inactive)
REMARK    1  A    between atoms: C_1  and  C_2
REMARK    2  A    between atoms: C_5  and  C_6
REMARK    3  A    between atoms: C_5  and  N_7
REMARK    4  A    between atoms: C_8  and  C_10
REMARK    5  A    between atoms: C_12  and  S_13
REMARK    6  A    between atoms: S_13  and  N_14
REMARK    7  A    between atoms: N_18  and  C_19
REMARK                            x       y       z     vdW  Elec       q    Type
REMARK                         _______ _______ _______ _____ _____    ______ ____
ROOT
ATOM      1  N   UNL     1       3.947   5.914  19.132  0.00  0.00    +0.000 N 
ATOM      2  C   UNL     1       2.569   5.941  19.183  0.00  0.00    +0.000 C 
ATOM      3  O   UNL     1       1.857   5.009  18.832  0.00  0.00    +0.000 OA
ATOM      4  H   UNL     1       4.431   6.674  19.589  0.00  0.00    +0.000 HD
ENDROOT
BRANCH   1   9
ATOM      5  C   UNL     1       7.318   4.705  15.873  0.00  0.00    +0.000 C 
ATOM      6  C   UNL     1       6.442   5.847  16.396  0.00  0.00    +0.000 C 
ATOM      7  C   UNL     1       4.949   5.551  16.216  0.00  0.00    +0.000 C 
ATOM      8  C   UNL     1       4.424   4.485  17.183  0.00  0.00    +0.000 C 
ATOM      9  C   UNL     1       4.757   4.772  18.672  0.00  0.00    +0.000 C 
ATOM     10  C   UNL     1       4.381   3.515  19.479  0.00  0.00    +0.000 C 
ATOM     11  C   UNL     1       6.269   5.063  18.816  0.00  0.00    +0.000 C 
ATOM     12  C   UNL     1       6.747   6.164  17.865  0.00  0.00    +0.000 C 
ENDBRANCH   1   9
BRANCH   2  13
ATOM     13  C   UNL     1       2.031   7.170  19.739  0.00  0.00    +0.000 A 
ATOM     14  C   UNL     1       1.562   7.417  21.024  0.00  0.00    +0.000 A 
ATOM     15  C   UNL     1       1.123   8.762  21.084  0.00  0.00    +0.000 A 
ATOM     16  C   UNL     1       1.356   9.327  19.848  0.00  0.00    +0.000 A 
ATOM     17  N   UNL     1       1.903   8.360  19.041  0.00  0.00    +0.000 N 
ATOM     18  C   UNL     1       2.216   8.544  17.638  0.00  0.00    +0.000 C 
BRANCH  15  19
ATOM     19  S   UNL     1       0.421   9.530  22.464  0.00  0.00    +0.000 S 
ATOM     20  O   UNL     1      -0.857   8.878  22.624  0.00  0.00    +0.000 OA
ATOM     21  O   UNL     1       1.462   9.519  23.463  0.00  0.00    +0.000 OA
BRANCH  19  22
ATOM     22  N   UNL     1       0.134  11.125  22.043  0.00  0.00    +0.000 NA
ATOM     23  H   UNL     1       0.911  11.530  21.526  0.00  0.00    +0.000 HD
ATOM     24  H   UNL     1      -0.205  11.675  22.829  0.00  0.00    +0.000 HD
ENDBRANCH  19  22
ENDBRANCH  15  19
ENDBRANCH   2  13
TORSDOF 4
ENDMDL
MODEL 2
REMARK VINA RESULT:      -6.9      0.787      1.018
REMARK  Name = 
REMARK  7 active torsions:
REMARK  status: ('A' for Active; 'I' for Inactive)
REMARK    1  A    between atoms: C_1  and  C_2
REMARK    2  A    between atoms: C_5  and  C_6
REMARK    3  A    between atoms: C_5  and  N_7
REMARK    4  A    between atoms: C_8  and  C_10
REMARK    5  A    between atoms: C_12  and  S_13
REMARK    6  A    between atoms: S_13  and  N_14
REMARK    7  A    between atoms: N_18  and  C_19
REMARK                            x       y       z     vdW  Elec       q    Type
REMARK                         _______ _______ _______ _____ _____    ______ ____
ROOT
ATOM      1  N   UNL     1       3.936   5.961  19.162  0.00  0.00    +0.000 N 
ATOM      2  C   UNL     1       2.557   5.977  19.191  0.00  0.00    +0.000 C 
ATOM      3  O   UNL     1       1.858   5.037  18.835  0.00  0.00    +0.000 OA
ATOM      4  H   UNL     1       4.406   6.728  19.621  0.00  0.00    +0.000 HD
ENDROOT
BRANCH   1   9
ATOM      5  C   UNL     1       7.313   4.733  15.917  0.00  0.00    +0.000 C 
ATOM      6  C   UNL     1       6.421   5.872  16.418  0.00  0.00    +0.000 C 
ATOM      7  C   UNL     1       4.932   5.549  16.251  0.00  0.00    +0.000 C 
ATOM      8  C   UNL     1       4.428   4.496  17.243  0.00  0.00    +0.000 C 
ATOM      9  C   UNL     1       4.762   4.822  18.724  0.00  0.00    +0.000 C 
ATOM     10  C   UNL     1       4.408   3.577  19.560  0.00  0.00    +0.000 C 
ATOM     11  C   UNL     1       6.270   5.140  18.855  0.00  0.00    +0.000 C 
ATOM     12  C   UNL     1       6.726   6.227  17.878  0.00  0.00    +0.000 C 
ENDBRANCH   1   9
BRANCH   2  13
ATOM     13  C   UNL     1       2.000   7.206  19.728  0.00  0.00    +0.000 A 
ATOM     14  C   UNL     1       1.499   7.456  21.000  0.00  0.00    +0.000 A 
ATOM     15  C   UNL     1       1.052   8.799  21.044  0.00  0.00    +0.000 A 
ATOM     16  C   UNL     1       1.314   9.360  19.812  0.00  0.00    +0.000 A 
ATOM     17  N   UNL     1       1.885   8.392  19.022  0.00  0.00    +0.000 N 
ATOM     18  C   UNL     1       2.231   8.572  17.626  0.00  0.00    +0.000 C 
BRANCH  15  19
ATOM     19  S   UNL     1       0.314   9.570  22.403  0.00  0.00    +0.000 S 
ATOM     20  O   UNL     1       1.348   9.584  23.410  0.00  0.00    +0.000 OA
ATOM     21  O   UNL     1      -0.304  10.757  21.864  0.00  0.00    +0.000 OA
BRANCH  19  22
ATOM     22  N   UNL     1      -0.908   8.556  22.937  0.00  0.00    +0.000 NA
ATOM     23  H   UNL     1      -1.823   8.857  22.612  0.00  0.00    +0.000 HD
ATOM     24  H   UNL     1      -0.837   8.360  23.933  0.00  0.00    +0.000 HD
ENDBRANCH  19  22
ENDBRANCH  15  19
ENDBRANCH   2  13
TORSDOF 4
ENDMDL
MODEL 3
REMARK VINA RESULT:      -6.9      4.742      8.046
REMARK  Name = 
REMARK  7 active torsions:
REMARK  status: ('A' for Active; 'I' for Inactive)
REMARK    1  A    between atoms: C_1  and  C_2
REMARK    2  A    between atoms: C_5  and  C_6
REMARK    3  A    between atoms: C_5  and  N_7
REMARK    4  A    between atoms: C_8  and  C_10
REMARK    5  A    between atoms: C_12  and  S_13
REMARK    6  A    between atoms: S_13  and  N_14
REMARK    7  A    between atoms: N_18  and  C_19
REMARK                            x       y       z     vdW  Elec       q    Type
REMARK                         _______ _______ _______ _____ _____    ______ ____
ROOT
ATOM      1  N   UNL     1       3.541   4.733  17.363  0.00  0.00    +0.000 N 
ATOM      2  C   UNL     1       4.577   5.540  16.939  0.00  0.00    +0.000 C 
ATOM      3  O   UNL     1       4.845   6.623  17.443  0.00  0.00    +0.000 OA
ATOM      4  H   UNL     1       3.510   3.800  16.979  0.00  0.00    +0.000 HD
ENDROOT
BRANCH   1   9
ATOM      5  C   UNL     1       1.365   2.683  21.172  0.00  0.00    +0.000 C 
ATOM      6  C   UNL     1       2.302   2.432  19.987  0.00  0.00    +0.000 C 
ATOM      7  C   UNL     1       1.603   2.674  18.644  0.00  0.00    +0.000 C 
ATOM      8  C   UNL     1       1.358   4.157  18.350  0.00  0.00    +0.000 C 
ATOM      9  C   UNL     1       2.630   5.039  18.480  0.00  0.00    +0.000 C 
ATOM     10  C   UNL     1       2.181   6.510  18.391  0.00  0.00    +0.000 C 
ATOM     11  C   UNL     1       3.306   4.771  19.845  0.00  0.00    +0.000 C 
ATOM     12  C   UNL     1       3.574   3.282  20.083  0.00  0.00    +0.000 C 
ENDBRANCH   1   9
BRANCH   2  13
ATOM     13  C   UNL     1       5.358   4.965  15.859  0.00  0.00    +0.000 A 
ATOM     14  C   UNL     1       4.986   4.726  14.541  0.00  0.00    +0.000 A 
ATOM     15  C   UNL     1       6.084   4.137  13.870  0.00  0.00    +0.000 A 
ATOM     16  C   UNL     1       7.121   4.052  14.775  0.00  0.00    +0.000 A 
ATOM     17  N   UNL     1       6.675   4.553  15.974  0.00  0.00    +0.000 N 
ATOM     18  C   UNL     1       7.451   4.561  17.198  0.00  0.00    +0.000 C 
BRANCH  15  19
ATOM     19  S   UNL     1       6.097   3.622  12.221  0.00  0.00    +0.000 S 
ATOM     20  O   UNL     1       4.733   3.797  11.781  0.00  0.00    +0.000 OA
ATOM     21  O   UNL     1       7.227   4.298  11.631  0.00  0.00    +0.000 OA
BRANCH  19  22
ATOM     22  N   UNL     1       6.429   1.981  12.222  0.00  0.00    +0.000 NA
ATOM     23  H   UNL     1       6.519   1.608  11.280  0.00  0.00    +0.000 HD
ATOM     24  H   UNL     1       5.810   1.464  12.843  0.00  0.00    +0.000 HD
ENDBRANCH  19  22
ENDBRANCH  15  19
ENDBRANCH   2  13
TORSDOF 4
ENDMDL
MODEL 4
REMARK VINA RESULT:      -6.8      2.978      4.293
REMARK  Name = 
REMARK  7 active torsions:
REMARK  status: ('A' for Active; 'I' for Inactive)
REMARK    1  A    between atoms: C_1  and  C_2
REMARK    2  A    between atoms: C_5  and  C_6
REMARK    3  A    between atoms: C_5  and  N_7
REMARK    4  A    between atoms: C_8  and  C_10
REMARK    5  A    between atoms: C_12  and  S_13
REMARK    6  A    between atoms: S_13  and  N_14
REMARK    7  A    between atoms: N_18  and  C_19
REMARK                            x       y       z     vdW  Elec       q    Type
REMARK                         _______ _______ _______ _____ _____    ______ ____
ROOT
ATOM      1  N   UNL     1       2.104   6.790  19.337  0.00  0.00    +0.000 N 
ATOM      2  C   UNL     1       2.238   7.976  18.645  0.00  0.00    +0.000 C 
ATOM      3  O   UNL     1       3.130   8.194  17.836  0.00  0.00    +0.000 OA
ATOM      4  H   UNL     1       1.248   6.666  19.859  0.00  0.00    +0.000 HD
ENDROOT
BRANCH   1   9
ATOM      5  C   UNL     1       1.995   1.992  18.695  0.00  0.00    +0.000 C 
ATOM      6  C   UNL     1       1.135   3.249  18.856  0.00  0.00    +0.000 C 
ATOM      7  C   UNL     1       1.343   3.913  20.222  0.00  0.00    +0.000 C 
ATOM      8  C   UNL     1       2.695   4.622  20.348  0.00  0.00    +0.000 C 
ATOM      9  C   UNL     1       2.989   5.620  19.194  0.00  0.00    +0.000 C 
ATOM     10  C   UNL     1       4.458   6.063  19.332  0.00  0.00    +0.000 C 
ATOM     11  C   UNL     1       2.771   4.915  17.835  0.00  0.00    +0.000 C 
ATOM     12  C   UNL     1       1.392   4.257  17.730  0.00  0.00    +0.000 C 
ENDBRANCH   1   9
BRANCH   2  13
ATOM     13  C   UNL     1       1.189   8.939  18.932  0.00  0.00    +0.000 A 
ATOM     14  C   UNL     1       0.392   9.653  18.046  0.00  0.00    +0.000 A 
ATOM     15  C   UNL     1      -0.475  10.481  18.798  0.00  0.00    +0.000 A 
ATOM     16  C   UNL     1      -0.219  10.240  20.132  0.00  0.00    +0.000 A 
ATOM     17  N   UNL     1       0.788   9.309  20.205  0.00  0.00    +0.000 N 
ATOM     18  C   UNL     1       1.395   8.853  21.439  0.00  0.00    +0.000 C 
BRANCH  15  19
ATOM     19  S   UNL     1      -1.631  11.586  18.144  0.00  0.00    +0.000 S 
ATOM     20  O   UNL     1      -2.114  10.933  16.950  0.00  0.00    +0.000 OA
ATOM     21  O   UNL     1      -2.470  11.949  19.260  0.00  0.00    +0.000 OA
BRANCH  19  22
ATOM     22  N   UNL     1      -0.788  12.955  17.673  0.00  0.00    +0.000 NA
ATOM     23  H   UNL     1      -0.542  12.932  16.686  0.00  0.00    +0.000 HD
ATOM     24  H   UNL     1      -0.027  13.176  18.311  0.00  0.00    +0.000 HD
ENDBRANCH  19  22
ENDBRANCH  15  19
ENDBRANCH   2  13
TORSDOF 4
ENDMDL
MODEL 5
REMARK VINA RESULT:      -6.6      1.785      2.964
REMARK  Name = 
REMARK  7 active torsions:
REMARK  status: ('A' for Active; 'I' for Inactive)
REMARK    1  A    between atoms: C_1  and  C_2
REMARK    2  A    between atoms: C_5  and  C_6
REMARK    3  A    between atoms: C_5  and  N_7
REMARK    4  A    between atoms: C_8  and  C_10
REMARK    5  A    between atoms: C_12  and  S_13
REMARK    6  A    between atoms: S_13  and  N_14
REMARK    7  A    between atoms: N_18  and  C_19
REMARK                            x       y       z     vdW  Elec       q    Type
REMARK                         _______ _______ _______ _____ _____    ______ ____
ROOT
ATOM      1  N   UNL     1       2.874   6.162  19.775  0.00  0.00    +0.000 N 
ATOM      2  C   UNL     1       2.618   7.348  19.118  0.00  0.00    +0.000 C 
ATOM      3  O   UNL     1       2.997   7.591  17.979  0.00  0.00    +0.000 OA
ATOM      4  H   UNL     1       2.384   6.013  20.645  0.00  0.00    +0.000 HD
ENDROOT
BRANCH   1   9
ATOM      5  C   UNL     1       2.209   1.741  17.917  0.00  0.00    +0.000 C 
ATOM      6  C   UNL     1       1.504   2.959  18.521  0.00  0.00    +0.000 C 
ATOM      7  C   UNL     1       1.937   3.209  19.970  0.00  0.00    +0.000 C 
ATOM      8  C   UNL     1       3.359   3.767  20.087  0.00  0.00    +0.000 C 
ATOM      9  C   UNL     1       3.614   5.021  19.207  0.00  0.00    +0.000 C 
ATOM     10  C   UNL     1       5.126   5.313  19.249  0.00  0.00    +0.000 C 
ATOM     11  C   UNL     1       3.168   4.731  17.755  0.00  0.00    +0.000 C 
ATOM     12  C   UNL     1       1.728   4.218  17.675  0.00  0.00    +0.000 C 
ENDBRANCH   1   9
BRANCH   2  13
ATOM     13  C   UNL     1       1.811   8.278  19.888  0.00  0.00    +0.000 A 
ATOM     14  C   UNL     1       1.420   8.202  21.220  0.00  0.00    +0.000 A 
ATOM     15  C   UNL     1       0.626   9.337  21.514  0.00  0.00    +0.000 A 
ATOM     16  C   UNL     1       0.568  10.105  20.371  0.00  0.00    +0.000 A 
ATOM     17  N   UNL     1       1.284   9.459  19.393  0.00  0.00    +0.000 N 
ATOM     18  C   UNL     1       1.393   9.914  18.021  0.00  0.00    +0.000 C 
BRANCH  15  19
ATOM     19  S   UNL     1      -0.125   9.672  23.033  0.00  0.00    +0.000 S 
ATOM     20  O   UNL     1      -1.306   8.842  23.039  0.00  0.00    +0.000 OA
ATOM     21  O   UNL     1       0.939   9.568  24.004  0.00  0.00    +0.000 OA
BRANCH  19  22
ATOM     22  N   UNL     1      -0.623  11.270  22.992  0.00  0.00    +0.000 NA
ATOM     23  H   UNL     1      -0.570  11.663  22.055  0.00  0.00    +0.000 HD
ATOM     24  H   UNL     1      -0.193  11.826  23.727  0.00  0.00    +0.000 HD
ENDBRANCH  19  22
ENDBRANCH  15  19
ENDBRANCH   2  13
TORSDOF 4
ENDMDL
MODEL 6
REMARK VINA RESULT:      -6.3      1.235      1.608
REMARK  Name = 
REMARK  7 active torsions:
REMARK  status: ('A' for Active; 'I' for Inactive)
REMARK    1  A    between atoms: C_1  and  C_2
REMARK    2  A    between atoms: C_5  and  C_6
REMARK    3  A    between atoms: C_5  and  N_7
REMARK    4  A    between atoms: C_8  and  C_10
REMARK    5  A    between atoms: C_12  and  S_13
REMARK    6  A    between atoms: S_13  and  N_14
REMARK    7  A    between atoms: N_18  and  C_19
REMARK                            x       y       z     vdW  Elec       q    Type
REMARK                         _______ _______ _______ _____ _____    ______ ____
ROOT
ATOM      1  N   UNL     1       3.193   6.158  18.513  0.00  0.00    +0.000 N 
ATOM      2  C   UNL     1       2.448   6.266  19.669  0.00  0.00    +0.000 C 
ATOM      3  O   UNL     1       2.293   5.349  20.466  0.00  0.00    +0.000 OA
ATOM      4  H   UNL     1       3.379   7.016  18.014  0.00  0.00    +0.000 HD
ENDROOT
BRANCH   1   9
ATOM      5  C   UNL     1       7.650   4.540  17.528  0.00  0.00    +0.000 C 
ATOM      6  C   UNL     1       6.834   5.760  17.968  0.00  0.00    +0.000 C 
ATOM      7  C   UNL     1       5.839   6.201  16.889  0.00  0.00    +0.000 C 
ATOM      8  C   UNL     1       4.647   5.251  16.742  0.00  0.00    +0.000 C 
ATOM      9  C   UNL     1       3.918   4.949  18.080  0.00  0.00    +0.000 C 
ATOM     10  C   UNL     1       2.913   3.814  17.811  0.00  0.00    +0.000 C 
ATOM     11  C   UNL     1       4.951   4.506  19.142  0.00  0.00    +0.000 C 
ATOM     12  C   UNL     1       6.103   5.503  19.291  0.00  0.00    +0.000 C 
ENDBRANCH   1   9
BRANCH   2  13
ATOM     13  C   UNL     1       1.894   7.591  19.883  0.00  0.00    +0.000 A 
ATOM     14  C   UNL     1       1.316   8.122  21.029  0.00  0.00    +0.000 A 
ATOM     15  C   UNL     1       0.908   9.448  20.746  0.00  0.00    +0.000 A 
ATOM     16  C   UNL     1       1.270   9.720  19.444  0.00  0.00    +0.000 A 
ATOM     17  N   UNL     1       1.863   8.594  18.928  0.00  0.00    +0.000 N 
ATOM     18  C   UNL     1       2.308   8.457  17.556  0.00  0.00    +0.000 C 
BRANCH  15  19
ATOM     19  S   UNL     1       0.104  10.510  21.846  0.00  0.00    +0.000 S 
ATOM     20  O   UNL     1       0.874  11.730  21.794  0.00  0.00    +0.000 OA
ATOM     21  O   UNL     1      -1.293  10.422  21.492  0.00  0.00    +0.000 OA
BRANCH  19  22
ATOM     22  N   UNL     1       0.283   9.856  23.378  0.00  0.00    +0.000 NA
ATOM     23  H   UNL     1       0.425   8.850  23.350  0.00  0.00    +0.000 HD
ATOM     24  H   UNL     1      -0.436  10.181  24.021  0.00  0.00    +0.000 HD
ENDBRANCH  19  22
ENDBRANCH  15  19
ENDBRANCH   2  13
TORSDOF 4
ENDMDL
MODEL 7
REMARK VINA RESULT:      -6.2      5.006      8.181
REMARK  Name = 
REMARK  7 active torsions:
REMARK  status: ('A' for Active; 'I' for Inactive)
REMARK    1  A    between atoms: C_1  and  C_2
REMARK    2  A    between atoms: C_5  and  C_6
REMARK    3  A    between atoms: C_5  and  N_7
REMARK    4  A    between atoms: C_8  and  C_10
REMARK    5  A    between atoms: C_12  and  S_13
REMARK    6  A    between atoms: S_13  and  N_14
REMARK    7  A    between atoms: N_18  and  C_19
REMARK                            x       y       z     vdW  Elec       q    Type
REMARK                         _______ _______ _______ _____ _____    ______ ____
ROOT
ATOM      1  N   UNL     1       4.288   4.194  17.664  0.00  0.00    +0.000 N 
ATOM      2  C   UNL     1       4.621   5.198  16.778  0.00  0.00    +0.000 C 
ATOM      3  O   UNL     1       4.334   6.376  16.946  0.00  0.00    +0.000 OA
ATOM      4  H   UNL     1       4.708   3.290  17.501  0.00  0.00    +0.000 HD
ENDROOT
BRANCH   1   9
ATOM      5  C   UNL     1       0.377   2.684  20.086  0.00  0.00    +0.000 C 
ATOM      6  C   UNL     1       1.173   2.535  18.786  0.00  0.00    +0.000 C 
ATOM      7  C   UNL     1       1.220   3.845  17.992  0.00  0.00    +0.000 C 
ATOM      8  C   UNL     1       2.131   4.902  18.624  0.00  0.00    +0.000 C 
ATOM      9  C   UNL     1       3.564   4.389  18.933  0.00  0.00    +0.000 C 
ATOM     10  C   UNL     1       4.271   5.473  19.769  0.00  0.00    +0.000 C 
ATOM     11  C   UNL     1       3.477   3.070  19.736  0.00  0.00    +0.000 C 
ATOM     12  C   UNL     1       2.594   2.023  19.051  0.00  0.00    +0.000 C 
ENDBRANCH   1   9
BRANCH   2  13
ATOM     13  C   UNL     1       5.391   4.735  15.637  0.00  0.00    +0.000 A 
ATOM     14  C   UNL     1       4.952   4.410  14.359  0.00  0.00    +0.000 A 
ATOM     15  C   UNL     1       6.071   3.994  13.598  0.00  0.00    +0.000 A 
ATOM     16  C   UNL     1       7.182   4.099  14.409  0.00  0.00    +0.000 A 
ATOM     17  N   UNL     1       6.763   4.546  15.639  0.00  0.00    +0.000 N 
ATOM     18  C   UNL     1       7.629   4.708  16.790  0.00  0.00    +0.000 C 
BRANCH  15  19
ATOM     19  S   UNL     1       6.028   3.453  11.958  0.00  0.00    +0.000 S 
ATOM     20  O   UNL     1       4.657   3.651  11.553  0.00  0.00    +0.000 OA
ATOM     21  O   UNL     1       7.156   4.095  11.327  0.00  0.00    +0.000 OA
BRANCH  19  22
ATOM     22  N   UNL     1       6.323   1.805  11.978  0.00  0.00    +0.000 NA
ATOM     23  H   UNL     1       5.647   1.288  11.421  0.00  0.00    +0.000 HD
ATOM     24  H   UNL     1       6.478   1.453  12.920  0.00  0.00    +0.000 HD
ENDBRANCH  19  22
ENDBRANCH  15  19
ENDBRANCH   2  13
TORSDOF 4
ENDMDL
MODEL 8
REMARK VINA RESULT:      -6.2      3.329      4.542
REMARK  Name = 
REMARK  7 active torsions:
REMARK  status: ('A' for Active; 'I' for Inactive)
REMARK    1  A    between atoms: C_1  and  C_2
REMARK    2  A    between atoms: C_5  and  C_6
REMARK    3  A    between atoms: C_5  and  N_7
REMARK    4  A    between atoms: C_8  and  C_10
REMARK    5  A    between atoms: C_12  and  S_13
REMARK    6  A    between atoms: S_13  and  N_14
REMARK    7  A    between atoms: N_18  and  C_19
REMARK                            x       y       z     vdW  Elec       q    Type
REMARK                         _______ _______ _______ _____ _____    ______ ____
ROOT
ATOM      1  N   UNL     1       5.342   5.845  17.872  0.00  0.00    +0.000 N 
ATOM      2  C   UNL     1       4.117   6.406  18.168  0.00  0.00    +0.000 C 
ATOM      3  O   UNL     1       3.685   7.419  17.632  0.00  0.00    +0.000 OA
ATOM      4  H   UNL     1       5.525   4.931  18.261  0.00  0.00    +0.000 HD
ENDROOT
BRANCH   1   9
ATOM      5  C   UNL     1       7.256   4.800  13.549  0.00  0.00    +0.000 C 
ATOM      6  C   UNL     1       6.287   4.318  14.634  0.00  0.00    +0.000 C 
ATOM      7  C   UNL     1       7.004   4.049  15.961  0.00  0.00    +0.000 C 
ATOM      8  C   UNL     1       7.438   5.329  16.684  0.00  0.00    +0.000 C 
ATOM      9  C   UNL     1       6.292   6.361  16.871  0.00  0.00    +0.000 C 
ATOM     10  C   UNL     1       6.928   7.666  17.386  0.00  0.00    +0.000 C 
ATOM     11  C   UNL     1       5.595   6.609  15.513  0.00  0.00    +0.000 C 
ATOM     12  C   UNL     1       5.137   5.310  14.843  0.00  0.00    +0.000 C 
ENDBRANCH   1   9
BRANCH   2  13
ATOM     13  C   UNL     1       3.354   5.656  19.150  0.00  0.00    +0.000 A 
ATOM     14  C   UNL     1       3.407   4.299  19.448  0.00  0.00    +0.000 A 
ATOM     15  C   UNL     1       2.461   4.033  20.468  0.00  0.00    +0.000 A 
ATOM     16  C   UNL     1       1.866   5.232  20.801  0.00  0.00    +0.000 A 
ATOM     17  N   UNL     1       2.410   6.207  20.000  0.00  0.00    +0.000 N 
ATOM     18  C   UNL     1       1.985   7.592  19.993  0.00  0.00    +0.000 C 
BRANCH  15  19
ATOM     19  S   UNL     1       2.128   2.481  21.150  0.00  0.00    +0.000 S 
ATOM     20  O   UNL     1       1.609   1.709  20.046  0.00  0.00    +0.000 OA
ATOM     21  O   UNL     1       3.322   2.136  21.885  0.00  0.00    +0.000 OA
BRANCH  19  22
ATOM     22  N   UNL     1       0.890   2.688  22.258  0.00  0.00    +0.000 NA
ATOM     23  H   UNL     1       1.157   2.387  23.192  0.00  0.00    +0.000 HD
ATOM     24  H   UNL     1       0.003   2.325  21.916  0.00  0.00    +0.000 HD
ENDBRANCH  19  22
ENDBRANCH  15  19
ENDBRANCH   2  13
TORSDOF 4
ENDMDL
MODEL 9
REMARK VINA RESULT:      -6.2      3.251      4.560
REMARK  Name = 
REMARK  7 active torsions:
REMARK  status: ('A' for Active; 'I' for Inactive)
REMARK    1  A    between atoms: C_1  and  C_2
REMARK    2  A    between atoms: C_5  and  C_6
REMARK    3  A    between atoms: C_5  and  N_7
REMARK    4  A    between atoms: C_8  and  C_10
REMARK    5  A    between atoms: C_12  and  S_13
REMARK    6  A    between atoms: S_13  and  N_14
REMARK    7  A    between atoms: N_18  and  C_19
REMARK                            x       y       z     vdW  Elec       q    Type
REMARK                         _______ _______ _______ _____ _____    ______ ____
ROOT
ATOM      1  N   UNL     1       5.300   5.920  17.878  0.00  0.00    +0.000 N 
ATOM      2  C   UNL     1       4.063   6.478  18.132  0.00  0.00    +0.000 C 
ATOM      3  O   UNL     1       3.635   7.473  17.561  0.00  0.00    +0.000 OA
ATOM      4  H   UNL     1       5.482   5.018  18.293  0.00  0.00    +0.000 HD
ENDROOT
BRANCH   1   9
ATOM      5  C   UNL     1       7.288   4.805  13.606  0.00  0.00    +0.000 C 
ATOM      6  C   UNL     1       6.301   4.341  14.681  0.00  0.00    +0.000 C 
ATOM      7  C   UNL     1       6.994   4.094  16.025  0.00  0.00    +0.000 C 
ATOM      8  C   UNL     1       7.415   5.385  16.734  0.00  0.00    +0.000 C 
ATOM      9  C   UNL     1       6.267   6.420  16.884  0.00  0.00    +0.000 C 
ATOM     10  C   UNL     1       6.894   7.733  17.390  0.00  0.00    +0.000 C 
ATOM     11  C   UNL     1       5.594   6.646  15.511  0.00  0.00    +0.000 C 
ATOM     12  C   UNL     1       5.147   5.337  14.854  0.00  0.00    +0.000 C 
ENDBRANCH   1   9
BRANCH   2  13
ATOM     13  C   UNL     1       3.286   5.745  19.116  0.00  0.00    +0.000 A 
ATOM     14  C   UNL     1       3.315   4.390  19.421  0.00  0.00    +0.000 A 
ATOM     15  C   UNL     1       2.363   4.144  20.440  0.00  0.00    +0.000 A 
ATOM     16  C   UNL     1       1.786   5.354  20.764  0.00  0.00    +0.000 A 
ATOM     17  N   UNL     1       2.348   6.316  19.960  0.00  0.00    +0.000 N 
ATOM     18  C   UNL     1       1.945   7.708  19.944  0.00  0.00    +0.000 C 
BRANCH  15  19
ATOM     19  S   UNL     1       2.003   2.602  21.129  0.00  0.00    +0.000 S 
ATOM     20  O   UNL     1       1.215   2.909  22.299  0.00  0.00    +0.000 OA
ATOM     21  O   UNL     1       1.528   1.804  20.025  0.00  0.00    +0.000 OA
BRANCH  19  22
ATOM     22  N   UNL     1       3.454   1.945  21.647  0.00  0.00    +0.000 NA
ATOM     23  H   UNL     1       3.621   1.025  21.248  0.00  0.00    +0.000 HD
ATOM     24  H   UNL     1       3.570   2.016  22.655  0.00  0.00    +0.000 HD
ENDBRANCH  19  22
ENDBRANCH  15  19
ENDBRANCH   2  13
TORSDOF 4
ENDMDL
