MODEL 1
REMARK VINA RESULT:      -8.7      0.000      0.000
REMARK  Name = 
REMARK  7 active torsions:
REMARK  status: ('A' for Active; 'I' for Inactive)
REMARK    1  A    between atoms: C_1  and  C_2
REMARK    2  A    between atoms: C_2  and  C_3
REMARK    3  A    between atoms: C_5  and  C_6
REMARK    4  A    between atoms: C_8  and  C_9
REMARK    5  A    between atoms: C_12  and  O_13
REMARK    6  A    between atoms: O_13  and  C_14
REMARK    7  A    between atoms: N_24  and  C_25
REMARK                            x       y       z     vdW  Elec       q    Type
REMARK                         _______ _______ _______ _____ _____    ______ ____
ROOT
ATOM      1  C   UNL     1       4.676   5.346  17.617  0.00  0.00    +0.000 C 
ATOM      2  N   UNL     1       3.394   5.307  17.459  0.00  0.00    +0.000 NA
ATOM      3  C   UNL     1       2.905   5.729  18.785  0.00  0.00    +0.000 C 
ATOM      4  C   UNL     1       4.099   5.483  19.701  0.00  0.00    +0.000 C 
ATOM      5  O   UNL     1       5.217   5.591  18.838  0.00  0.00    +0.000 OA
ENDROOT
BRANCH   1   8
ATOM      6  C   UNL     1       6.279   4.617  14.617  0.00  0.00    +0.000 A 
ATOM      7  C   UNL     1       5.389   5.526  15.225  0.00  0.00    +0.000 A 
ATOM      8  C   UNL     1       5.627   5.309  16.568  0.00  0.00    +0.000 A 
ATOM      9  N   UNL     1       6.895   4.797  16.623  0.00  0.00    +0.000 N 
ATOM     10  C   UNL     1       7.735   4.631  17.784  0.00  0.00    +0.000 C 
ATOM     11  N   UNL     1       7.289   4.288  15.435  0.00  0.00    +0.000 NA
BRANCH   6  13
ATOM     12  C   UNL     1       7.062   4.151  12.331  0.00  0.00    +0.000 C 
ATOM     13  C   UNL     1       5.989   3.843  13.380  0.00  0.00    +0.000 C 
ENDBRANCH   6  13
ENDBRANCH   1   8
BRANCH   3  14
ATOM     14  C   UNL     1       2.404   7.165  18.836  0.00  0.00    +0.000 A 
ATOM     15  C   UNL     1       2.504   8.074  17.765  0.00  0.00    +0.000 A 
ATOM     16  C   UNL     1       1.914   9.343  17.843  0.00  0.00    +0.000 A 
ATOM     17  C   UNL     1       1.215   9.722  18.989  0.00  0.00    +0.000 A 
ATOM     18  C   UNL     1       1.228   8.883  20.104  0.00  0.00    +0.000 A 
ATOM     19  C   UNL     1       1.787   7.606  20.016  0.00  0.00    +0.000 A 
BRANCH  17  20
ATOM     20  O   UNL     1       0.578  10.944  18.967  0.00  0.00    +0.000 OA
BRANCH  20  21
ATOM     21  C   UNL     1      -0.777  10.988  18.694  0.00  0.00    +0.000 A 
ATOM     22  C   UNL     1      -1.237  10.094  17.725  0.00  0.00    +0.000 A 
ATOM     23  C   UNL     1      -2.586  10.082  17.360  0.00  0.00    +0.000 A 
ATOM     24  C   UNL     1      -3.480  10.969  17.960  0.00  0.00    +0.000 A 
ATOM     25  C   UNL     1      -3.034  11.838  18.953  0.00  0.00    +0.000 A 
ATOM     26  C   UNL     1      -1.693  11.826  19.341  0.00  0.00    +0.000 A 
ENDBRANCH  20  21
ENDBRANCH  17  20
ENDBRANCH   3  14
TORSDOF 5
ENDMDL
MODEL 2
REMARK VINA RESULT:      -8.6      0.393      1.076
REMARK  Name = 
REMARK  7 active torsions:
REMARK  status: ('A' for Active; 'I' for Inactive)
REMARK    1  A    between atoms: C_1  and  C_2
REMARK    2  A    between atoms: C_2  and  C_3
REMARK    3  A    between atoms: C_5  and  C_6
REMARK    4  A    between atoms: C_8  and  C_9
REMARK    5  A    between atoms: C_12  and  O_13
REMARK    6  A    between atoms: O_13  and  C_14
REMARK    7  A    between atoms: N_24  and  C_25
REMARK                            x       y       z     vdW  Elec       q    Type
REMARK                         _______ _______ _______ _____ _____    ______ ____
ROOT
ATOM      1  C   UNL     1       4.774   5.374  17.694  0.00  0.00    +0.000 C 
ATOM      2  N   UNL     1       3.515   5.343  17.403  0.00  0.00    +0.000 NA
ATOM      3  C   UNL     1       2.889   5.654  18.702  0.00  0.00    +0.000 C 
ATOM      4  C   UNL     1       3.986   5.339  19.712  0.00  0.00    +0.000 C 
ATOM      5  O   UNL     1       5.185   5.521  18.980  0.00  0.00    +0.000 OA
ENDROOT
BRANCH   1   8
ATOM      6  C   UNL     1       6.722   4.826  14.864  0.00  0.00    +0.000 A 
ATOM      7  C   UNL     1       5.712   5.658  15.392  0.00  0.00    +0.000 A 
ATOM      8  C   UNL     1       5.827   5.427  16.748  0.00  0.00    +0.000 A 
ATOM      9  N   UNL     1       7.116   5.001  16.925  0.00  0.00    +0.000 N 
ATOM     10  C   UNL     1       7.843   4.867  18.164  0.00  0.00    +0.000 C 
ATOM     11  N   UNL     1       7.664   4.549  15.776  0.00  0.00    +0.000 NA
BRANCH   6  13
ATOM     12  C   UNL     1       5.135   3.822  13.274  0.00  0.00    +0.000 C 
ATOM     13  C   UNL     1       6.614   4.063  13.591  0.00  0.00    +0.000 C 
ENDBRANCH   6  13
ENDBRANCH   1   8
BRANCH   3  14
ATOM     14  C   UNL     1       2.367   7.078  18.817  0.00  0.00    +0.000 A 
ATOM     15  C   UNL     1       2.370   8.007  17.758  0.00  0.00    +0.000 A 
ATOM     16  C   UNL     1       1.765   9.263  17.903  0.00  0.00    +0.000 A 
ATOM     17  C   UNL     1       1.147   9.609  19.106  0.00  0.00    +0.000 A 
ATOM     18  C   UNL     1       1.259   8.751  20.201  0.00  0.00    +0.000 A 
ATOM     19  C   UNL     1       1.833   7.488  20.048  0.00  0.00    +0.000 A 
BRANCH  17  20
ATOM     20  O   UNL     1       0.489  10.818  19.154  0.00  0.00    +0.000 OA
BRANCH  20  21
ATOM     21  C   UNL     1      -0.831  10.879  18.746  0.00  0.00    +0.000 A 
ATOM     22  C   UNL     1      -1.615  11.866  19.348  0.00  0.00    +0.000 A 
ATOM     23  C   UNL     1      -2.968  11.987  19.022  0.00  0.00    +0.000 A 
ATOM     24  C   UNL     1      -3.544  11.121  18.093  0.00  0.00    +0.000 A 
ATOM     25  C   UNL     1      -2.759  10.159  17.462  0.00  0.00    +0.000 A 
ATOM     26  C   UNL     1      -1.400  10.058  17.764  0.00  0.00    +0.000 A 
ENDBRANCH  20  21
ENDBRANCH  17  20
ENDBRANCH   3  14
TORSDOF 5
ENDMDL
MODEL 3
REMARK VINA RESULT:      -8.5      3.255      8.931
REMARK  Name = 
REMARK  7 active torsions:
REMARK  status: ('A' for Active; 'I' for Inactive)
REMARK    1  A    between atoms: C_1  and  C_2
REMARK    2  A    between atoms: C_2  and  C_3
REMARK    3  A    between atoms: C_5  and  C_6
REMARK    4  A    between atoms: C_8  and  C_9
REMARK    5  A    between atoms: C_12  and  O_13
REMARK    6  A    between atoms: O_13  and  C_14
REMARK    7  A    between atoms: N_24  and  C_25
REMARK                            x       y       z     vdW  Elec       q    Type
REMARK                         _______ _______ _______ _____ _____    ______ ____
ROOT
ATOM      1  C   UNL     1      -0.800  10.539  19.130  0.00  0.00    +0.000 C 
ATOM      2  N   UNL     1       0.276  10.611  18.416  0.00  0.00    +0.000 NA
ATOM      3  C   UNL     1       1.305  10.134  19.359  0.00  0.00    +0.000 C 
ATOM      4  C   UNL     1       0.650  10.312  20.724  0.00  0.00    +0.000 C 
ATOM      5  O   UNL     1      -0.737  10.224  20.449  0.00  0.00    +0.000 OA
ENDROOT
BRANCH   1   8
ATOM      6  C   UNL     1      -3.514  10.762  16.964  0.00  0.00    +0.000 A 
ATOM      7  C   UNL     1      -2.659   9.842  17.607  0.00  0.00    +0.000 A 
ATOM      8  C   UNL     1      -2.120  10.608  18.621  0.00  0.00    +0.000 A 
ATOM      9  N   UNL     1      -3.034  11.605  18.833  0.00  0.00    +0.000 N 
ATOM     10  C   UNL     1      -3.099  12.527  19.941  0.00  0.00    +0.000 C 
ATOM     11  N   UNL     1      -3.861  11.770  17.777  0.00  0.00    +0.000 NA
BRANCH   6  13
ATOM     12  C   UNL     1      -2.794   9.846  14.797  0.00  0.00    +0.000 C 
ATOM     13  C   UNL     1      -3.740  10.828  15.495  0.00  0.00    +0.000 C 
ENDBRANCH   6  13
ENDBRANCH   1   8
BRANCH   3  14
ATOM     14  C   UNL     1       1.770   8.708  19.104  0.00  0.00    +0.000 A 
ATOM     15  C   UNL     1       2.208   8.233  17.853  0.00  0.00    +0.000 A 
ATOM     16  C   UNL     1       2.734   6.940  17.720  0.00  0.00    +0.000 A 
ATOM     17  C   UNL     1       2.831   6.105  18.834  0.00  0.00    +0.000 A 
ATOM     18  C   UNL     1       2.275   6.517  20.045  0.00  0.00    +0.000 A 
ATOM     19  C   UNL     1       1.781   7.815  20.187  0.00  0.00    +0.000 A 
BRANCH  17  20
ATOM     20  O   UNL     1       3.443   4.883  18.657  0.00  0.00    +0.000 OA
BRANCH  20  21
ATOM     21  C   UNL     1       4.738   4.846  18.173  0.00  0.00    +0.000 A 
ATOM     22  C   UNL     1       4.899   4.313  16.892  0.00  0.00    +0.000 A 
ATOM     23  C   UNL     1       6.173   4.208  16.328  0.00  0.00    +0.000 A 
ATOM     24  C   UNL     1       7.292   4.632  17.044  0.00  0.00    +0.000 A 
ATOM     25  C   UNL     1       7.134   5.199  18.307  0.00  0.00    +0.000 A 
ATOM     26  C   UNL     1       5.857   5.334  18.857  0.00  0.00    +0.000 A 
ENDBRANCH  20  21
ENDBRANCH  17  20
ENDBRANCH   3  14
TORSDOF 5
ENDMDL
MODEL 4
REMARK VINA RESULT:      -8.4      4.405      8.062
REMARK  Name = 
REMARK  7 active torsions:
REMARK  status: ('A' for Active; 'I' for Inactive)
REMARK    1  A    between atoms: C_1  and  C_2
REMARK    2  A    between atoms: C_2  and  C_3
REMARK    3  A    between atoms: C_5  and  C_6
REMARK    4  A    between atoms: C_8  and  C_9
REMARK    5  A    between atoms: C_12  and  O_13
REMARK    6  A    between atoms: O_13  and  C_14
REMARK    7  A    between atoms: N_24  and  C_25
REMARK                            x       y       z     vdW  Elec       q    Type
REMARK                         _______ _______ _______ _____ _____    ______ ____
ROOT
ATOM      1  C   UNL     1       5.088   4.258  17.989  0.00  0.00    +0.000 C 
ATOM      2  N   UNL     1       6.042   4.453  18.840  0.00  0.00    +0.000 NA
ATOM      3  C   UNL     1       7.177   4.789  17.960  0.00  0.00    +0.000 C 
ATOM      4  C   UNL     1       6.754   4.237  16.604  0.00  0.00    +0.000 C 
ATOM      5  O   UNL     1       5.338   4.259  16.655  0.00  0.00    +0.000 OA
ENDROOT
BRANCH   1   8
ATOM      6  C   UNL     1       2.022   4.726  19.566  0.00  0.00    +0.000 A 
ATOM      7  C   UNL     1       2.863   5.249  18.561  0.00  0.00    +0.000 A 
ATOM      8  C   UNL     1       3.711   4.188  18.313  0.00  0.00    +0.000 A 
ATOM      9  N   UNL     1       3.011   3.078  18.704  0.00  0.00    +0.000 N 
ATOM     10  C   UNL     1       3.318   1.695  18.431  0.00  0.00    +0.000 C 
ATOM     11  N   UNL     1       2.003   3.385  19.550  0.00  0.00    +0.000 NA
BRANCH   6  13
ATOM     12  C   UNL     1       1.752   6.994  20.481  0.00  0.00    +0.000 C 
ATOM     13  C   UNL     1       1.491   5.503  20.718  0.00  0.00    +0.000 C 
ENDBRANCH   6  13
ENDBRANCH   1   8
BRANCH   3  14
ATOM     14  C   UNL     1       7.516   6.272  17.918  0.00  0.00    +0.000 A 
ATOM     15  C   UNL     1       6.988   7.176  16.976  0.00  0.00    +0.000 A 
ATOM     16  C   UNL     1       7.252   8.549  17.072  0.00  0.00    +0.000 A 
ATOM     17  C   UNL     1       8.044   9.040  18.110  0.00  0.00    +0.000 A 
ATOM     18  C   UNL     1       8.681   8.140  18.965  0.00  0.00    +0.000 A 
ATOM     19  C   UNL     1       8.393   6.775  18.891  0.00  0.00    +0.000 A 
BRANCH  17  20
ATOM     20  O   UNL     1       8.189  10.407  18.204  0.00  0.00    +0.000 OA
BRANCH  20  21
ATOM     21  C   UNL     1       9.351  10.922  18.748  0.00  0.00    +0.000 A 
ATOM     22  C   UNL     1      10.384  11.190  17.847  0.00  0.00    +0.000 A 
ATOM     23  C   UNL     1      11.607  11.686  18.304  0.00  0.00    +0.000 A 
ATOM     24  C   UNL     1      11.805  11.912  19.666  0.00  0.00    +0.000 A 
ATOM     25  C   UNL     1      10.767  11.681  20.566  0.00  0.00    +0.000 A 
ATOM     26  C   UNL     1       9.533  11.217  20.105  0.00  0.00    +0.000 A 
ENDBRANCH  20  21
ENDBRANCH  17  20
ENDBRANCH   3  14
TORSDOF 5
ENDMDL
MODEL 5
REMARK VINA RESULT:      -8.4      4.620      9.479
REMARK  Name = 
REMARK  7 active torsions:
REMARK  status: ('A' for Active; 'I' for Inactive)
REMARK    1  A    between atoms: C_1  and  C_2
REMARK    2  A    between atoms: C_2  and  C_3
REMARK    3  A    between atoms: C_5  and  C_6
REMARK    4  A    between atoms: C_8  and  C_9
REMARK    5  A    between atoms: C_12  and  O_13
REMARK    6  A    between atoms: O_13  and  C_14
REMARK    7  A    between atoms: N_24  and  C_25
REMARK                            x       y       z     vdW  Elec       q    Type
REMARK                         _______ _______ _______ _____ _____    ______ ____
ROOT
ATOM      1  C   UNL     1      -1.969  11.798  19.151  0.00  0.00    +0.000 C 
ATOM      2  N   UNL     1      -0.892  11.900  18.444  0.00  0.00    +0.000 NA
ATOM      3  C   UNL     1       0.161  11.654  19.448  0.00  0.00    +0.000 C 
ATOM      4  C   UNL     1      -0.540  11.922  20.774  0.00  0.00    +0.000 C 
ATOM      5  O   UNL     1      -1.903  11.653  20.499  0.00  0.00    +0.000 OA
ENDROOT
BRANCH   1   8
ATOM      6  C   UNL     1      -5.415  11.392  18.892  0.00  0.00    +0.000 A 
ATOM      7  C   UNL     1      -4.402  12.367  19.010  0.00  0.00    +0.000 A 
ATOM      8  C   UNL     1      -3.278  11.664  18.625  0.00  0.00    +0.000 A 
ATOM      9  N   UNL     1      -3.749  10.647  17.839  0.00  0.00    +0.000 N 
ATOM     10  C   UNL     1      -2.996   9.773  16.973  0.00  0.00    +0.000 C 
ATOM     11  N   UNL     1      -5.063  10.410  18.049  0.00  0.00    +0.000 NA
BRANCH   6  13
ATOM     12  C   UNL     1      -6.388  12.209  20.999  0.00  0.00    +0.000 C 
ATOM     13  C   UNL     1      -6.574  11.255  19.814  0.00  0.00    +0.000 C 
ENDBRANCH   6  13
ENDBRANCH   1   8
BRANCH   3  14
ATOM     14  C   UNL     1       0.780  10.265  19.373  0.00  0.00    +0.000 A 
ATOM     15  C   UNL     1       1.303   9.697  18.196  0.00  0.00    +0.000 A 
ATOM     16  C   UNL     1       1.965   8.462  18.228  0.00  0.00    +0.000 A 
ATOM     17  C   UNL     1       2.115   7.777  19.434  0.00  0.00    +0.000 A 
ATOM     18  C   UNL     1       1.481   8.266  20.578  0.00  0.00    +0.000 A 
ATOM     19  C   UNL     1       0.850   9.511  20.555  0.00  0.00    +0.000 A 
BRANCH  17  20
ATOM     20  O   UNL     1       2.856   6.616  19.416  0.00  0.00    +0.000 OA
BRANCH  20  21
ATOM     21  C   UNL     1       2.197   5.402  19.346  0.00  0.00    +0.000 A 
ATOM     22  C   UNL     1       1.745   4.878  20.559  0.00  0.00    +0.000 A 
ATOM     23  C   UNL     1       1.093   3.643  20.593  0.00  0.00    +0.000 A 
ATOM     24  C   UNL     1       0.892   2.925  19.415  0.00  0.00    +0.000 A 
ATOM     25  C   UNL     1       1.308   3.459  18.197  0.00  0.00    +0.000 A 
ATOM     26  C   UNL     1       1.930   4.708  18.159  0.00  0.00    +0.000 A 
ENDBRANCH  20  21
ENDBRANCH  17  20
ENDBRANCH   3  14
TORSDOF 5
ENDMDL
MODEL 6
REMARK VINA RESULT:      -8.4      3.102      8.883
REMARK  Name = 
REMARK  7 active torsions:
REMARK  status: ('A' for Active; 'I' for Inactive)
REMARK    1  A    between atoms: C_1  and  C_2
REMARK    2  A    between atoms: C_2  and  C_3
REMARK    3  A    between atoms: C_5  and  C_6
REMARK    4  A    between atoms: C_8  and  C_9
REMARK    5  A    between atoms: C_12  and  O_13
REMARK    6  A    between atoms: O_13  and  C_14
REMARK    7  A    between atoms: N_24  and  C_25
REMARK                            x       y       z     vdW  Elec       q    Type
REMARK                         _______ _______ _______ _____ _____    ______ ____
ROOT
ATOM      1  C   UNL     1      -0.554  10.244  19.058  0.00  0.00    +0.000 C 
ATOM      2  N   UNL     1       0.608  10.346  18.502  0.00  0.00    +0.000 NA
ATOM      3  C   UNL     1       1.492   9.752  19.523  0.00  0.00    +0.000 C 
ATOM      4  C   UNL     1       0.664   9.826  20.800  0.00  0.00    +0.000 C 
ATOM      5  O   UNL     1      -0.675   9.809  20.338  0.00  0.00    +0.000 OA
ENDROOT
BRANCH   1   8
ATOM      6  C   UNL     1      -2.950  10.720  16.580  0.00  0.00    +0.000 A 
ATOM      7  C   UNL     1      -2.220   9.725  17.264  0.00  0.00    +0.000 A 
ATOM      8  C   UNL     1      -1.793  10.403  18.389  0.00  0.00    +0.000 A 
ATOM      9  N   UNL     1      -2.691  11.423  18.548  0.00  0.00    +0.000 N 
ATOM     10  C   UNL     1      -2.870  12.276  19.699  0.00  0.00    +0.000 C 
ATOM     11  N   UNL     1      -3.366  11.689  17.408  0.00  0.00    +0.000 NA
BRANCH   6  13
ATOM     12  C   UNL     1      -3.936   9.855  14.498  0.00  0.00    +0.000 C 
ATOM     13  C   UNL     1      -2.979  10.887  15.101  0.00  0.00    +0.000 C 
ENDBRANCH   6  13
ENDBRANCH   1   8
BRANCH   3  14
ATOM     14  C   UNL     1       1.958   8.341  19.198  0.00  0.00    +0.000 A 
ATOM     15  C   UNL     1       2.491   7.953  17.954  0.00  0.00    +0.000 A 
ATOM     16  C   UNL     1       3.009   6.664  17.764  0.00  0.00    +0.000 A 
ATOM     17  C   UNL     1       3.005   5.746  18.815  0.00  0.00    +0.000 A 
ATOM     18  C   UNL     1       2.356   6.076  20.005  0.00  0.00    +0.000 A 
ATOM     19  C   UNL     1       1.869   7.369  20.206  0.00  0.00    +0.000 A 
BRANCH  17  20
ATOM     20  O   UNL     1       3.613   4.529  18.595  0.00  0.00    +0.000 OA
BRANCH  20  21
ATOM     21  C   UNL     1       4.812   4.495  17.906  0.00  0.00    +0.000 A 
ATOM     22  C   UNL     1       5.946   4.867  18.631  0.00  0.00    +0.000 A 
ATOM     23  C   UNL     1       7.200   4.891  18.014  0.00  0.00    +0.000 A 
ATOM     24  C   UNL     1       7.324   4.546  16.669  0.00  0.00    +0.000 A 
ATOM     25  C   UNL     1       6.202   4.139  15.950  0.00  0.00    +0.000 A 
ATOM     26  C   UNL     1       4.955   4.084  16.576  0.00  0.00    +0.000 A 
ENDBRANCH  20  21
ENDBRANCH  17  20
ENDBRANCH   3  14
TORSDOF 5
ENDMDL
MODEL 7
REMARK VINA RESULT:      -8.3      4.154      8.789
REMARK  Name = 
REMARK  7 active torsions:
REMARK  status: ('A' for Active; 'I' for Inactive)
REMARK    1  A    between atoms: C_1  and  C_2
REMARK    2  A    between atoms: C_2  and  C_3
REMARK    3  A    between atoms: C_5  and  C_6
REMARK    4  A    between atoms: C_8  and  C_9
REMARK    5  A    between atoms: C_12  and  O_13
REMARK    6  A    between atoms: O_13  and  C_14
REMARK    7  A    between atoms: N_24  and  C_25
REMARK                            x       y       z     vdW  Elec       q    Type
REMARK                         _______ _______ _______ _____ _____    ______ ____
ROOT
ATOM      1  C   UNL     1      -1.117  10.893  19.140  0.00  0.00    +0.000 C 
ATOM      2  N   UNL     1      -0.050  11.102  18.441  0.00  0.00    +0.000 NA
ATOM      3  C   UNL     1       1.015  10.684  19.372  0.00  0.00    +0.000 C 
ATOM      4  C   UNL     1       0.338  10.735  20.737  0.00  0.00    +0.000 C 
ATOM      5  O   UNL     1      -1.032  10.527  20.444  0.00  0.00    +0.000 OA
ENDROOT
BRANCH   1   8
ATOM      6  C   UNL     1      -3.825  10.906  16.955  0.00  0.00    +0.000 A 
ATOM      7  C   UNL     1      -2.904  10.055  17.601  0.00  0.00    +0.000 A 
ATOM      8  C   UNL     1      -2.436  10.858  18.622  0.00  0.00    +0.000 A 
ATOM      9  N   UNL     1      -3.428  11.778  18.830  0.00  0.00    +0.000 N 
ATOM     10  C   UNL     1      -3.575  12.687  19.941  0.00  0.00    +0.000 C 
ATOM     11  N   UNL     1      -4.258  11.879  17.769  0.00  0.00    +0.000 NA
BRANCH   6  13
ATOM     12  C   UNL     1      -3.028  10.046  14.791  0.00  0.00    +0.000 C 
ATOM     13  C   UNL     1      -4.046  10.958  15.484  0.00  0.00    +0.000 C 
ENDBRANCH   6  13
ENDBRANCH   1   8
BRANCH   3  14
ATOM     14  C   UNL     1       1.617   9.322  19.059  0.00  0.00    +0.000 A 
ATOM     15  C   UNL     1       2.186   8.977  17.818  0.00  0.00    +0.000 A 
ATOM     16  C   UNL     1       2.828   7.744  17.639  0.00  0.00    +0.000 A 
ATOM     17  C   UNL     1       2.913   6.838  18.697  0.00  0.00    +0.000 A 
ATOM     18  C   UNL     1       2.235   7.114  19.885  0.00  0.00    +0.000 A 
ATOM     19  C   UNL     1       1.623   8.354  20.075  0.00  0.00    +0.000 A 
BRANCH  17  20
ATOM     20  O   UNL     1       3.638   5.686  18.487  0.00  0.00    +0.000 OA
BRANCH  20  21
ATOM     21  C   UNL     1       3.071   4.468  18.819  0.00  0.00    +0.000 A 
ATOM     22  C   UNL     1       1.997   4.056  18.027  0.00  0.00    +0.000 A 
ATOM     23  C   UNL     1       1.341   2.853  18.301  0.00  0.00    +0.000 A 
ATOM     24  C   UNL     1       1.754   2.059  19.371  0.00  0.00    +0.000 A 
ATOM     25  C   UNL     1       2.848   2.448  20.142  0.00  0.00    +0.000 A 
ATOM     26  C   UNL     1       3.524   3.633  19.847  0.00  0.00    +0.000 A 
ENDBRANCH  20  21
ENDBRANCH  17  20
ENDBRANCH   3  14
TORSDOF 5
ENDMDL
MODEL 8
REMARK VINA RESULT:      -8.3      3.236      8.910
REMARK  Name = 
REMARK  7 active torsions:
REMARK  status: ('A' for Active; 'I' for Inactive)
REMARK    1  A    between atoms: C_1  and  C_2
REMARK    2  A    between atoms: C_2  and  C_3
REMARK    3  A    between atoms: C_5  and  C_6
REMARK    4  A    between atoms: C_8  and  C_9
REMARK    5  A    between atoms: C_12  and  O_13
REMARK    6  A    between atoms: O_13  and  C_14
REMARK    7  A    between atoms: N_24  and  C_25
REMARK                            x       y       z     vdW  Elec       q    Type
REMARK                         _______ _______ _______ _____ _____    ______ ____
ROOT
ATOM      1  C   UNL     1      -0.894  10.387  18.954  0.00  0.00    +0.000 C 
ATOM      2  N   UNL     1       0.285  10.675  18.510  0.00  0.00    +0.000 NA
ATOM      3  C   UNL     1       1.155  10.150  19.580  0.00  0.00    +0.000 C 
ATOM      4  C   UNL     1       0.221  10.042  20.780  0.00  0.00    +0.000 C 
ATOM      5  O   UNL     1      -1.060   9.870  20.199  0.00  0.00    +0.000 OA
ENDROOT
BRANCH   1   8
ATOM      6  C   UNL     1      -3.111  10.585  16.280  0.00  0.00    +0.000 A 
ATOM      7  C   UNL     1      -2.350   9.677  17.047  0.00  0.00    +0.000 A 
ATOM      8  C   UNL     1      -2.083  10.414  18.184  0.00  0.00    +0.000 A 
ATOM      9  N   UNL     1      -3.083  11.347  18.243  0.00  0.00    +0.000 N 
ATOM     10  C   UNL     1      -3.435  12.200  19.352  0.00  0.00    +0.000 C 
ATOM     11  N   UNL     1      -3.683  11.525  17.046  0.00  0.00    +0.000 NA
BRANCH   6  13
ATOM     12  C   UNL     1      -4.042   9.764  14.155  0.00  0.00    +0.000 C 
ATOM     13  C   UNL     1      -3.033  10.720  14.800  0.00  0.00    +0.000 C 
ENDBRANCH   6  13
ENDBRANCH   1   8
BRANCH   3  14
ATOM     14  C   UNL     1       1.837   8.834  19.239  0.00  0.00    +0.000 A 
ATOM     15  C   UNL     1       1.891   7.725  20.105  0.00  0.00    +0.000 A 
ATOM     16  C   UNL     1       2.433   6.505  19.678  0.00  0.00    +0.000 A 
ATOM     17  C   UNL     1       2.927   6.374  18.379  0.00  0.00    +0.000 A 
ATOM     18  C   UNL     1       3.003   7.503  17.562  0.00  0.00    +0.000 A 
ATOM     19  C   UNL     1       2.434   8.709  17.975  0.00  0.00    +0.000 A 
BRANCH  17  20
ATOM     20  O   UNL     1       3.360   5.126  17.989  0.00  0.00    +0.000 OA
BRANCH  20  21
ATOM     21  C   UNL     1       4.689   4.954  17.647  0.00  0.00    +0.000 A 
ATOM     22  C   UNL     1       4.936   4.551  16.333  0.00  0.00    +0.000 A 
ATOM     23  C   UNL     1       6.245   4.324  15.900  0.00  0.00    +0.000 A 
ATOM     24  C   UNL     1       7.312   4.496  16.781  0.00  0.00    +0.000 A 
ATOM     25  C   UNL     1       7.075   4.932  18.082  0.00  0.00    +0.000 A 
ATOM     26  C   UNL     1       5.769   5.191  18.505  0.00  0.00    +0.000 A 
ENDBRANCH  20  21
ENDBRANCH  17  20
ENDBRANCH   3  14
TORSDOF 5
ENDMDL
MODEL 9
REMARK VINA RESULT:      -8.2      4.157      8.837
REMARK  Name = 
REMARK  7 active torsions:
REMARK  status: ('A' for Active; 'I' for Inactive)
REMARK    1  A    between atoms: C_1  and  C_2
REMARK    2  A    between atoms: C_2  and  C_3
REMARK    3  A    between atoms: C_5  and  C_6
REMARK    4  A    between atoms: C_8  and  C_9
REMARK    5  A    between atoms: C_12  and  O_13
REMARK    6  A    between atoms: O_13  and  C_14
REMARK    7  A    between atoms: N_24  and  C_25
REMARK                            x       y       z     vdW  Elec       q    Type
REMARK                         _______ _______ _______ _____ _____    ______ ____
ROOT
ATOM      1  C   UNL     1      -1.451  11.009  18.993  0.00  0.00    +0.000 C 
ATOM      2  N   UNL     1      -0.314  11.064  18.381  0.00  0.00    +0.000 NA
ATOM      3  C   UNL     1       0.641  10.811  19.477  0.00  0.00    +0.000 C 
ATOM      4  C   UNL     1      -0.163  11.129  20.732  0.00  0.00    +0.000 C 
ATOM      5  O   UNL     1      -1.505  10.892  20.345  0.00  0.00    +0.000 OA
ENDROOT
BRANCH   1   8
ATOM      6  C   UNL     1      -3.951  10.898  16.576  0.00  0.00    +0.000 A 
ATOM      7  C   UNL     1      -3.033  10.093  17.284  0.00  0.00    +0.000 A 
ATOM      8  C   UNL     1      -2.713  10.899  18.359  0.00  0.00    +0.000 A 
ATOM      9  N   UNL     1      -3.781  11.744  18.496  0.00  0.00    +0.000 N 
ATOM     10  C   UNL     1      -4.087  12.612  19.608  0.00  0.00    +0.000 C 
ATOM     11  N   UNL     1      -4.520  11.818  17.367  0.00  0.00    +0.000 NA
BRANCH   6  13
ATOM     12  C   UNL     1      -3.082   9.954  14.476  0.00  0.00    +0.000 C 
ATOM     13  C   UNL     1      -4.044  10.974  15.093  0.00  0.00    +0.000 C 
ENDBRANCH   6  13
ENDBRANCH   1   8
BRANCH   3  14
ATOM     14  C   UNL     1       1.221   9.404  19.484  0.00  0.00    +0.000 A 
ATOM     15  C   UNL     1       1.867   8.812  18.382  0.00  0.00    +0.000 A 
ATOM     16  C   UNL     1       2.482   7.557  18.499  0.00  0.00    +0.000 A 
ATOM     17  C   UNL     1       2.463   6.878  19.718  0.00  0.00    +0.000 A 
ATOM     18  C   UNL     1       1.710   7.395  20.773  0.00  0.00    +0.000 A 
ATOM     19  C   UNL     1       1.125   8.658  20.668  0.00  0.00    +0.000 A 
BRANCH  17  20
ATOM     20  O   UNL     1       3.165   5.695  19.794  0.00  0.00    +0.000 OA
BRANCH  20  21
ATOM     21  C   UNL     1       2.564   4.530  19.355  0.00  0.00    +0.000 A 
ATOM     22  C   UNL     1       1.590   3.988  20.196  0.00  0.00    +0.000 A 
ATOM     23  C   UNL     1       0.946   2.797  19.852  0.00  0.00    +0.000 A 
ATOM     24  C   UNL     1       1.276   2.140  18.667  0.00  0.00    +0.000 A 
ATOM     25  C   UNL     1       2.220   2.695  17.806  0.00  0.00    +0.000 A 
ATOM     26  C   UNL     1       2.839   3.903  18.134  0.00  0.00    +0.000 A 
ENDBRANCH  20  21
ENDBRANCH  17  20
ENDBRANCH   3  14
TORSDOF 5
ENDMDL
