MODEL 1
REMARK VINA RESULT:      -6.2      0.000      0.000
REMARK  Name = 
REMARK  12 active torsions:
REMARK  status: ('A' for Active; 'I' for Inactive)
REMARK    1  A    between atoms: C_1  and  N_2
REMARK    2  A    between atoms: N_2  and  C_3
REMARK    3  A    between atoms: N_2  and  C_4
REMARK    4  A    between atoms: C_7  and  N_8
REMARK    5  A    between atoms: C_9  and  C_11
REMARK    6  A    between atoms: C_11  and  C_12
REMARK    7  A    between atoms: C_12  and  C_13
REMARK    8  A    between atoms: C_13  and  C_14
REMARK    9  A    between atoms: C_14  and  C_15
REMARK   10  A    between atoms: C_15  and  N_16
REMARK   11  A    between atoms: C_17  and  C_19
REMARK   12  A    between atoms: C_19  and  S_20
REMARK                            x       y       z     vdW  Elec       q    Type
REMARK                         _______ _______ _______ _____ _____    ______ ____
ROOT
ATOM      1  N   UNL     1       2.441   5.766  20.654  0.00  0.00    +0.000 N 
ATOM      2  C   UNL     1       1.665   4.620  20.740  0.00  0.00    +0.000 C 
ATOM      3  O   UNL     1       0.525   4.468  20.314  0.00  0.00    +0.000 OA
ATOM      4  H   UNL     1       3.396   5.707  20.980  0.00  0.00    +0.000 HD
ENDROOT
BRANCH   1   8
ATOM      5  C   UNL     1       1.268   9.581  19.121  0.00  0.00    +0.000 A 
ATOM      6  C   UNL     1       1.988   8.670  18.342  0.00  0.00    +0.000 A 
ATOM      7  C   UNL     1       2.377   7.412  18.825  0.00  0.00    +0.000 A 
ATOM      8  C   UNL     1       2.042   7.006  20.110  0.00  0.00    +0.000 A 
ATOM      9  C   UNL     1       1.272   7.869  20.891  0.00  0.00    +0.000 A 
ATOM     10  C   UNL     1       0.894   9.134  20.399  0.00  0.00    +0.000 A 
BRANCH   5  12
ATOM     11  C   UNL     1       1.972  11.861  18.499  0.00  0.00    +0.000 C 
ATOM     12  N   UNL     1       0.926  10.848  18.636  0.00  0.00    +0.000 N 
ATOM     13  C   UNL     1      -0.427  11.339  18.879  0.00  0.00    +0.000 C 
ENDBRANCH   5  12
ENDBRANCH   1   8
BRANCH   2  14
ATOM     14  C   UNL     1       2.355   3.465  21.439  0.00  0.00    +0.000 C 
BRANCH  14  15
ATOM     15  C   UNL     1       3.190   2.594  20.503  0.00  0.00    +0.000 C 
BRANCH  15  16
ATOM     16  C   UNL     1       2.401   2.094  19.291  0.00  0.00    +0.000 C 
BRANCH  16  17
ATOM     17  C   UNL     1       3.282   2.054  18.042  0.00  0.00    +0.000 C 
BRANCH  17  18
ATOM     18  C   UNL     1       3.478   3.453  17.464  0.00  0.00    +0.000 C 
BRANCH  18  19
ATOM     19  N   UNL     1       4.879   3.777  17.294  0.00  0.00    +0.000 N 
ATOM     20  C   UNL     1       5.561   4.561  18.201  0.00  0.00    +0.000 C 
ATOM     21  O   UNL     1       5.036   5.060  19.192  0.00  0.00    +0.000 OA
ATOM     22  H   UNL     1       5.416   3.270  16.601  0.00  0.00    +0.000 HD
BRANCH  20  23
ATOM     23  C   UNL     1       7.018   4.804  17.853  0.00  0.00    +0.000 C 
BRANCH  23  24
ATOM     24  S   UNL     1       7.240   6.464  17.149  0.00  0.00    +0.000 S 
ATOM     25  H   UNL     1       5.933   6.723  16.983  0.00  0.00    +0.000 HD
ENDBRANCH  23  24
ENDBRANCH  20  23
ENDBRANCH  18  19
ENDBRANCH  17  18
ENDBRANCH  16  17
ENDBRANCH  15  16
ENDBRANCH  14  15
ENDBRANCH   2  14
TORSDOF 10
ENDMDL
MODEL 2
REMARK VINA RESULT:      -5.8      5.094      7.759
REMARK  Name = 
REMARK  12 active torsions:
REMARK  status: ('A' for Active; 'I' for Inactive)
REMARK    1  A    between atoms: C_1  and  N_2
REMARK    2  A    between atoms: N_2  and  C_3
REMARK    3  A    between atoms: N_2  and  C_4
REMARK    4  A    between atoms: C_7  and  N_8
REMARK    5  A    between atoms: C_9  and  C_11
REMARK    6  A    between atoms: C_11  and  C_12
REMARK    7  A    between atoms: C_12  and  C_13
REMARK    8  A    between atoms: C_13  and  C_14
REMARK    9  A    between atoms: C_14  and  C_15
REMARK   10  A    between atoms: C_15  and  N_16
REMARK   11  A    between atoms: C_17  and  C_19
REMARK   12  A    between atoms: C_19  and  S_20
REMARK                            x       y       z     vdW  Elec       q    Type
REMARK                         _______ _______ _______ _____ _____    ______ ____
ROOT
ATOM      1  N   UNL     1       5.966   5.985  18.228  0.00  0.00    +0.000 N 
ATOM      2  C   UNL     1       7.142   6.081  18.956  0.00  0.00    +0.000 C 
ATOM      3  O   UNL     1       7.386   5.554  20.036  0.00  0.00    +0.000 OA
ATOM      4  H   UNL     1       5.949   6.410  17.312  0.00  0.00    +0.000 HD
ENDROOT
BRANCH   1   8
ATOM      5  C   UNL     1       2.487   3.829  19.466  0.00  0.00    +0.000 A 
ATOM      6  C   UNL     1       2.643   5.190  19.748  0.00  0.00    +0.000 A 
ATOM      7  C   UNL     1       3.774   5.914  19.346  0.00  0.00    +0.000 A 
ATOM      8  C   UNL     1       4.792   5.307  18.624  0.00  0.00    +0.000 A 
ATOM      9  C   UNL     1       4.638   3.965  18.275  0.00  0.00    +0.000 A 
ATOM     10  C   UNL     1       3.501   3.243  18.691  0.00  0.00    +0.000 A 
BRANCH   5  12
ATOM     11  C   UNL     1       1.327   2.665  21.304  0.00  0.00    +0.000 C 
ATOM     12  N   UNL     1       1.371   3.113  19.912  0.00  0.00    +0.000 N 
ATOM     13  C   UNL     1       0.637   2.303  18.945  0.00  0.00    +0.000 C 
ENDBRANCH   5  12
ENDBRANCH   1   8
BRANCH   2  14
ATOM     14  C   UNL     1       8.204   6.936  18.292  0.00  0.00    +0.000 C 
BRANCH  14  15
ATOM     15  C   UNL     1       7.634   8.086  17.465  0.00  0.00    +0.000 C 
BRANCH  15  16
ATOM     16  C   UNL     1       8.129   9.457  17.929  0.00  0.00    +0.000 C 
BRANCH  16  17
ATOM     17  C   UNL     1       9.070   9.323  19.127  0.00  0.00    +0.000 C 
BRANCH  17  18
ATOM     18  C   UNL     1       9.494  10.694  19.648  0.00  0.00    +0.000 C 
BRANCH  18  19
ATOM     19  N   UNL     1       9.683  11.645  18.574  0.00  0.00    +0.000 N 
ATOM     20  C   UNL     1      10.527  12.729  18.699  0.00  0.00    +0.000 C 
ATOM     21  O   UNL     1      11.154  12.981  19.724  0.00  0.00    +0.000 OA
ATOM     22  H   UNL     1       9.335  11.414  17.650  0.00  0.00    +0.000 HD
BRANCH  20  23
ATOM     23  C   UNL     1      10.589  13.624  17.475  0.00  0.00    +0.000 C 
BRANCH  23  24
ATOM     24  S   UNL     1      10.019  15.301  17.879  0.00  0.00    +0.000 S 
ATOM     25  H   UNL     1       9.954  15.112  19.207  0.00  0.00    +0.000 HD
ENDBRANCH  23  24
ENDBRANCH  20  23
ENDBRANCH  18  19
ENDBRANCH  17  18
ENDBRANCH  16  17
ENDBRANCH  15  16
ENDBRANCH  14  15
ENDBRANCH   2  14
TORSDOF 10
ENDMDL
MODEL 3
REMARK VINA RESULT:      -5.7      1.387      1.465
REMARK  Name = 
REMARK  12 active torsions:
REMARK  status: ('A' for Active; 'I' for Inactive)
REMARK    1  A    between atoms: C_1  and  N_2
REMARK    2  A    between atoms: N_2  and  C_3
REMARK    3  A    between atoms: N_2  and  C_4
REMARK    4  A    between atoms: C_7  and  N_8
REMARK    5  A    between atoms: C_9  and  C_11
REMARK    6  A    between atoms: C_11  and  C_12
REMARK    7  A    between atoms: C_12  and  C_13
REMARK    8  A    between atoms: C_13  and  C_14
REMARK    9  A    between atoms: C_14  and  C_15
REMARK   10  A    between atoms: C_15  and  N_16
REMARK   11  A    between atoms: C_17  and  C_19
REMARK   12  A    between atoms: C_19  and  S_20
REMARK                            x       y       z     vdW  Elec       q    Type
REMARK                         _______ _______ _______ _____ _____    ______ ____
ROOT
ATOM      1  N   UNL     1       2.696   5.867  19.998  0.00  0.00    +0.000 N 
ATOM      2  C   UNL     1       2.017   4.691  20.283  0.00  0.00    +0.000 C 
ATOM      3  O   UNL     1       0.804   4.547  20.384  0.00  0.00    +0.000 OA
ATOM      4  H   UNL     1       3.695   5.806  19.864  0.00  0.00    +0.000 HD
ENDROOT
BRANCH   1   8
ATOM      5  C   UNL     1       1.002   9.773  19.609  0.00  0.00    +0.000 A 
ATOM      6  C   UNL     1       1.616   9.132  18.529  0.00  0.00    +0.000 A 
ATOM      7  C   UNL     1       2.172   7.848  18.636  0.00  0.00    +0.000 A 
ATOM      8  C   UNL     1       2.119   7.144  19.832  0.00  0.00    +0.000 A 
ATOM      9  C   UNL     1       1.460   7.734  20.911  0.00  0.00    +0.000 A 
ATOM     10  C   UNL     1       0.912   9.027  20.796  0.00  0.00    +0.000 A 
BRANCH   5  12
ATOM     11  C   UNL     1       1.257  12.186  20.050  0.00  0.00    +0.000 C 
ATOM     12  N   UNL     1       0.491  11.070  19.495  0.00  0.00    +0.000 N 
ATOM     13  C   UNL     1      -0.957  11.241  19.438  0.00  0.00    +0.000 C 
ENDBRANCH   5  12
ENDBRANCH   1   8
BRANCH   2  14
ATOM     14  C   UNL     1       2.924   3.491  20.471  0.00  0.00    +0.000 C 
BRANCH  14  15
ATOM     15  C   UNL     1       2.632   2.346  19.504  0.00  0.00    +0.000 C 
BRANCH  15  16
ATOM     16  C   UNL     1       2.674   2.779  18.037  0.00  0.00    +0.000 C 
BRANCH  16  17
ATOM     17  C   UNL     1       4.086   3.203  17.631  0.00  0.00    +0.000 C 
BRANCH  17  18
ATOM     18  C   UNL     1       4.094   4.627  17.081  0.00  0.00    +0.000 C 
BRANCH  18  19
ATOM     19  N   UNL     1       5.237   5.381  17.549  0.00  0.00    +0.000 N 
ATOM     20  C   UNL     1       5.852   6.336  16.766  0.00  0.00    +0.000 C 
ATOM     21  O   UNL     1       5.498   6.599  15.620  0.00  0.00    +0.000 OA
ATOM     22  H   UNL     1       5.478   5.341  18.532  0.00  0.00    +0.000 HD
BRANCH  20  23
ATOM     23  C   UNL     1       7.042   7.016  17.418  0.00  0.00    +0.000 C 
BRANCH  23  24
ATOM     24  S   UNL     1       7.695   5.999  18.773  0.00  0.00    +0.000 S 
ATOM     25  H   UNL     1       7.175   6.736  19.768  0.00  0.00    +0.000 HD
ENDBRANCH  23  24
ENDBRANCH  20  23
ENDBRANCH  18  19
ENDBRANCH  17  18
ENDBRANCH  16  17
ENDBRANCH  15  16
ENDBRANCH  14  15
ENDBRANCH   2  14
TORSDOF 10
ENDMDL
MODEL 4
REMARK VINA RESULT:      -5.7      2.411      3.330
REMARK  Name = 
REMARK  12 active torsions:
REMARK  status: ('A' for Active; 'I' for Inactive)
REMARK    1  A    between atoms: C_1  and  N_2
REMARK    2  A    between atoms: N_2  and  C_3
REMARK    3  A    between atoms: N_2  and  C_4
REMARK    4  A    between atoms: C_7  and  N_8
REMARK    5  A    between atoms: C_9  and  C_11
REMARK    6  A    between atoms: C_11  and  C_12
REMARK    7  A    between atoms: C_12  and  C_13
REMARK    8  A    between atoms: C_13  and  C_14
REMARK    9  A    between atoms: C_14  and  C_15
REMARK   10  A    between atoms: C_15  and  N_16
REMARK   11  A    between atoms: C_17  and  C_19
REMARK   12  A    between atoms: C_19  and  S_20
REMARK                            x       y       z     vdW  Elec       q    Type
REMARK                         _______ _______ _______ _____ _____    ______ ____
ROOT
ATOM      1  N   UNL     1       3.028   6.830  18.180  0.00  0.00    +0.000 N 
ATOM      2  C   UNL     1       2.682   5.494  18.039  0.00  0.00    +0.000 C 
ATOM      3  O   UNL     1       1.603   4.980  18.315  0.00  0.00    +0.000 OA
ATOM      4  H   UNL     1       3.931   7.116  17.828  0.00  0.00    +0.000 HD
ENDROOT
BRANCH   1   8
ATOM      5  C   UNL     1       0.496   9.900  19.742  0.00  0.00    +0.000 A 
ATOM      6  C   UNL     1       1.053   8.921  20.569  0.00  0.00    +0.000 A 
ATOM      7  C   UNL     1       1.890   7.910  20.076  0.00  0.00    +0.000 A 
ATOM      8  C   UNL     1       2.220   7.849  18.729  0.00  0.00    +0.000 A 
ATOM      9  C   UNL     1       1.728   8.847  17.887  0.00  0.00    +0.000 A 
ATOM     10  C   UNL     1       0.881   9.855  18.391  0.00  0.00    +0.000 A 
BRANCH   5  12
ATOM     11  C   UNL     1      -0.523  11.012  21.692  0.00  0.00    +0.000 C 
ATOM     12  N   UNL     1      -0.371  10.877  20.244  0.00  0.00    +0.000 N 
ATOM     13  C   UNL     1      -1.517  11.269  19.430  0.00  0.00    +0.000 C 
ENDBRANCH   5  12
ENDBRANCH   1   8
BRANCH   2  14
ATOM     14  C   UNL     1       3.792   4.630  17.475  0.00  0.00    +0.000 C 
BRANCH  14  15
ATOM     15  C   UNL     1       4.581   3.873  18.542  0.00  0.00    +0.000 C 
BRANCH  15  16
ATOM     16  C   UNL     1       5.677   4.724  19.188  0.00  0.00    +0.000 C 
BRANCH  16  17
ATOM     17  C   UNL     1       6.436   5.532  18.134  0.00  0.00    +0.000 C 
BRANCH  17  18
ATOM     18  C   UNL     1       7.481   4.671  17.430  0.00  0.00    +0.000 C 
BRANCH  18  19
ATOM     19  N   UNL     1       7.565   4.971  16.016  0.00  0.00    +0.000 N 
ATOM     20  C   UNL     1       6.799   4.306  15.082  0.00  0.00    +0.000 C 
ATOM     21  O   UNL     1       6.017   3.404  15.369  0.00  0.00    +0.000 OA
ATOM     22  H   UNL     1       8.056   5.808  15.724  0.00  0.00    +0.000 HD
BRANCH  20  23
ATOM     23  C   UNL     1       7.030   4.746  13.648  0.00  0.00    +0.000 C 
BRANCH  23  24
ATOM     24  S   UNL     1       6.347   3.528  12.487  0.00  0.00    +0.000 S 
ATOM     25  H   UNL     1       5.123   4.076  12.411  0.00  0.00    +0.000 HD
ENDBRANCH  23  24
ENDBRANCH  20  23
ENDBRANCH  18  19
ENDBRANCH  17  18
ENDBRANCH  16  17
ENDBRANCH  15  16
ENDBRANCH  14  15
ENDBRANCH   2  14
TORSDOF 10
ENDMDL
MODEL 5
REMARK VINA RESULT:      -5.7      2.189      2.920
REMARK  Name = 
REMARK  12 active torsions:
REMARK  status: ('A' for Active; 'I' for Inactive)
REMARK    1  A    between atoms: C_1  and  N_2
REMARK    2  A    between atoms: N_2  and  C_3
REMARK    3  A    between atoms: N_2  and  C_4
REMARK    4  A    between atoms: C_7  and  N_8
REMARK    5  A    between atoms: C_9  and  C_11
REMARK    6  A    between atoms: C_11  and  C_12
REMARK    7  A    between atoms: C_12  and  C_13
REMARK    8  A    between atoms: C_13  and  C_14
REMARK    9  A    between atoms: C_14  and  C_15
REMARK   10  A    between atoms: C_15  and  N_16
REMARK   11  A    between atoms: C_17  and  C_19
REMARK   12  A    between atoms: C_19  and  S_20
REMARK                            x       y       z     vdW  Elec       q    Type
REMARK                         _______ _______ _______ _____ _____    ______ ____
ROOT
ATOM      1  N   UNL     1       3.365   6.458  18.528  0.00  0.00    +0.000 N 
ATOM      2  C   UNL     1       3.003   5.161  18.194  0.00  0.00    +0.000 C 
ATOM      3  O   UNL     1       1.867   4.740  18.004  0.00  0.00    +0.000 OA
ATOM      4  H   UNL     1       4.352   6.669  18.569  0.00  0.00    +0.000 HD
ENDROOT
BRANCH   1   8
ATOM      5  C   UNL     1       0.765   9.742  19.386  0.00  0.00    +0.000 A 
ATOM      6  C   UNL     1       1.272   9.528  18.101  0.00  0.00    +0.000 A 
ATOM      7  C   UNL     1       2.121   8.453  17.799  0.00  0.00    +0.000 A 
ATOM      8  C   UNL     1       2.484   7.534  18.774  0.00  0.00    +0.000 A 
ATOM      9  C   UNL     1       1.947   7.687  20.053  0.00  0.00    +0.000 A 
ATOM     10  C   UNL     1       1.101   8.774  20.348  0.00  0.00    +0.000 A 
BRANCH   5  12
ATOM     11  C   UNL     1      -0.669  11.577  18.577  0.00  0.00    +0.000 C 
ATOM     12  N   UNL     1      -0.047  10.843  19.678  0.00  0.00    +0.000 N 
ATOM     13  C   UNL     1       0.231  11.605  20.892  0.00  0.00    +0.000 C 
ENDBRANCH   5  12
ENDBRANCH   1   8
BRANCH   2  14
ATOM     14  C   UNL     1       4.178   4.213  18.059  0.00  0.00    +0.000 C 
BRANCH  14  15
ATOM     15  C   UNL     1       4.350   3.650  16.650  0.00  0.00    +0.000 C 
BRANCH  15  16
ATOM     16  C   UNL     1       4.713   4.721  15.620  0.00  0.00    +0.000 C 
BRANCH  16  17
ATOM     17  C   UNL     1       5.680   4.169  14.571  0.00  0.00    +0.000 C 
BRANCH  17  18
ATOM     18  C   UNL     1       7.029   4.879  14.641  0.00  0.00    +0.000 C 
BRANCH  18  19
ATOM     19  N   UNL     1       7.113   5.770  15.779  0.00  0.00    +0.000 N 
ATOM     20  C   UNL     1       7.622   5.357  16.993  0.00  0.00    +0.000 C 
ATOM     21  O   UNL     1       8.014   4.214  17.206  0.00  0.00    +0.000 OA
ATOM     22  H   UNL     1       6.968   6.762  15.633  0.00  0.00    +0.000 HD
BRANCH  20  23
ATOM     23  C   UNL     1       7.620   6.424  18.072  0.00  0.00    +0.000 C 
BRANCH  23  24
ATOM     24  S   UNL     1       7.634   5.664  19.722  0.00  0.00    +0.000 S 
ATOM     25  H   UNL     1       8.427   6.584  20.295  0.00  0.00    +0.000 HD
ENDBRANCH  23  24
ENDBRANCH  20  23
ENDBRANCH  18  19
ENDBRANCH  17  18
ENDBRANCH  16  17
ENDBRANCH  15  16
ENDBRANCH  14  15
ENDBRANCH   2  14
TORSDOF 10
ENDMDL
MODEL 6
REMARK VINA RESULT:      -5.6      1.945      2.648
REMARK  Name = 
REMARK  12 active torsions:
REMARK  status: ('A' for Active; 'I' for Inactive)
REMARK    1  A    between atoms: C_1  and  N_2
REMARK    2  A    between atoms: N_2  and  C_3
REMARK    3  A    between atoms: N_2  and  C_4
REMARK    4  A    between atoms: C_7  and  N_8
REMARK    5  A    between atoms: C_9  and  C_11
REMARK    6  A    between atoms: C_11  and  C_12
REMARK    7  A    between atoms: C_12  and  C_13
REMARK    8  A    between atoms: C_13  and  C_14
REMARK    9  A    between atoms: C_14  and  C_15
REMARK   10  A    between atoms: C_15  and  N_16
REMARK   11  A    between atoms: C_17  and  C_19
REMARK   12  A    between atoms: C_19  and  S_20
REMARK                            x       y       z     vdW  Elec       q    Type
REMARK                         _______ _______ _______ _____ _____    ______ ____
ROOT
ATOM      1  N   UNL     1       2.750   5.534  18.862  0.00  0.00    +0.000 N 
ATOM      2  C   UNL     1       4.029   5.088  19.159  0.00  0.00    +0.000 C 
ATOM      3  O   UNL     1       4.926   5.728  19.697  0.00  0.00    +0.000 OA
ATOM      4  H   UNL     1       2.095   4.858  18.493  0.00  0.00    +0.000 HD
ENDROOT
BRANCH   1   8
ATOM      5  C   UNL     1       1.306   9.491  19.594  0.00  0.00    +0.000 A 
ATOM      6  C   UNL     1       1.783   9.108  18.337  0.00  0.00    +0.000 A 
ATOM      7  C   UNL     1       2.255   7.814  18.077  0.00  0.00    +0.000 A 
ATOM      8  C   UNL     1       2.251   6.839  19.066  0.00  0.00    +0.000 A 
ATOM      9  C   UNL     1       1.726   7.173  20.314  0.00  0.00    +0.000 A 
ATOM     10  C   UNL     1       1.261   8.479  20.569  0.00  0.00    +0.000 A 
BRANCH   5  12
ATOM     11  C   UNL     1       1.329  11.875  18.966  0.00  0.00    +0.000 C 
ATOM     12  N   UNL     1       0.879  10.798  19.848  0.00  0.00    +0.000 N 
ATOM     13  C   UNL     1       0.572  11.172  21.225  0.00  0.00    +0.000 C 
ENDBRANCH   5  12
ENDBRANCH   1   8
BRANCH   2  14
ATOM     14  C   UNL     1       4.283   3.647  18.761  0.00  0.00    +0.000 C 
BRANCH  14  15
ATOM     15  C   UNL     1       3.895   3.335  17.317  0.00  0.00    +0.000 C 
BRANCH  15  16
ATOM     16  C   UNL     1       5.085   3.378  16.357  0.00  0.00    +0.000 C 
BRANCH  16  17
ATOM     17  C   UNL     1       5.215   4.757  15.707  0.00  0.00    +0.000 C 
BRANCH  17  18
ATOM     18  C   UNL     1       6.681   5.130  15.502  0.00  0.00    +0.000 C 
BRANCH  18  19
ATOM     19  N   UNL     1       7.143   6.075  16.496  0.00  0.00    +0.000 N 
ATOM     20  C   UNL     1       7.630   5.667  17.720  0.00  0.00    +0.000 C 
ATOM     21  O   UNL     1       7.686   4.490  18.066  0.00  0.00    +0.000 OA
ATOM     22  H   UNL     1       7.284   7.041  16.222  0.00  0.00    +0.000 HD
BRANCH  20  23
ATOM     23  C   UNL     1       8.056   6.798  18.638  0.00  0.00    +0.000 C 
BRANCH  23  24
ATOM     24  S   UNL     1       7.917   8.397  17.789  0.00  0.00    +0.000 S 
ATOM     25  H   UNL     1       6.674   8.201  17.319  0.00  0.00    +0.000 HD
ENDBRANCH  23  24
ENDBRANCH  20  23
ENDBRANCH  18  19
ENDBRANCH  17  18
ENDBRANCH  16  17
ENDBRANCH  15  16
ENDBRANCH  14  15
ENDBRANCH   2  14
TORSDOF 10
ENDMDL
MODEL 7
REMARK VINA RESULT:      -5.6      4.596      7.811
REMARK  Name = 
REMARK  12 active torsions:
REMARK  status: ('A' for Active; 'I' for Inactive)
REMARK    1  A    between atoms: C_1  and  N_2
REMARK    2  A    between atoms: N_2  and  C_3
REMARK    3  A    between atoms: N_2  and  C_4
REMARK    4  A    between atoms: C_7  and  N_8
REMARK    5  A    between atoms: C_9  and  C_11
REMARK    6  A    between atoms: C_11  and  C_12
REMARK    7  A    between atoms: C_12  and  C_13
REMARK    8  A    between atoms: C_13  and  C_14
REMARK    9  A    between atoms: C_14  and  C_15
REMARK   10  A    between atoms: C_15  and  N_16
REMARK   11  A    between atoms: C_17  and  C_19
REMARK   12  A    between atoms: C_19  and  S_20
REMARK                            x       y       z     vdW  Elec       q    Type
REMARK                         _______ _______ _______ _____ _____    ______ ____
ROOT
ATOM      1  N   UNL     1       7.339   5.302  16.144  0.00  0.00    +0.000 N 
ATOM      2  C   UNL     1       6.940   6.496  16.726  0.00  0.00    +0.000 C 
ATOM      3  O   UNL     1       6.017   7.218  16.367  0.00  0.00    +0.000 OA
ATOM      4  H   UNL     1       8.068   4.779  16.609  0.00  0.00    +0.000 HD
ENDROOT
BRANCH   1   8
ATOM      5  C   UNL     1       5.806   3.475  12.596  0.00  0.00    +0.000 A 
ATOM      6  C   UNL     1       5.091   3.453  13.797  0.00  0.00    +0.000 A 
ATOM      7  C   UNL     1       5.575   4.052  14.969  0.00  0.00    +0.000 A 
ATOM      8  C   UNL     1       6.794   4.716  14.982  0.00  0.00    +0.000 A 
ATOM      9  C   UNL     1       7.503   4.807  13.783  0.00  0.00    +0.000 A 
ATOM     10  C   UNL     1       7.012   4.196  12.612  0.00  0.00    +0.000 A 
BRANCH   5  12
ATOM     11  C   UNL     1       3.976   3.141  10.978  0.00  0.00    +0.000 C 
ATOM     12  N   UNL     1       5.327   2.836  11.447  0.00  0.00    +0.000 N 
ATOM     13  C   UNL     1       5.841   1.508  11.129  0.00  0.00    +0.000 C 
ENDBRANCH   5  12
ENDBRANCH   1   8
BRANCH   2  14
ATOM     14  C   UNL     1       7.767   6.895  17.933  0.00  0.00    +0.000 C 
BRANCH  14  15
ATOM     15  C   UNL     1       7.745   5.863  19.058  0.00  0.00    +0.000 C 
BRANCH  15  16
ATOM     16  C   UNL     1       6.336   5.595  19.593  0.00  0.00    +0.000 C 
BRANCH  16  17
ATOM     17  C   UNL     1       5.793   4.266  19.065  0.00  0.00    +0.000 C 
BRANCH  17  18
ATOM     18  C   UNL     1       4.445   4.460  18.375  0.00  0.00    +0.000 C 
BRANCH  18  19
ATOM     19  N   UNL     1       3.356   3.912  19.154  0.00  0.00    +0.000 N 
ATOM     20  C   UNL     1       2.863   2.643  18.927  0.00  0.00    +0.000 C 
ATOM     21  O   UNL     1       3.287   1.902  18.045  0.00  0.00    +0.000 OA
ATOM     22  H   UNL     1       3.071   4.392  19.999  0.00  0.00    +0.000 HD
BRANCH  20  23
ATOM     23  C   UNL     1       1.712   2.244  19.832  0.00  0.00    +0.000 C 
BRANCH  23  24
ATOM     24  S   UNL     1       1.912   2.975  21.483  0.00  0.00    +0.000 S 
ATOM     25  H   UNL     1       1.010   3.955  21.314  0.00  0.00    +0.000 HD
ENDBRANCH  23  24
ENDBRANCH  20  23
ENDBRANCH  18  19
ENDBRANCH  17  18
ENDBRANCH  16  17
ENDBRANCH  15  16
ENDBRANCH  14  15
ENDBRANCH   2  14
TORSDOF 10
ENDMDL
MODEL 8
REMARK VINA RESULT:      -5.6      5.174      7.970
REMARK  Name = 
REMARK  12 active torsions:
REMARK  status: ('A' for Active; 'I' for Inactive)
REMARK    1  A    between atoms: C_1  and  N_2
REMARK    2  A    between atoms: N_2  and  C_3
REMARK    3  A    between atoms: N_2  and  C_4
REMARK    4  A    between atoms: C_7  and  N_8
REMARK    5  A    between atoms: C_9  and  C_11
REMARK    6  A    between atoms: C_11  and  C_12
REMARK    7  A    between atoms: C_12  and  C_13
REMARK    8  A    between atoms: C_13  and  C_14
REMARK    9  A    between atoms: C_14  and  C_15
REMARK   10  A    between atoms: C_15  and  N_16
REMARK   11  A    between atoms: C_17  and  C_19
REMARK   12  A    between atoms: C_19  and  S_20
REMARK                            x       y       z     vdW  Elec       q    Type
REMARK                         _______ _______ _______ _____ _____    ______ ____
ROOT
ATOM      1  N   UNL     1       6.144   6.096  18.727  0.00  0.00    +0.000 N 
ATOM      2  C   UNL     1       6.477   6.780  17.566  0.00  0.00    +0.000 C 
ATOM      3  O   UNL     1       5.775   6.929  16.572  0.00  0.00    +0.000 OA
ATOM      4  H   UNL     1       6.801   6.134  19.494  0.00  0.00    +0.000 HD
ENDROOT
BRANCH   1   8
ATOM      5  C   UNL     1       2.588   3.863  19.528  0.00  0.00    +0.000 A 
ATOM      6  C   UNL     1       2.570   5.258  19.437  0.00  0.00    +0.000 A 
ATOM      7  C   UNL     1       3.725   6.007  19.170  0.00  0.00    +0.000 A 
ATOM      8  C   UNL     1       4.948   5.384  18.963  0.00  0.00    +0.000 A 
ATOM      9  C   UNL     1       4.987   3.990  18.987  0.00  0.00    +0.000 A 
ATOM     10  C   UNL     1       3.822   3.246  19.265  0.00  0.00    +0.000 A 
BRANCH   5  12
ATOM     11  C   UNL     1       1.217   2.704  21.218  0.00  0.00    +0.000 C 
ATOM     12  N   UNL     1       1.434   3.135  19.838  0.00  0.00    +0.000 N 
ATOM     13  C   UNL     1       0.840   2.303  18.796  0.00  0.00    +0.000 C 
ENDBRANCH   5  12
ENDBRANCH   1   8
BRANCH   2  14
ATOM     14  C   UNL     1       7.865   7.389  17.592  0.00  0.00    +0.000 C 
BRANCH  14  15
ATOM     15  C   UNL     1       7.861   8.916  17.640  0.00  0.00    +0.000 C 
BRANCH  15  16
ATOM     16  C   UNL     1       8.781   9.480  18.725  0.00  0.00    +0.000 C 
BRANCH  16  17
ATOM     17  C   UNL     1       9.416  10.797  18.275  0.00  0.00    +0.000 C 
BRANCH  17  18
ATOM     18  C   UNL     1      10.310  11.376  19.368  0.00  0.00    +0.000 C 
BRANCH  18  19
ATOM     19  N   UNL     1       9.546  11.814  20.516  0.00  0.00    +0.000 N 
ATOM     20  C   UNL     1       9.831  12.991  21.177  0.00  0.00    +0.000 C 
ATOM     21  O   UNL     1      10.756  13.734  20.863  0.00  0.00    +0.000 OA
ATOM     22  H   UNL     1       8.673  11.346  20.728  0.00  0.00    +0.000 HD
BRANCH  20  23
ATOM     23  C   UNL     1       8.933  13.280  22.365  0.00  0.00    +0.000 C 
BRANCH  23  24
ATOM     24  S   UNL     1       8.105  11.763  22.925  0.00  0.00    +0.000 S 
ATOM     25  H   UNL     1       7.021  11.897  22.144  0.00  0.00    +0.000 HD
ENDBRANCH  23  24
ENDBRANCH  20  23
ENDBRANCH  18  19
ENDBRANCH  17  18
ENDBRANCH  16  17
ENDBRANCH  15  16
ENDBRANCH  14  15
ENDBRANCH   2  14
TORSDOF 10
ENDMDL
MODEL 9
REMARK VINA RESULT:      -5.5      2.327      3.035
REMARK  Name = 
REMARK  12 active torsions:
REMARK  status: ('A' for Active; 'I' for Inactive)
REMARK    1  A    between atoms: C_1  and  N_2
REMARK    2  A    between atoms: N_2  and  C_3
REMARK    3  A    between atoms: N_2  and  C_4
REMARK    4  A    between atoms: C_7  and  N_8
REMARK    5  A    between atoms: C_9  and  C_11
REMARK    6  A    between atoms: C_11  and  C_12
REMARK    7  A    between atoms: C_12  and  C_13
REMARK    8  A    between atoms: C_13  and  C_14
REMARK    9  A    between atoms: C_14  and  C_15
REMARK   10  A    between atoms: C_15  and  N_16
REMARK   11  A    between atoms: C_17  and  C_19
REMARK   12  A    between atoms: C_19  and  S_20
REMARK                            x       y       z     vdW  Elec       q    Type
REMARK                         _______ _______ _______ _____ _____    ______ ____
ROOT
ATOM      1  N   UNL     1       3.102   6.398  19.646  0.00  0.00    +0.000 N 
ATOM      2  C   UNL     1       3.008   5.185  18.978  0.00  0.00    +0.000 C 
ATOM      3  O   UNL     1       2.279   4.923  18.027  0.00  0.00    +0.000 OA
ATOM      4  H   UNL     1       3.813   6.482  20.358  0.00  0.00    +0.000 HD
ENDROOT
BRANCH   1   8
ATOM      5  C   UNL     1       0.800   9.943  19.005  0.00  0.00    +0.000 A 
ATOM      6  C   UNL     1       1.522   9.343  17.969  0.00  0.00    +0.000 A 
ATOM      7  C   UNL     1       2.278   8.178  18.159  0.00  0.00    +0.000 A 
ATOM      8  C   UNL     1       2.327   7.551  19.397  0.00  0.00    +0.000 A 
ATOM      9  C   UNL     1       1.568   8.091  20.436  0.00  0.00    +0.000 A 
ATOM     10  C   UNL     1       0.818   9.268  20.237  0.00  0.00    +0.000 A 
BRANCH   5  12
ATOM     11  C   UNL     1       0.777  12.408  18.968  0.00  0.00    +0.000 C 
ATOM     12  N   UNL     1       0.085  11.129  18.808  0.00  0.00    +0.000 N 
ATOM     13  C   UNL     1      -1.349  11.127  19.079  0.00  0.00    +0.000 C 
ENDBRANCH   5  12
ENDBRANCH   1   8
BRANCH   2  14
ATOM     14  C   UNL     1       3.931   4.114  19.522  0.00  0.00    +0.000 C 
BRANCH  14  15
ATOM     15  C   UNL     1       5.412   4.402  19.281  0.00  0.00    +0.000 C 
BRANCH  15  16
ATOM     16  C   UNL     1       5.644   5.649  18.425  0.00  0.00    +0.000 C 
BRANCH  16  17
ATOM     17  C   UNL     1       7.111   5.760  18.005  0.00  0.00    +0.000 C 
BRANCH  17  18
ATOM     18  C   UNL     1       7.579   4.485  17.309  0.00  0.00    +0.000 C 
BRANCH  18  19
ATOM     19  N   UNL     1       6.685   4.093  16.240  0.00  0.00    +0.000 N 
ATOM     20  C   UNL     1       6.847   4.552  14.949  0.00  0.00    +0.000 C 
ATOM     21  O   UNL     1       7.731   5.336  14.617  0.00  0.00    +0.000 OA
ATOM     22  H   UNL     1       6.042   3.326  16.398  0.00  0.00    +0.000 HD
BRANCH  20  23
ATOM     23  C   UNL     1       5.808   4.045  13.965  0.00  0.00    +0.000 C 
BRANCH  23  24
ATOM     24  S   UNL     1       6.578   3.649  12.369  0.00  0.00    +0.000 S 
ATOM     25  H   UNL     1       7.619   2.971  12.879  0.00  0.00    +0.000 HD
ENDBRANCH  23  24
ENDBRANCH  20  23
ENDBRANCH  18  19
ENDBRANCH  17  18
ENDBRANCH  16  17
ENDBRANCH  15  16
ENDBRANCH  14  15
ENDBRANCH   2  14
TORSDOF 10
ENDMDL
