MODEL 1
REMARK VINA RESULT:      -8.3      0.000      0.000
REMARK  Name = 
REMARK  4 active torsions:
REMARK  status: ('A' for Active; 'I' for Inactive)
REMARK    1  A    between atoms: C_1  and  C_2
REMARK    2  A    between atoms: C_6  and  C_8
REMARK    3  A    between atoms: C_8  and  O_9
REMARK    4  A    between atoms: O_9  and  C_10
REMARK                            x       y       z     vdW  Elec       q    Type
REMARK                         _______ _______ _______ _____ _____    ______ ____
ROOT
ATOM      1  O   UNL     1       3.757   4.167  18.678  0.00  0.00    +0.000 OA
ENDROOT
BRANCH   1   2
ATOM      2  C   UNL     1       3.202   5.422  18.763  0.00  0.00    +0.000 A 
ATOM      3  C   UNL     1       3.391   6.405  17.792  0.00  0.00    +0.000 A 
ATOM      4  C   UNL     1       2.841   7.673  17.952  0.00  0.00    +0.000 A 
ATOM      5  C   UNL     1       2.072   7.989  19.074  0.00  0.00    +0.000 A 
ATOM      6  C   UNL     1       1.532   9.279  19.191  0.00  0.00    +0.000 A 
ATOM      7  C   UNL     1       0.745   9.629  20.282  0.00  0.00    +0.000 A 
ATOM      8  C   UNL     1       0.483   8.688  21.268  0.00  0.00    +0.000 A 
ATOM      9  C   UNL     1       1.027   7.403  21.172  0.00  0.00    +0.000 A 
ATOM     10  C   UNL     1       1.844   7.015  20.078  0.00  0.00    +0.000 A 
ATOM     11  C   UNL     1       2.446   5.733  19.911  0.00  0.00    +0.000 A 
ATOM     12 BR   UNL     1       2.255   4.384  21.262  0.00  0.00    +0.000 Br
ENDBRANCH   1   2
BRANCH   1  13
ATOM     13  C   UNL     1       5.151   4.075  18.960  0.00  0.00    +0.000 C 
BRANCH  13  19
ATOM     14  C   UNL     1       7.352   4.439  11.910  0.00  0.00    +0.000 C 
ATOM     15  C   UNL     1       7.053   4.521  13.349  0.00  0.00    +0.000 A 
ATOM     16  C   UNL     1       6.125   3.948  14.180  0.00  0.00    +0.000 A 
ATOM     17  C   UNL     1       6.416   4.484  15.460  0.00  0.00    +0.000 A 
ATOM     18  N   UNL     1       5.722   4.167  16.606  0.00  0.00    +0.000 N 
ATOM     19  C   UNL     1       6.007   4.681  17.853  0.00  0.00    +0.000 C 
ATOM     20  O   UNL     1       6.863   5.515  18.135  0.00  0.00    +0.000 OA
ATOM     21  N   UNL     1       7.456   5.321  15.390  0.00  0.00    +0.000 NA
ATOM     22  O   UNL     1       7.853   5.343  14.073  0.00  0.00    +0.000 OA
ATOM     23  H   UNL     1       4.963   3.499  16.537  0.00  0.00    +0.000 HD
ENDBRANCH  13  19
ENDBRANCH   1  13
TORSDOF 3
ENDMDL
MODEL 2
REMARK VINA RESULT:      -8.3      4.071      5.538
REMARK  Name = 
REMARK  4 active torsions:
REMARK  status: ('A' for Active; 'I' for Inactive)
REMARK    1  A    between atoms: C_1  and  C_2
REMARK    2  A    between atoms: C_6  and  C_8
REMARK    3  A    between atoms: C_8  and  O_9
REMARK    4  A    between atoms: O_9  and  C_10
REMARK                            x       y       z     vdW  Elec       q    Type
REMARK                         _______ _______ _______ _____ _____    ______ ____
ROOT
ATOM      1  O   UNL     1       5.479   6.519  17.023  0.00  0.00    +0.000 OA
ENDROOT
BRANCH   1   2
ATOM      2  C   UNL     1       4.884   5.581  17.834  0.00  0.00    +0.000 A 
ATOM      3  C   UNL     1       5.444   4.330  18.088  0.00  0.00    +0.000 A 
ATOM      4  C   UNL     1       4.775   3.404  18.882  0.00  0.00    +0.000 A 
ATOM      5  C   UNL     1       3.540   3.707  19.459  0.00  0.00    +0.000 A 
ATOM      6  C   UNL     1       2.904   2.744  20.258  0.00  0.00    +0.000 A 
ATOM      7  C   UNL     1       1.684   3.012  20.867  0.00  0.00    +0.000 A 
ATOM      8  C   UNL     1       1.087   4.253  20.689  0.00  0.00    +0.000 A 
ATOM      9  C   UNL     1       1.703   5.217  19.885  0.00  0.00    +0.000 A 
ATOM     10  C   UNL     1       2.942   4.973  19.238  0.00  0.00    +0.000 A 
ATOM     11  C   UNL     1       3.629   5.894  18.393  0.00  0.00    +0.000 A 
ATOM     12 BR   UNL     1       2.851   7.598  17.976  0.00  0.00    +0.000 Br
ENDBRANCH   1   2
BRANCH   1  13
ATOM     13  C   UNL     1       6.890   6.405  16.860  0.00  0.00    +0.000 C 
BRANCH  13  19
ATOM     14  C   UNL     1       9.777  12.908  18.875  0.00  0.00    +0.000 C 
ATOM     15  C   UNL     1       9.283  11.539  18.654  0.00  0.00    +0.000 A 
ATOM     16  C   UNL     1       8.472  10.939  17.725  0.00  0.00    +0.000 A 
ATOM     17  C   UNL     1       8.417   9.581  18.126  0.00  0.00    +0.000 A 
ATOM     18  N   UNL     1       7.708   8.607  17.459  0.00  0.00    +0.000 N 
ATOM     19  C   UNL     1       7.659   7.284  17.841  0.00  0.00    +0.000 C 
ATOM     20  O   UNL     1       8.178   6.777  18.832  0.00  0.00    +0.000 OA
ATOM     21  N   UNL     1       9.154   9.388  19.224  0.00  0.00    +0.000 NA
ATOM     22  O   UNL     1       9.694  10.610  19.553  0.00  0.00    +0.000 OA
ATOM     23  H   UNL     1       7.203   8.871  16.621  0.00  0.00    +0.000 HD
ENDBRANCH  13  19
ENDBRANCH   1  13
TORSDOF 3
ENDMDL
MODEL 3
REMARK VINA RESULT:      -8.2      4.335      5.861
REMARK  Name = 
REMARK  4 active torsions:
REMARK  status: ('A' for Active; 'I' for Inactive)
REMARK    1  A    between atoms: C_1  and  C_2
REMARK    2  A    between atoms: C_6  and  C_8
REMARK    3  A    between atoms: C_8  and  O_9
REMARK    4  A    between atoms: O_9  and  C_10
REMARK                            x       y       z     vdW  Elec       q    Type
REMARK                         _______ _______ _______ _____ _____    ______ ____
ROOT
ATOM      1  O   UNL     1       5.328   6.898  17.165  0.00  0.00    +0.000 OA
ENDROOT
BRANCH   1   2
ATOM      2  C   UNL     1       4.715   5.688  17.386  0.00  0.00    +0.000 A 
ATOM      3  C   UNL     1       5.249   4.475  16.956  0.00  0.00    +0.000 A 
ATOM      4  C   UNL     1       4.562   3.283  17.169  0.00  0.00    +0.000 A 
ATOM      5  C   UNL     1       3.335   3.268  17.834  0.00  0.00    +0.000 A 
ATOM      6  C   UNL     1       2.681   2.042  18.032  0.00  0.00    +0.000 A 
ATOM      7  C   UNL     1       1.466   1.981  18.707  0.00  0.00    +0.000 A 
ATOM      8  C   UNL     1       0.895   3.146  19.198  0.00  0.00    +0.000 A 
ATOM      9  C   UNL     1       1.529   4.376  18.995  0.00  0.00    +0.000 A 
ATOM     10  C   UNL     1       2.763   4.478  18.301  0.00  0.00    +0.000 A 
ATOM     11  C   UNL     1       3.467   5.691  18.041  0.00  0.00    +0.000 A 
ATOM     12 BR   UNL     1       2.723   7.380  18.567  0.00  0.00    +0.000 Br
ENDBRANCH   1   2
BRANCH   1  13
ATOM     13  C   UNL     1       6.703   6.850  16.796  0.00  0.00    +0.000 C 
BRANCH  13  19
ATOM     14  C   UNL     1      10.207  12.976  19.001  0.00  0.00    +0.000 C 
ATOM     15  C   UNL     1       9.594  11.666  18.732  0.00  0.00    +0.000 A 
ATOM     16  C   UNL     1       8.687  11.188  17.821  0.00  0.00    +0.000 A 
ATOM     17  C   UNL     1       8.546   9.816  18.146  0.00  0.00    +0.000 A 
ATOM     18  N   UNL     1       7.727   8.941  17.469  0.00  0.00    +0.000 N 
ATOM     19  C   UNL     1       7.593   7.605  17.777  0.00  0.00    +0.000 C 
ATOM     20  O   UNL     1       8.125   6.999  18.704  0.00  0.00    +0.000 OA
ATOM     21  N   UNL     1       9.327   9.499  19.184  0.00  0.00    +0.000 NA
ATOM     22  O   UNL     1       9.980  10.654  19.549  0.00  0.00    +0.000 OA
ATOM     23  H   UNL     1       7.198   9.295  16.679  0.00  0.00    +0.000 HD
ENDBRANCH  13  19
ENDBRANCH   1  13
TORSDOF 3
ENDMDL
MODEL 4
REMARK VINA RESULT:      -8.1      2.724      3.751
REMARK  Name = 
REMARK  4 active torsions:
REMARK  status: ('A' for Active; 'I' for Inactive)
REMARK    1  A    between atoms: C_1  and  C_2
REMARK    2  A    between atoms: C_6  and  C_8
REMARK    3  A    between atoms: C_8  and  O_9
REMARK    4  A    between atoms: O_9  and  C_10
REMARK                            x       y       z     vdW  Elec       q    Type
REMARK                         _______ _______ _______ _____ _____    ______ ____
ROOT
ATOM      1  O   UNL     1       5.716   6.224  18.972  0.00  0.00    +0.000 OA
ENDROOT
BRANCH   1   2
ATOM      2  C   UNL     1       4.892   5.129  19.084  0.00  0.00    +0.000 A 
ATOM      3  C   UNL     1       5.343   3.877  19.501  0.00  0.00    +0.000 A 
ATOM      4  C   UNL     1       4.472   2.793  19.553  0.00  0.00    +0.000 A 
ATOM      5  C   UNL     1       3.126   2.932  19.209  0.00  0.00    +0.000 A 
ATOM      6  C   UNL     1       2.283   1.812  19.282  0.00  0.00    +0.000 A 
ATOM      7  C   UNL     1       0.933   1.911  18.967  0.00  0.00    +0.000 A 
ATOM      8  C   UNL     1       0.407   3.136  18.580  0.00  0.00    +0.000 A 
ATOM      9  C   UNL     1       1.238   4.257  18.490  0.00  0.00    +0.000 A 
ATOM     10  C   UNL     1       2.623   4.190  18.792  0.00  0.00    +0.000 A 
ATOM     11  C   UNL     1       3.541   5.280  18.713  0.00  0.00    +0.000 A 
ATOM     12 BR   UNL     1       2.961   6.996  18.080  0.00  0.00    +0.000 Br
ENDBRANCH   1   2
BRANCH   1  13
ATOM     13  C   UNL     1       7.061   5.963  18.581  0.00  0.00    +0.000 C 
BRANCH  13  19
ATOM     14  C   UNL     1       6.208   3.064  11.832  0.00  0.00    +0.000 C 
ATOM     15  C   UNL     1       6.477   3.800  13.078  0.00  0.00    +0.000 A 
ATOM     16  C   UNL     1       6.116   3.645  14.392  0.00  0.00    +0.000 A 
ATOM     17  C   UNL     1       6.733   4.733  15.060  0.00  0.00    +0.000 A 
ATOM     18  N   UNL     1       6.638   4.962  16.414  0.00  0.00    +0.000 N 
ATOM     19  C   UNL     1       7.243   6.014  17.068  0.00  0.00    +0.000 C 
ATOM     20  O   UNL     1       7.904   6.919  16.566  0.00  0.00    +0.000 OA
ATOM     21  N   UNL     1       7.422   5.483  14.193  0.00  0.00    +0.000 NA
ATOM     22  O   UNL     1       7.261   4.900  12.958  0.00  0.00    +0.000 OA
ATOM     23  H   UNL     1       6.104   4.308  16.974  0.00  0.00    +0.000 HD
ENDBRANCH  13  19
ENDBRANCH   1  13
TORSDOF 3
ENDMDL
MODEL 5
REMARK VINA RESULT:      -7.9      4.185      5.646
REMARK  Name = 
REMARK  4 active torsions:
REMARK  status: ('A' for Active; 'I' for Inactive)
REMARK    1  A    between atoms: C_1  and  C_2
REMARK    2  A    between atoms: C_6  and  C_8
REMARK    3  A    between atoms: C_8  and  O_9
REMARK    4  A    between atoms: O_9  and  C_10
REMARK                            x       y       z     vdW  Elec       q    Type
REMARK                         _______ _______ _______ _____ _____    ______ ____
ROOT
ATOM      1  O   UNL     1       5.443   6.738  16.617  0.00  0.00    +0.000 OA
ENDROOT
BRANCH   1   2
ATOM      2  C   UNL     1       4.407   6.128  17.284  0.00  0.00    +0.000 A 
ATOM      3  C   UNL     1       3.592   6.795  18.197  0.00  0.00    +0.000 A 
ATOM      4  C   UNL     1       2.585   6.115  18.876  0.00  0.00    +0.000 A 
ATOM      5  C   UNL     1       2.351   4.757  18.648  0.00  0.00    +0.000 A 
ATOM      6  C   UNL     1       1.321   4.114  19.351  0.00  0.00    +0.000 A 
ATOM      7  C   UNL     1       1.042   2.768  19.139  0.00  0.00    +0.000 A 
ATOM      8  C   UNL     1       1.789   2.051  18.215  0.00  0.00    +0.000 A 
ATOM      9  C   UNL     1       2.828   2.676  17.518  0.00  0.00    +0.000 A 
ATOM     10  C   UNL     1       3.148   4.044  17.717  0.00  0.00    +0.000 A 
ATOM     11  C   UNL     1       4.197   4.752  17.059  0.00  0.00    +0.000 A 
ATOM     12 BR   UNL     1       5.372   3.842  15.845  0.00  0.00    +0.000 Br
ENDBRANCH   1   2
BRANCH   1  13
ATOM     13  C   UNL     1       6.747   6.226  16.877  0.00  0.00    +0.000 C 
BRANCH  13  19
ATOM     14  C   UNL     1       9.699  12.759  18.687  0.00  0.00    +0.000 C 
ATOM     15  C   UNL     1       9.197  11.388  18.506  0.00  0.00    +0.000 A 
ATOM     16  C   UNL     1       8.360  10.772  17.610  0.00  0.00    +0.000 A 
ATOM     17  C   UNL     1       8.313   9.422  18.039  0.00  0.00    +0.000 A 
ATOM     18  N   UNL     1       7.585   8.436  17.410  0.00  0.00    +0.000 N 
ATOM     19  C   UNL     1       7.543   7.121  17.820  0.00  0.00    +0.000 C 
ATOM     20  O   UNL     1       8.086   6.633  18.807  0.00  0.00    +0.000 OA
ATOM     21  N   UNL     1       9.079   9.248  19.121  0.00  0.00    +0.000 NA
ATOM     22  O   UNL     1       9.629  10.475  19.411  0.00  0.00    +0.000 OA
ATOM     23  H   UNL     1       7.059   8.686  16.581  0.00  0.00    +0.000 HD
ENDBRANCH  13  19
ENDBRANCH   1  13
TORSDOF 3
ENDMDL
MODEL 6
REMARK VINA RESULT:      -7.7      4.350      5.821
REMARK  Name = 
REMARK  4 active torsions:
REMARK  status: ('A' for Active; 'I' for Inactive)
REMARK    1  A    between atoms: C_1  and  C_2
REMARK    2  A    between atoms: C_6  and  C_8
REMARK    3  A    between atoms: C_8  and  O_9
REMARK    4  A    between atoms: O_9  and  C_10
REMARK                            x       y       z     vdW  Elec       q    Type
REMARK                         _______ _______ _______ _____ _____    ______ ____
ROOT
ATOM      1  O   UNL     1       6.243   5.836  17.608  0.00  0.00    +0.000 OA
ENDROOT
BRANCH   1   2
ATOM      2  C   UNL     1       5.377   5.087  18.368  0.00  0.00    +0.000 A 
ATOM      3  C   UNL     1       5.706   3.835  18.885  0.00  0.00    +0.000 A 
ATOM      4  C   UNL     1       4.772   3.101  19.610  0.00  0.00    +0.000 A 
ATOM      5  C   UNL     1       3.493   3.604  19.855  0.00  0.00    +0.000 A 
ATOM      6  C   UNL     1       2.586   2.831  20.596  0.00  0.00    +0.000 A 
ATOM      7  C   UNL     1       1.309   3.302  20.880  0.00  0.00    +0.000 A 
ATOM      8  C   UNL     1       0.926   4.558  20.429  0.00  0.00    +0.000 A 
ATOM      9  C   UNL     1       1.815   5.333  19.678  0.00  0.00    +0.000 A 
ATOM     10  C   UNL     1       3.121   4.879  19.360  0.00  0.00    +0.000 A 
ATOM     11  C   UNL     1       4.082   5.598  18.589  0.00  0.00    +0.000 A 
ATOM     12 BR   UNL     1       3.633   7.295  17.812  0.00  0.00    +0.000 Br
ENDBRANCH   1   2
BRANCH   1  13
ATOM     13  C   UNL     1       7.425   6.289  18.264  0.00  0.00    +0.000 C 
BRANCH  13  19
ATOM     14  C   UNL     1      10.414  12.860  19.864  0.00  0.00    +0.000 C 
ATOM     15  C   UNL     1       9.766  11.639  19.361  0.00  0.00    +0.000 A 
ATOM     16  C   UNL     1       9.647  10.348  19.811  0.00  0.00    +0.000 A 
ATOM     17  C   UNL     1       8.887   9.692  18.810  0.00  0.00    +0.000 A 
ATOM     18  N   UNL     1       8.521   8.366  18.863  0.00  0.00    +0.000 N 
ATOM     19  C   UNL     1       7.775   7.727  17.897  0.00  0.00    +0.000 C 
ATOM     20  O   UNL     1       7.368   8.200  16.839  0.00  0.00    +0.000 OA
ATOM     21  N   UNL     1       8.572  10.544  17.830  0.00  0.00    +0.000 NA
ATOM     22  O   UNL     1       9.121  11.758  18.174  0.00  0.00    +0.000 OA
ATOM     23  H   UNL     1       8.801   7.824  19.673  0.00  0.00    +0.000 HD
ENDBRANCH  13  19
ENDBRANCH   1  13
TORSDOF 3
ENDMDL
MODEL 7
REMARK VINA RESULT:      -7.5      4.830      8.130
REMARK  Name = 
REMARK  4 active torsions:
REMARK  status: ('A' for Active; 'I' for Inactive)
REMARK    1  A    between atoms: C_1  and  C_2
REMARK    2  A    between atoms: C_6  and  C_8
REMARK    3  A    between atoms: C_8  and  O_9
REMARK    4  A    between atoms: O_9  and  C_10
REMARK                            x       y       z     vdW  Elec       q    Type
REMARK                         _______ _______ _______ _____ _____    ______ ____
ROOT
ATOM      1  O   UNL     1       2.810   8.253  18.797  0.00  0.00    +0.000 OA
ENDROOT
BRANCH   1   2
ATOM      2  C   UNL     1       2.583   6.920  19.045  0.00  0.00    +0.000 A 
ATOM      3  C   UNL     1       1.746   6.467  20.064  0.00  0.00    +0.000 A 
ATOM      4  C   UNL     1       1.589   5.104  20.297  0.00  0.00    +0.000 A 
ATOM      5  C   UNL     1       2.246   4.157  19.509  0.00  0.00    +0.000 A 
ATOM      6  C   UNL     1       2.053   2.793  19.777  0.00  0.00    +0.000 A 
ATOM      7  C   UNL     1       2.673   1.818  19.005  0.00  0.00    +0.000 A 
ATOM      8  C   UNL     1       3.490   2.196  17.949  0.00  0.00    +0.000 A 
ATOM      9  C   UNL     1       3.703   3.552  17.679  0.00  0.00    +0.000 A 
ATOM     10  C   UNL     1       3.096   4.574  18.454  0.00  0.00    +0.000 A 
ATOM     11  C   UNL     1       3.270   5.976  18.255  0.00  0.00    +0.000 A 
ATOM     12 BR   UNL     1       4.466   6.625  16.902  0.00  0.00    +0.000 Br
ENDBRANCH   1   2
BRANCH   1  13
ATOM     13  C   UNL     1       1.994   8.855  17.795  0.00  0.00    +0.000 C 
BRANCH  13  19
ATOM     14  C   UNL     1      -4.800  11.738  17.354  0.00  0.00    +0.000 C 
ATOM     15  C   UNL     1      -3.441  11.249  17.635  0.00  0.00    +0.000 A 
ATOM     16  C   UNL     1      -2.556  10.422  16.991  0.00  0.00    +0.000 A 
ATOM     17  C   UNL     1      -1.422  10.386  17.841  0.00  0.00    +0.000 A 
ATOM     18  N   UNL     1      -0.277   9.670  17.572  0.00  0.00    +0.000 N 
ATOM     19  C   UNL     1       0.830   9.638  18.391  0.00  0.00    +0.000 C 
ATOM     20  O   UNL     1       0.960  10.182  19.485  0.00  0.00    +0.000 OA
ATOM     21  N   UNL     1      -1.623  11.148  18.921  0.00  0.00    +0.000 NA
ATOM     22  O   UNL     1      -2.882  11.686  18.791  0.00  0.00    +0.000 OA
ATOM     23  H   UNL     1      -0.234   9.145  16.706  0.00  0.00    +0.000 HD
ENDBRANCH  13  19
ENDBRANCH   1  13
TORSDOF 3
ENDMDL
MODEL 8
REMARK VINA RESULT:      -7.4      4.865      7.947
REMARK  Name = 
REMARK  4 active torsions:
REMARK  status: ('A' for Active; 'I' for Inactive)
REMARK    1  A    between atoms: C_1  and  C_2
REMARK    2  A    between atoms: C_6  and  C_8
REMARK    3  A    between atoms: C_8  and  O_9
REMARK    4  A    between atoms: O_9  and  C_10
REMARK                            x       y       z     vdW  Elec       q    Type
REMARK                         _______ _______ _______ _____ _____    ______ ____
ROOT
ATOM      1  O   UNL     1       1.979   8.252  20.139  0.00  0.00    +0.000 OA
ENDROOT
BRANCH   1   2
ATOM      2  C   UNL     1       1.928   6.889  19.969  0.00  0.00    +0.000 A 
ATOM      3  C   UNL     1       1.351   6.027  20.900  0.00  0.00    +0.000 A 
ATOM      4  C   UNL     1       1.368   4.650  20.696  0.00  0.00    +0.000 A 
ATOM      5  C   UNL     1       1.943   4.099  19.549  0.00  0.00    +0.000 A 
ATOM      6  C   UNL     1       1.931   2.705  19.383  0.00  0.00    +0.000 A 
ATOM      7  C   UNL     1       2.475   2.116  18.247  0.00  0.00    +0.000 A 
ATOM      8  C   UNL     1       3.032   2.916  17.260  0.00  0.00    +0.000 A 
ATOM      9  C   UNL     1       3.063   4.305  17.419  0.00  0.00    +0.000 A 
ATOM     10  C   UNL     1       2.528   4.940  18.570  0.00  0.00    +0.000 A 
ATOM     11  C   UNL     1       2.531   6.345  18.817  0.00  0.00    +0.000 A 
ATOM     12 BR   UNL     1       3.375   7.547  17.582  0.00  0.00    +0.000 Br
ENDBRANCH   1   2
BRANCH   1  13
ATOM     13  C   UNL     1       1.154   8.790  21.168  0.00  0.00    +0.000 C 
BRANCH  13  19
ATOM     14  C   UNL     1      -3.219  11.243  15.734  0.00  0.00    +0.000 C 
ATOM     15  C   UNL     1      -2.429  10.912  16.930  0.00  0.00    +0.000 A 
ATOM     16  C   UNL     1      -1.584   9.890  17.283  0.00  0.00    +0.000 A 
ATOM     17  C   UNL     1      -1.174  10.208  18.601  0.00  0.00    +0.000 A 
ATOM     18  N   UNL     1      -0.304   9.443  19.345  0.00  0.00    +0.000 N 
ATOM     19  C   UNL     1       0.104   9.753  20.624  0.00  0.00    +0.000 C 
ATOM     20  O   UNL     1      -0.263  10.702  21.312  0.00  0.00    +0.000 OA
ATOM     21  N   UNL     1      -1.738  11.351  19.004  0.00  0.00    +0.000 NA
ATOM     22  O   UNL     1      -2.521  11.790  17.961  0.00  0.00    +0.000 OA
ATOM     23  H   UNL     1       0.078   8.605  18.922  0.00  0.00    +0.000 HD
ENDBRANCH  13  19
ENDBRANCH   1  13
TORSDOF 3
ENDMDL
MODEL 9
REMARK VINA RESULT:      -7.4      4.777      8.011
REMARK  Name = 
REMARK  4 active torsions:
REMARK  status: ('A' for Active; 'I' for Inactive)
REMARK    1  A    between atoms: C_1  and  C_2
REMARK    2  A    between atoms: C_6  and  C_8
REMARK    3  A    between atoms: C_8  and  O_9
REMARK    4  A    between atoms: O_9  and  C_10
REMARK                            x       y       z     vdW  Elec       q    Type
REMARK                         _______ _______ _______ _____ _____    ______ ____
ROOT
ATOM      1  O   UNL     1       2.506   8.162  18.905  0.00  0.00    +0.000 OA
ENDROOT
BRANCH   1   2
ATOM      2  C   UNL     1       2.916   6.909  18.518  0.00  0.00    +0.000 A 
ATOM      3  C   UNL     1       3.757   6.686  17.428  0.00  0.00    +0.000 A 
ATOM      4  C   UNL     1       4.104   5.391  17.055  0.00  0.00    +0.000 A 
ATOM      5  C   UNL     1       3.638   4.286  17.769  0.00  0.00    +0.000 A 
ATOM      6  C   UNL     1       4.018   2.998  17.360  0.00  0.00    +0.000 A 
ATOM      7  C   UNL     1       3.593   1.872  18.055  0.00  0.00    +0.000 A 
ATOM      8  C   UNL     1       2.785   2.021  19.173  0.00  0.00    +0.000 A 
ATOM      9  C   UNL     1       2.386   3.297  19.584  0.00  0.00    +0.000 A 
ATOM     10  C   UNL     1       2.792   4.468  18.892  0.00  0.00    +0.000 A 
ATOM     11  C   UNL     1       2.420   5.801  19.236  0.00  0.00    +0.000 A 
ATOM     12 BR   UNL     1       1.214   6.131  20.691  0.00  0.00    +0.000 Br
ENDBRANCH   1   2
BRANCH   1  13
ATOM     13  C   UNL     1       2.012   9.011  17.873  0.00  0.00    +0.000 C 
BRANCH  13  19
ATOM     14  C   UNL     1      -4.890  11.566  17.163  0.00  0.00    +0.000 C 
ATOM     15  C   UNL     1      -3.504  11.182  17.474  0.00  0.00    +0.000 A 
ATOM     16  C   UNL     1      -2.620  10.256  16.981  0.00  0.00    +0.000 A 
ATOM     17  C   UNL     1      -1.449  10.433  17.759  0.00  0.00    +0.000 A 
ATOM     18  N   UNL     1      -0.294   9.703  17.593  0.00  0.00    +0.000 N 
ATOM     19  C   UNL     1       0.849   9.878  18.343  0.00  0.00    +0.000 C 
ATOM     20  O   UNL     1       1.010  10.650  19.284  0.00  0.00    +0.000 OA
ATOM     21  N   UNL     1      -1.628  11.408  18.656  0.00  0.00    +0.000 NA
ATOM     22  O   UNL     1      -2.909  11.875  18.477  0.00  0.00    +0.000 OA
ATOM     23  H   UNL     1      -0.271   9.003  16.861  0.00  0.00    +0.000 HD
ENDBRANCH  13  19
ENDBRANCH   1  13
TORSDOF 3
ENDMDL
