MODEL 1
REMARK VINA RESULT:      -8.1      0.000      0.000
REMARK  Name = 
REMARK  11 active torsions:
REMARK  status: ('A' for Active; 'I' for Inactive)
REMARK    1  A    between atoms: C_2  and  C_3
REMARK    2  A    between atoms: C_3  and  O_4
REMARK    3  A    between atoms: O_4  and  C_5
REMARK    4  A    between atoms: C_5  and  C_7
REMARK    5  A    between atoms: C_9  and  C_10
REMARK    6  A    between atoms: C_20  and  O_21
REMARK    7  A    between atoms: O_21  and  C_22
REMARK    8  A    between atoms: C_22  and  C_23
REMARK    9  A    between atoms: C_23  and  C_24
REMARK   10  A    between atoms: C_24  and  C_25
REMARK   11  A    between atoms: C_25  and  O_26
REMARK                            x       y       z     vdW  Elec       q    Type
REMARK                         _______ _______ _______ _____ _____    ______ ____
ROOT
ATOM      1  C   UNL     1       6.831   4.907  16.048  0.00  0.00    +0.000 C 
ATOM      2  C   UNL     1       5.893   4.107  16.581  0.00  0.00    +0.000 C 
ATOM      3  C   UNL     1       5.476   4.183  18.013  0.00  0.00    +0.000 C 
ATOM      4  C   UNL     1       6.096   5.393  18.699  0.00  0.00    +0.000 C 
ATOM      5  C   UNL     1       7.527   5.625  18.219  0.00  0.00    +0.000 C 
ATOM      6  O   UNL     1       7.574   5.808  16.788  0.00  0.00    +0.000 OA
ENDROOT
BRANCH   3   7
ATOM      7  C   UNL     1       3.971   4.203  18.181  0.00  0.00    +0.000 A 
ATOM      8  C   UNL     1       3.080   4.789  17.296  0.00  0.00    +0.000 A 
ATOM      9  S   UNL     1       1.458   4.629  17.777  0.00  0.00    +0.000 S 
ATOM     10  C   UNL     1       1.893   3.804  19.220  0.00  0.00    +0.000 A 
ATOM     11  C   UNL     1       1.016   3.325  20.211  0.00  0.00    +0.000 A 
ATOM     12  C   UNL     1       1.544   2.692  21.336  0.00  0.00    +0.000 A 
ATOM     13  C   UNL     1       2.914   2.542  21.482  0.00  0.00    +0.000 A 
ATOM     14  C   UNL     1       3.781   3.012  20.492  0.00  0.00    +0.000 A 
ATOM     15  C   UNL     1       3.278   3.650  19.329  0.00  0.00    +0.000 A 
ENDBRANCH   3   7
BRANCH   1  16
ATOM     16  C   UNL     1       7.011   4.792  14.562  0.00  0.00    +0.000 C 
ATOM     17  O   UNL     1       7.796   5.490  13.931  0.00  0.00    +0.000 OA
BRANCH  16  18
ATOM     18  O   UNL     1       6.206   3.840  14.035  0.00  0.00    +0.000 OA
BRANCH  18  19
ATOM     19  C   UNL     1       6.353   3.640  12.622  0.00  0.00    +0.000 C 
BRANCH  19  21
ATOM     20  C   UNL     1       4.237   3.382  11.297  0.00  0.00    +0.000 C 
ATOM     21  C   UNL     1       5.166   2.877  12.118  0.00  0.00    +0.000 C 
ENDBRANCH  19  21
ENDBRANCH  18  19
ENDBRANCH  16  18
ENDBRANCH   1  16
BRANCH   5  22
ATOM     22  O   UNL     1       8.069   6.803  18.836  0.00  0.00    +0.000 OA
BRANCH  22  23
ATOM     23  C   UNL     1       8.059   7.973  18.021  0.00  0.00    +0.000 C 
BRANCH  23  24
ATOM     24  C   UNL     1       8.662   9.136  18.804  0.00  0.00    +0.000 C 
BRANCH  24  25
ATOM     25  C   UNL     1       8.764  10.401  17.948  0.00  0.00    +0.000 C 
BRANCH  25  26
ATOM     26  C   UNL     1       9.958  11.254  18.348  0.00  0.00    +0.000 C 
BRANCH  26  27
ATOM     27  O   UNL     1       9.937  12.477  17.625  0.00  0.00    +0.000 OA
ATOM     28  H   UNL     1      10.693  13.008  17.931  0.00  0.00    +0.000 HD
ENDBRANCH  26  27
ENDBRANCH  25  26
ENDBRANCH  24  25
ENDBRANCH  23  24
ENDBRANCH  22  23
ENDBRANCH   5  22
TORSDOF 11
ENDMDL
MODEL 2
REMARK VINA RESULT:      -7.8      1.793      6.566
REMARK  Name = 
REMARK  11 active torsions:
REMARK  status: ('A' for Active; 'I' for Inactive)
REMARK    1  A    between atoms: C_2  and  C_3
REMARK    2  A    between atoms: C_3  and  O_4
REMARK    3  A    between atoms: O_4  and  C_5
REMARK    4  A    between atoms: C_5  and  C_7
REMARK    5  A    between atoms: C_9  and  C_10
REMARK    6  A    between atoms: C_20  and  O_21
REMARK    7  A    between atoms: O_21  and  C_22
REMARK    8  A    between atoms: C_22  and  C_23
REMARK    9  A    between atoms: C_23  and  C_24
REMARK   10  A    between atoms: C_24  and  C_25
REMARK   11  A    between atoms: C_25  and  O_26
REMARK                            x       y       z     vdW  Elec       q    Type
REMARK                         _______ _______ _______ _____ _____    ______ ____
ROOT
ATOM      1  C   UNL     1       6.789   6.184  16.952  0.00  0.00    +0.000 C 
ATOM      2  C   UNL     1       5.565   5.974  17.464  0.00  0.00    +0.000 C 
ATOM      3  C   UNL     1       4.531   5.137  16.785  0.00  0.00    +0.000 C 
ATOM      4  C   UNL     1       5.118   4.415  15.580  0.00  0.00    +0.000 C 
ATOM      5  C   UNL     1       6.111   5.304  14.835  0.00  0.00    +0.000 C 
ATOM      6  O   UNL     1       7.181   5.734  15.705  0.00  0.00    +0.000 OA
ENDROOT
BRANCH   3   7
ATOM      7  C   UNL     1       3.881   4.141  17.724  0.00  0.00    +0.000 A 
ATOM      8  C   UNL     1       3.990   2.764  17.621  0.00  0.00    +0.000 A 
ATOM      9  S   UNL     1       3.142   1.934  18.837  0.00  0.00    +0.000 S 
ATOM     10  C   UNL     1       2.555   3.395  19.523  0.00  0.00    +0.000 A 
ATOM     11  C   UNL     1       1.712   3.518  20.644  0.00  0.00    +0.000 A 
ATOM     12  C   UNL     1       1.312   4.789  21.057  0.00  0.00    +0.000 A 
ATOM     13  C   UNL     1       1.732   5.916  20.370  0.00  0.00    +0.000 A 
ATOM     14  C   UNL     1       2.575   5.791  19.263  0.00  0.00    +0.000 A 
ATOM     15  C   UNL     1       3.012   4.515  18.822  0.00  0.00    +0.000 A 
ENDBRANCH   3   7
BRANCH   1  16
ATOM     16  C   UNL     1       7.745   6.924  17.842  0.00  0.00    +0.000 C 
ATOM     17  O   UNL     1       8.059   6.527  18.958  0.00  0.00    +0.000 OA
BRANCH  16  18
ATOM     18  O   UNL     1       8.193   8.059  17.256  0.00  0.00    +0.000 OA
BRANCH  18  19
ATOM     19  C   UNL     1       7.887   9.267  17.967  0.00  0.00    +0.000 C 
BRANCH  19  21
ATOM     20  C   UNL     1       9.343  10.951  19.126  0.00  0.00    +0.000 C 
ATOM     21  C   UNL     1       9.102   9.695  18.734  0.00  0.00    +0.000 C 
ENDBRANCH  19  21
ENDBRANCH  18  19
ENDBRANCH  16  18
ENDBRANCH   1  16
BRANCH   5  22
ATOM     22  O   UNL     1       6.693   4.583  13.738  0.00  0.00    +0.000 OA
BRANCH  22  23
ATOM     23  C   UNL     1       5.815   3.670  13.080  0.00  0.00    +0.000 C 
BRANCH  23  24
ATOM     24  C   UNL     1       6.525   3.079  11.865  0.00  0.00    +0.000 C 
BRANCH  24  25
ATOM     25  C   UNL     1       5.774   1.867  11.307  0.00  0.00    +0.000 C 
BRANCH  25  26
ATOM     26  C   UNL     1       6.714   0.705  11.028  0.00  0.00    +0.000 C 
BRANCH  26  27
ATOM     27  O   UNL     1       6.143  -0.502  11.515  0.00  0.00    +0.000 OA
ATOM     28  H   UNL     1       5.453  -0.771  10.884  0.00  0.00    +0.000 HD
ENDBRANCH  26  27
ENDBRANCH  25  26
ENDBRANCH  24  25
ENDBRANCH  23  24
ENDBRANCH  22  23
ENDBRANCH   5  22
TORSDOF 11
ENDMDL
MODEL 3
REMARK VINA RESULT:      -7.6      4.414      6.440
REMARK  Name = 
REMARK  11 active torsions:
REMARK  status: ('A' for Active; 'I' for Inactive)
REMARK    1  A    between atoms: C_2  and  C_3
REMARK    2  A    between atoms: C_3  and  O_4
REMARK    3  A    between atoms: O_4  and  C_5
REMARK    4  A    between atoms: C_5  and  C_7
REMARK    5  A    between atoms: C_9  and  C_10
REMARK    6  A    between atoms: C_20  and  O_21
REMARK    7  A    between atoms: O_21  and  C_22
REMARK    8  A    between atoms: C_22  and  C_23
REMARK    9  A    between atoms: C_23  and  C_24
REMARK   10  A    between atoms: C_24  and  C_25
REMARK   11  A    between atoms: C_25  and  O_26
REMARK                            x       y       z     vdW  Elec       q    Type
REMARK                         _______ _______ _______ _____ _____    ______ ____
ROOT
ATOM      1  C   UNL     1       2.190   5.102  18.602  0.00  0.00    +0.000 C 
ATOM      2  C   UNL     1       1.912   6.144  19.403  0.00  0.00    +0.000 C 
ATOM      3  C   UNL     1       2.565   7.478  19.261  0.00  0.00    +0.000 C 
ATOM      4  C   UNL     1       3.404   7.543  17.992  0.00  0.00    +0.000 C 
ATOM      5  C   UNL     1       4.118   6.218  17.735  0.00  0.00    +0.000 C 
ATOM      6  O   UNL     1       3.176   5.128  17.633  0.00  0.00    +0.000 OA
ENDROOT
BRANCH   3   7
ATOM      7  C   UNL     1       1.570   8.620  19.287  0.00  0.00    +0.000 A 
ATOM      8  C   UNL     1       1.155   9.337  18.176  0.00  0.00    +0.000 A 
ATOM      9  S   UNL     1       0.025  10.550  18.549  0.00  0.00    +0.000 S 
ATOM     10  C   UNL     1       0.084  10.189  20.227  0.00  0.00    +0.000 A 
ATOM     11  C   UNL     1      -0.633  10.835  21.252  0.00  0.00    +0.000 A 
ATOM     12  C   UNL     1      -0.449  10.425  22.572  0.00  0.00    +0.000 A 
ATOM     13  C   UNL     1       0.434   9.400  22.874  0.00  0.00    +0.000 A 
ATOM     14  C   UNL     1       1.138   8.756  21.854  0.00  0.00    +0.000 A 
ATOM     15  C   UNL     1       0.966   9.139  20.498  0.00  0.00    +0.000 A 
ENDBRANCH   3   7
BRANCH   1  16
ATOM     16  C   UNL     1       1.329   3.888  18.794  0.00  0.00    +0.000 C 
ATOM     17  O   UNL     1       1.099   3.085  17.897  0.00  0.00    +0.000 OA
BRANCH  16  18
ATOM     18  O   UNL     1       0.852   3.811  20.059  0.00  0.00    +0.000 OA
BRANCH  18  19
ATOM     19  C   UNL     1       1.197   2.609  20.762  0.00  0.00    +0.000 C 
BRANCH  19  21
ATOM     20  C   UNL     1       3.702   2.456  20.741  0.00  0.00    +0.000 C 
ATOM     21  C   UNL     1       2.561   2.777  21.361  0.00  0.00    +0.000 C 
ENDBRANCH  19  21
ENDBRANCH  18  19
ENDBRANCH  16  18
ENDBRANCH   1  16
BRANCH   5  22
ATOM     22  O   UNL     1       4.856   6.285  16.506  0.00  0.00    +0.000 OA
BRANCH  22  23
ATOM     23  C   UNL     1       6.253   6.017  16.622  0.00  0.00    +0.000 C 
BRANCH  23  24
ATOM     24  C   UNL     1       6.957   7.253  17.173  0.00  0.00    +0.000 C 
BRANCH  24  25
ATOM     25  C   UNL     1       7.879   6.902  18.344  0.00  0.00    +0.000 C 
BRANCH  25  26
ATOM     26  C   UNL     1       7.483   5.586  18.995  0.00  0.00    +0.000 C 
BRANCH  26  27
ATOM     27  O   UNL     1       7.981   5.540  20.325  0.00  0.00    +0.000 OA
ATOM     28  H   UNL     1       7.566   6.270  20.816  0.00  0.00    +0.000 HD
ENDBRANCH  26  27
ENDBRANCH  25  26
ENDBRANCH  24  25
ENDBRANCH  23  24
ENDBRANCH  22  23
ENDBRANCH   5  22
TORSDOF 11
ENDMDL
MODEL 4
REMARK VINA RESULT:      -7.6      3.854      7.241
REMARK  Name = 
REMARK  11 active torsions:
REMARK  status: ('A' for Active; 'I' for Inactive)
REMARK    1  A    between atoms: C_2  and  C_3
REMARK    2  A    between atoms: C_3  and  O_4
REMARK    3  A    between atoms: O_4  and  C_5
REMARK    4  A    between atoms: C_5  and  C_7
REMARK    5  A    between atoms: C_9  and  C_10
REMARK    6  A    between atoms: C_20  and  O_21
REMARK    7  A    between atoms: O_21  and  C_22
REMARK    8  A    between atoms: C_22  and  C_23
REMARK    9  A    between atoms: C_23  and  C_24
REMARK   10  A    between atoms: C_24  and  C_25
REMARK   11  A    between atoms: C_25  and  O_26
REMARK                            x       y       z     vdW  Elec       q    Type
REMARK                         _______ _______ _______ _____ _____    ______ ____
ROOT
ATOM      1  C   UNL     1       4.903   5.302  18.296  0.00  0.00    +0.000 C 
ATOM      2  C   UNL     1       4.272   6.487  18.348  0.00  0.00    +0.000 C 
ATOM      3  C   UNL     1       2.807   6.641  18.101  0.00  0.00    +0.000 C 
ATOM      4  C   UNL     1       2.126   5.283  17.995  0.00  0.00    +0.000 C 
ATOM      5  C   UNL     1       3.009   4.280  17.256  0.00  0.00    +0.000 C 
ATOM      6  O   UNL     1       4.286   4.126  17.912  0.00  0.00    +0.000 OA
ENDROOT
BRANCH   3   7
ATOM      7  C   UNL     1       2.125   7.485  19.158  0.00  0.00    +0.000 A 
ATOM      8  C   UNL     1       1.698   7.021  20.392  0.00  0.00    +0.000 A 
ATOM      9  S   UNL     1       0.974   8.227  21.345  0.00  0.00    +0.000 S 
ATOM     10  C   UNL     1       1.165   9.412  20.116  0.00  0.00    +0.000 A 
ATOM     11  C   UNL     1       0.763  10.760  20.178  0.00  0.00    +0.000 A 
ATOM     12  C   UNL     1       0.977  11.584  19.073  0.00  0.00    +0.000 A 
ATOM     13  C   UNL     1       1.571  11.083  17.926  0.00  0.00    +0.000 A 
ATOM     14  C   UNL     1       1.975   9.746  17.870  0.00  0.00    +0.000 A 
ATOM     15  C   UNL     1       1.784   8.883  18.980  0.00  0.00    +0.000 A 
ENDBRANCH   3   7
BRANCH   1  16
ATOM     16  C   UNL     1       6.343   5.317  18.719  0.00  0.00    +0.000 C 
ATOM     17  O   UNL     1       6.734   4.814  19.766  0.00  0.00    +0.000 OA
BRANCH  16  18
ATOM     18  O   UNL     1       7.123   5.948  17.811  0.00  0.00    +0.000 OA
BRANCH  18  19
ATOM     19  C   UNL     1       8.029   6.915  18.361  0.00  0.00    +0.000 C 
BRANCH  19  21
ATOM     20  C   UNL     1       8.335   9.391  18.086  0.00  0.00    +0.000 C 
ATOM     21  C   UNL     1       7.786   8.235  17.694  0.00  0.00    +0.000 C 
ENDBRANCH  19  21
ENDBRANCH  18  19
ENDBRANCH  16  18
ENDBRANCH   1  16
BRANCH   5  22
ATOM     22  O   UNL     1       2.370   2.995  17.217  0.00  0.00    +0.000 OA
BRANCH  22  23
ATOM     23  C   UNL     1       2.359   2.287  18.456  0.00  0.00    +0.000 C 
BRANCH  23  24
ATOM     24  C   UNL     1       0.968   2.384  19.076  0.00  0.00    +0.000 C 
BRANCH  24  25
ATOM     25  C   UNL     1       1.024   2.920  20.509  0.00  0.00    +0.000 C 
BRANCH  25  26
ATOM     26  C   UNL     1       2.448   3.253  20.928  0.00  0.00    +0.000 C 
BRANCH  26  27
ATOM     27  O   UNL     1       2.826   2.440  22.030  0.00  0.00    +0.000 OA
ATOM     28  H   UNL     1       3.084   1.571  21.676  0.00  0.00    +0.000 HD
ENDBRANCH  26  27
ENDBRANCH  25  26
ENDBRANCH  24  25
ENDBRANCH  23  24
ENDBRANCH  22  23
ENDBRANCH   5  22
TORSDOF 11
ENDMDL
MODEL 5
REMARK VINA RESULT:      -7.5      4.234      6.459
REMARK  Name = 
REMARK  11 active torsions:
REMARK  status: ('A' for Active; 'I' for Inactive)
REMARK    1  A    between atoms: C_2  and  C_3
REMARK    2  A    between atoms: C_3  and  O_4
REMARK    3  A    between atoms: O_4  and  C_5
REMARK    4  A    between atoms: C_5  and  C_7
REMARK    5  A    between atoms: C_9  and  C_10
REMARK    6  A    between atoms: C_20  and  O_21
REMARK    7  A    between atoms: O_21  and  C_22
REMARK    8  A    between atoms: C_22  and  C_23
REMARK    9  A    between atoms: C_23  and  C_24
REMARK   10  A    between atoms: C_24  and  C_25
REMARK   11  A    between atoms: C_25  and  O_26
REMARK                            x       y       z     vdW  Elec       q    Type
REMARK                         _______ _______ _______ _____ _____    ______ ____
ROOT
ATOM      1  C   UNL     1       2.615   5.213  18.009  0.00  0.00    +0.000 C 
ATOM      2  C   UNL     1       2.213   6.148  18.886  0.00  0.00    +0.000 C 
ATOM      3  C   UNL     1       2.735   7.547  18.881  0.00  0.00    +0.000 C 
ATOM      4  C   UNL     1       3.598   7.804  17.653  0.00  0.00    +0.000 C 
ATOM      5  C   UNL     1       4.446   6.581  17.311  0.00  0.00    +0.000 C 
ATOM      6  O   UNL     1       3.620   5.419  17.083  0.00  0.00    +0.000 OA
ENDROOT
BRANCH   3   7
ATOM      7  C   UNL     1       1.630   8.580  18.967  0.00  0.00    +0.000 A 
ATOM      8  C   UNL     1       1.090   9.257  17.887  0.00  0.00    +0.000 A 
ATOM      9  S   UNL     1      -0.138  10.347  18.327  0.00  0.00    +0.000 S 
ATOM     10  C   UNL     1       0.042   9.984  19.996  0.00  0.00    +0.000 A 
ATOM     11  C   UNL     1      -0.686  10.548  21.062  0.00  0.00    +0.000 A 
ATOM     12  C   UNL     1      -0.394  10.152  22.367  0.00  0.00    +0.000 A 
ATOM     13  C   UNL     1       0.602   9.221  22.614  0.00  0.00    +0.000 A 
ATOM     14  C   UNL     1       1.317   8.658  21.554  0.00  0.00    +0.000 A 
ATOM     15  C   UNL     1       1.039   9.028  20.213  0.00  0.00    +0.000 A 
ENDBRANCH   3   7
BRANCH   1  16
ATOM     16  C   UNL     1       1.873   3.909  18.067  0.00  0.00    +0.000 C 
ATOM     17  O   UNL     1       0.783   3.740  17.534  0.00  0.00    +0.000 OA
BRANCH  16  18
ATOM     18  O   UNL     1       2.557   2.978  18.773  0.00  0.00    +0.000 OA
BRANCH  18  19
ATOM     19  C   UNL     1       1.752   2.169  19.642  0.00  0.00    +0.000 C 
BRANCH  19  21
ATOM     20  C   UNL     1       2.141   3.396  21.797  0.00  0.00    +0.000 C 
ATOM     21  C   UNL     1       1.324   3.000  20.814  0.00  0.00    +0.000 C 
ENDBRANCH  19  21
ENDBRANCH  18  19
ENDBRANCH  16  18
ENDBRANCH   1  16
BRANCH   5  22
ATOM     22  O   UNL     1       5.208   6.827  16.119  0.00  0.00    +0.000 OA
BRANCH  22  23
ATOM     23  C   UNL     1       6.219   5.861  15.836  0.00  0.00    +0.000 C 
BRANCH  23  24
ATOM     24  C   UNL     1       7.320   5.964  16.887  0.00  0.00    +0.000 C 
BRANCH  24  25
ATOM     25  C   UNL     1       7.489   4.653  17.659  0.00  0.00    +0.000 C 
BRANCH  25  26
ATOM     26  C   UNL     1       6.559   4.586  18.860  0.00  0.00    +0.000 C 
BRANCH  26  27
ATOM     27  O   UNL     1       5.603   3.552  18.669  0.00  0.00    +0.000 OA
ATOM     28  H   UNL     1       5.712   3.220  17.761  0.00  0.00    +0.000 HD
ENDBRANCH  26  27
ENDBRANCH  25  26
ENDBRANCH  24  25
ENDBRANCH  23  24
ENDBRANCH  22  23
ENDBRANCH   5  22
TORSDOF 11
ENDMDL
MODEL 6
REMARK VINA RESULT:      -7.5      1.730      6.357
REMARK  Name = 
REMARK  11 active torsions:
REMARK  status: ('A' for Active; 'I' for Inactive)
REMARK    1  A    between atoms: C_2  and  C_3
REMARK    2  A    between atoms: C_3  and  O_4
REMARK    3  A    between atoms: O_4  and  C_5
REMARK    4  A    between atoms: C_5  and  C_7
REMARK    5  A    between atoms: C_9  and  C_10
REMARK    6  A    between atoms: C_20  and  O_21
REMARK    7  A    between atoms: O_21  and  C_22
REMARK    8  A    between atoms: C_22  and  C_23
REMARK    9  A    between atoms: C_23  and  C_24
REMARK   10  A    between atoms: C_24  and  C_25
REMARK   11  A    between atoms: C_25  and  O_26
REMARK                            x       y       z     vdW  Elec       q    Type
REMARK                         _______ _______ _______ _____ _____    ______ ____
ROOT
ATOM      1  C   UNL     1       6.874   6.180  17.027  0.00  0.00    +0.000 C 
ATOM      2  C   UNL     1       5.563   6.159  17.318  0.00  0.00    +0.000 C 
ATOM      3  C   UNL     1       4.576   5.327  16.569  0.00  0.00    +0.000 C 
ATOM      4  C   UNL     1       5.279   4.382  15.604  0.00  0.00    +0.000 C 
ATOM      5  C   UNL     1       6.484   5.056  14.954  0.00  0.00    +0.000 C 
ATOM      6  O   UNL     1       7.426   5.514  15.948  0.00  0.00    +0.000 OA
ENDROOT
BRANCH   3   7
ATOM      7  C   UNL     1       3.658   4.545  17.488  0.00  0.00    +0.000 A 
ATOM      8  C   UNL     1       3.366   3.197  17.360  0.00  0.00    +0.000 A 
ATOM      9  S   UNL     1       2.305   2.627  18.558  0.00  0.00    +0.000 S 
ATOM     10  C   UNL     1       2.160   4.184  19.270  0.00  0.00    +0.000 A 
ATOM     11  C   UNL     1       1.380   4.526  20.391  0.00  0.00    +0.000 A 
ATOM     12  C   UNL     1       1.361   5.851  20.826  0.00  0.00    +0.000 A 
ATOM     13  C   UNL     1       2.095   6.820  20.161  0.00  0.00    +0.000 A 
ATOM     14  C   UNL     1       2.874   6.476  19.054  0.00  0.00    +0.000 A 
ATOM     15  C   UNL     1       2.926   5.136  18.591  0.00  0.00    +0.000 A 
ENDBRANCH   3   7
BRANCH   1  16
ATOM     16  C   UNL     1       7.737   6.956  17.979  0.00  0.00    +0.000 C 
ATOM     17  O   UNL     1       8.212   6.466  18.997  0.00  0.00    +0.000 OA
BRANCH  16  18
ATOM     18  O   UNL     1       7.907   8.235  17.569  0.00  0.00    +0.000 OA
BRANCH  18  19
ATOM     19  C   UNL     1       8.627   9.071  18.483  0.00  0.00    +0.000 C 
BRANCH  19  21
ATOM     20  C   UNL     1       9.805  11.243  18.035  0.00  0.00    +0.000 C 
ATOM     21  C   UNL     1       8.740  10.445  17.892  0.00  0.00    +0.000 C 
ENDBRANCH  19  21
ENDBRANCH  18  19
ENDBRANCH  16  18
ENDBRANCH   1  16
BRANCH   5  22
ATOM     22  O   UNL     1       7.163   4.129  14.092  0.00  0.00    +0.000 OA
BRANCH  22  23
ATOM     23  C   UNL     1       6.895   4.288  12.700  0.00  0.00    +0.000 C 
BRANCH  23  24
ATOM     24  C   UNL     1       5.865   3.249  12.265  0.00  0.00    +0.000 C 
BRANCH  24  25
ATOM     25  C   UNL     1       4.602   3.907  11.701  0.00  0.00    +0.000 C 
BRANCH  25  26
ATOM     26  C   UNL     1       3.737   2.907  10.950  0.00  0.00    +0.000 C 
BRANCH  26  27
ATOM     27  O   UNL     1       3.043   3.567   9.901  0.00  0.00    +0.000 OA
ATOM     28  H   UNL     1       3.606   4.300   9.596  0.00  0.00    +0.000 HD
ENDBRANCH  26  27
ENDBRANCH  25  26
ENDBRANCH  24  25
ENDBRANCH  23  24
ENDBRANCH  22  23
ENDBRANCH   5  22
TORSDOF 11
ENDMDL
MODEL 7
REMARK VINA RESULT:      -7.5      4.002      6.764
REMARK  Name = 
REMARK  11 active torsions:
REMARK  status: ('A' for Active; 'I' for Inactive)
REMARK    1  A    between atoms: C_2  and  C_3
REMARK    2  A    between atoms: C_3  and  O_4
REMARK    3  A    between atoms: O_4  and  C_5
REMARK    4  A    between atoms: C_5  and  C_7
REMARK    5  A    between atoms: C_9  and  C_10
REMARK    6  A    between atoms: C_20  and  O_21
REMARK    7  A    between atoms: O_21  and  C_22
REMARK    8  A    between atoms: C_22  and  C_23
REMARK    9  A    between atoms: C_23  and  C_24
REMARK   10  A    between atoms: C_24  and  C_25
REMARK   11  A    between atoms: C_25  and  O_26
REMARK                            x       y       z     vdW  Elec       q    Type
REMARK                         _______ _______ _______ _____ _____    ______ ____
ROOT
ATOM      1  C   UNL     1       2.759   4.903  17.885  0.00  0.00    +0.000 C 
ATOM      2  C   UNL     1       2.325   5.841  18.743  0.00  0.00    +0.000 C 
ATOM      3  C   UNL     1       2.926   7.205  18.831  0.00  0.00    +0.000 C 
ATOM      4  C   UNL     1       3.925   7.436  17.705  0.00  0.00    +0.000 C 
ATOM      5  C   UNL     1       4.730   6.171  17.416  0.00  0.00    +0.000 C 
ATOM      6  O   UNL     1       3.865   5.068  17.072  0.00  0.00    +0.000 OA
ENDROOT
BRANCH   3   7
ATOM      7  C   UNL     1       1.882   8.302  18.835  0.00  0.00    +0.000 A 
ATOM      8  C   UNL     1       1.451   8.993  17.714  0.00  0.00    +0.000 A 
ATOM      9  S   UNL     1       0.265  10.159  18.062  0.00  0.00    +0.000 S 
ATOM     10  C   UNL     1       0.317   9.812  19.744  0.00  0.00    +0.000 A 
ATOM     11  C   UNL     1      -0.442  10.433  20.754  0.00  0.00    +0.000 A 
ATOM     12  C   UNL     1      -0.257  10.041  22.080  0.00  0.00    +0.000 A 
ATOM     13  C   UNL     1       0.665   9.057  22.401  0.00  0.00    +0.000 A 
ATOM     14  C   UNL     1       1.410   8.437  21.395  0.00  0.00    +0.000 A 
ATOM     15  C   UNL     1       1.240   8.803  20.035  0.00  0.00    +0.000 A 
ENDBRANCH   3   7
BRANCH   1  16
ATOM     16  C   UNL     1       1.940   3.647  17.830  0.00  0.00    +0.000 C 
ATOM     17  O   UNL     1       2.211   2.707  17.091  0.00  0.00    +0.000 OA
BRANCH  16  18
ATOM     18  O   UNL     1       0.889   3.699  18.682  0.00  0.00    +0.000 OA
BRANCH  18  19
ATOM     19  C   UNL     1       0.797   2.597  19.595  0.00  0.00    +0.000 C 
BRANCH  19  21
ATOM     20  C   UNL     1       2.382   2.810  21.530  0.00  0.00    +0.000 C 
ATOM     21  C   UNL     1       1.199   3.068  20.961  0.00  0.00    +0.000 C 
ENDBRANCH  19  21
ENDBRANCH  18  19
ENDBRANCH  16  18
ENDBRANCH   1  16
BRANCH   5  22
ATOM     22  O   UNL     1       5.623   6.397  16.314  0.00  0.00    +0.000 OA
BRANCH  22  23
ATOM     23  C   UNL     1       6.433   5.279  15.952  0.00  0.00    +0.000 C 
BRANCH  23  24
ATOM     24  C   UNL     1       6.403   5.107  14.437  0.00  0.00    +0.000 C 
BRANCH  24  25
ATOM     25  C   UNL     1       6.145   3.652  14.038  0.00  0.00    +0.000 C 
BRANCH  25  26
ATOM     26  C   UNL     1       5.860   3.520  12.550  0.00  0.00    +0.000 C 
BRANCH  26  27
ATOM     27  O   UNL     1       6.687   2.509  11.990  0.00  0.00    +0.000 OA
ATOM     28  H   UNL     1       7.236   2.928  11.305  0.00  0.00    +0.000 HD
ENDBRANCH  26  27
ENDBRANCH  25  26
ENDBRANCH  24  25
ENDBRANCH  23  24
ENDBRANCH  22  23
ENDBRANCH   5  22
TORSDOF 11
ENDMDL
MODEL 8
REMARK VINA RESULT:      -7.4      4.196      6.530
REMARK  Name = 
REMARK  11 active torsions:
REMARK  status: ('A' for Active; 'I' for Inactive)
REMARK    1  A    between atoms: C_2  and  C_3
REMARK    2  A    between atoms: C_3  and  O_4
REMARK    3  A    between atoms: O_4  and  C_5
REMARK    4  A    between atoms: C_5  and  C_7
REMARK    5  A    between atoms: C_9  and  C_10
REMARK    6  A    between atoms: C_20  and  O_21
REMARK    7  A    between atoms: O_21  and  C_22
REMARK    8  A    between atoms: C_22  and  C_23
REMARK    9  A    between atoms: C_23  and  C_24
REMARK   10  A    between atoms: C_24  and  C_25
REMARK   11  A    between atoms: C_25  and  O_26
REMARK                            x       y       z     vdW  Elec       q    Type
REMARK                         _______ _______ _______ _____ _____    ______ ____
ROOT
ATOM      1  C   UNL     1       2.632   5.135  18.081  0.00  0.00    +0.000 C 
ATOM      2  C   UNL     1       2.165   6.048  18.949  0.00  0.00    +0.000 C 
ATOM      3  C   UNL     1       2.746   7.416  19.082  0.00  0.00    +0.000 C 
ATOM      4  C   UNL     1       3.767   7.685  17.985  0.00  0.00    +0.000 C 
ATOM      5  C   UNL     1       4.596   6.438  17.686  0.00  0.00    +0.000 C 
ATOM      6  O   UNL     1       3.754   5.332  17.298  0.00  0.00    +0.000 OA
ENDROOT
BRANCH   3   7
ATOM      7  C   UNL     1       1.687   8.500  19.085  0.00  0.00    +0.000 A 
ATOM      8  C   UNL     1       1.226   9.164  17.960  0.00  0.00    +0.000 A 
ATOM      9  S   UNL     1       0.031  10.320  18.310  0.00  0.00    +0.000 S 
ATOM     10  C   UNL     1       0.121  10.007  19.996  0.00  0.00    +0.000 A 
ATOM     11  C   UNL     1      -0.626  10.638  21.009  0.00  0.00    +0.000 A 
ATOM     12  C   UNL     1      -0.410  10.273  22.338  0.00  0.00    +0.000 A 
ATOM     13  C   UNL     1       0.531   9.309  22.660  0.00  0.00    +0.000 A 
ATOM     14  C   UNL     1       1.265   8.679  21.651  0.00  0.00    +0.000 A 
ATOM     15  C   UNL     1       1.063   9.016  20.288  0.00  0.00    +0.000 A 
ENDBRANCH   3   7
BRANCH   1  16
ATOM     16  C   UNL     1       1.831   3.870  17.979  0.00  0.00    +0.000 C 
ATOM     17  O   UNL     1       0.728   3.821  17.446  0.00  0.00    +0.000 OA
BRANCH  16  18
ATOM     18  O   UNL     1       2.477   2.824  18.546  0.00  0.00    +0.000 OA
BRANCH  18  19
ATOM     19  C   UNL     1       1.681   2.035  19.440  0.00  0.00    +0.000 C 
BRANCH  19  21
ATOM     20  C   UNL     1       1.990   3.064  21.709  0.00  0.00    +0.000 C 
ATOM     21  C   UNL     1       1.265   2.893  20.597  0.00  0.00    +0.000 C 
ENDBRANCH  19  21
ENDBRANCH  18  19
ENDBRANCH  16  18
ENDBRANCH   1  16
BRANCH   5  22
ATOM     22  O   UNL     1       5.512   6.700  16.612  0.00  0.00    +0.000 OA
BRANCH  22  23
ATOM     23  C   UNL     1       6.892   6.553  16.942  0.00  0.00    +0.000 C 
BRANCH  23  24
ATOM     24  C   UNL     1       7.376   5.183  16.477  0.00  0.00    +0.000 C 
BRANCH  24  25
ATOM     25  C   UNL     1       6.912   4.874  15.050  0.00  0.00    +0.000 C 
BRANCH  25  26
ATOM     26  C   UNL     1       5.965   3.685  15.014  0.00  0.00    +0.000 C 
BRANCH  26  27
ATOM     27  O   UNL     1       5.512   3.392  16.329  0.00  0.00    +0.000 OA
ATOM     28  H   UNL     1       6.296   3.181  16.865  0.00  0.00    +0.000 HD
ENDBRANCH  26  27
ENDBRANCH  25  26
ENDBRANCH  24  25
ENDBRANCH  23  24
ENDBRANCH  22  23
ENDBRANCH   5  22
TORSDOF 11
ENDMDL
MODEL 9
REMARK VINA RESULT:      -7.4      3.812      6.705
REMARK  Name = 
REMARK  11 active torsions:
REMARK  status: ('A' for Active; 'I' for Inactive)
REMARK    1  A    between atoms: C_2  and  C_3
REMARK    2  A    between atoms: C_3  and  O_4
REMARK    3  A    between atoms: O_4  and  C_5
REMARK    4  A    between atoms: C_5  and  C_7
REMARK    5  A    between atoms: C_9  and  C_10
REMARK    6  A    between atoms: C_20  and  O_21
REMARK    7  A    between atoms: O_21  and  C_22
REMARK    8  A    between atoms: C_22  and  C_23
REMARK    9  A    between atoms: C_23  and  C_24
REMARK   10  A    between atoms: C_24  and  C_25
REMARK   11  A    between atoms: C_25  and  O_26
REMARK                            x       y       z     vdW  Elec       q    Type
REMARK                         _______ _______ _______ _____ _____    ______ ____
ROOT
ATOM      1  C   UNL     1       4.923   4.925  18.108  0.00  0.00    +0.000 C 
ATOM      2  C   UNL     1       4.305   6.115  18.189  0.00  0.00    +0.000 C 
ATOM      3  C   UNL     1       2.831   6.280  18.015  0.00  0.00    +0.000 C 
ATOM      4  C   UNL     1       2.134   4.928  17.946  0.00  0.00    +0.000 C 
ATOM      5  C   UNL     1       2.971   3.917  17.166  0.00  0.00    +0.000 C 
ATOM      6  O   UNL     1       4.278   3.753  17.758  0.00  0.00    +0.000 OA
ENDROOT
BRANCH   3   7
ATOM      7  C   UNL     1       2.209   7.132  19.103  0.00  0.00    +0.000 A 
ATOM      8  C   UNL     1       1.851   6.677  20.361  0.00  0.00    +0.000 A 
ATOM      9  S   UNL     1       1.183   7.890  21.345  0.00  0.00    +0.000 S 
ATOM     10  C   UNL     1       1.306   9.067  20.099  0.00  0.00    +0.000 A 
ATOM     11  C   UNL     1       0.910  10.416  20.175  0.00  0.00    +0.000 A 
ATOM     12  C   UNL     1       1.063  11.232  19.055  0.00  0.00    +0.000 A 
ATOM     13  C   UNL     1       1.591  10.723  17.880  0.00  0.00    +0.000 A 
ATOM     14  C   UNL     1       1.991   9.385  17.810  0.00  0.00    +0.000 A 
ATOM     15  C   UNL     1       1.861   8.529  18.934  0.00  0.00    +0.000 A 
ENDBRANCH   3   7
BRANCH   1  16
ATOM     16  C   UNL     1       6.382   4.928  18.459  0.00  0.00    +0.000 C 
ATOM     17  O   UNL     1       6.797   5.197  19.581  0.00  0.00    +0.000 OA
BRANCH  16  18
ATOM     18  O   UNL     1       7.152   4.606  17.393  0.00  0.00    +0.000 OA
BRANCH  18  19
ATOM     19  C   UNL     1       7.072   5.522  16.292  0.00  0.00    +0.000 C 
BRANCH  19  21
ATOM     20  C   UNL     1       5.885   4.097  14.601  0.00  0.00    +0.000 C 
ATOM     21  C   UNL     1       6.984   4.736  15.018  0.00  0.00    +0.000 C 
ENDBRANCH  19  21
ENDBRANCH  18  19
ENDBRANCH  16  18
ENDBRANCH   1  16
BRANCH   5  22
ATOM     22  O   UNL     1       2.321   2.637  17.163  0.00  0.00    +0.000 OA
BRANCH  22  23
ATOM     23  C   UNL     1       2.755   1.734  18.179  0.00  0.00    +0.000 C 
BRANCH  23  24
ATOM     24  C   UNL     1       1.997   2.030  19.470  0.00  0.00    +0.000 C 
BRANCH  24  25
ATOM     25  C   UNL     1       2.927   2.577  20.557  0.00  0.00    +0.000 C 
BRANCH  25  26
ATOM     26  C   UNL     1       2.148   3.044  21.777  0.00  0.00    +0.000 C 
BRANCH  26  27
ATOM     27  O   UNL     1       0.775   2.712  21.626  0.00  0.00    +0.000 OA
ATOM     28  H   UNL     1       0.267   3.304  22.207  0.00  0.00    +0.000 HD
ENDBRANCH  26  27
ENDBRANCH  25  26
ENDBRANCH  24  25
ENDBRANCH  23  24
ENDBRANCH  22  23
ENDBRANCH   5  22
TORSDOF 11
ENDMDL
