MODEL 1
REMARK VINA RESULT:      -8.0      0.000      0.000
REMARK  Name = 
REMARK  14 active torsions:
REMARK  status: ('A' for Active; 'I' for Inactive)
REMARK    1  A    between atoms: C_1  and  C_2
REMARK    2  A    between atoms: C_2  and  C_3
REMARK    3  A    between atoms: C_4  and  C_5
REMARK    4  A    between atoms: C_5  and  N_6
REMARK    5  A    between atoms: N_6  and  C_7
REMARK    6  A    between atoms: N_6  and  C_17
REMARK    7  A    between atoms: C_10  and  O_11
REMARK    8  A    between atoms: C_12  and  C_13
REMARK    9  A    between atoms: C_13  and  C_14
REMARK   10  A    between atoms: C_13  and  C_15
REMARK   11  A    between atoms: C_18  and  C_19
REMARK   12  A    between atoms: C_21  and  C_22
REMARK   13  A    between atoms: C_22  and  C_23
REMARK   14  A    between atoms: C_31  and  C_32
REMARK                            x       y       z     vdW  Elec       q    Type
REMARK                         _______ _______ _______ _____ _____    ______ ____
ROOT
ATOM      1  N   UNL     1       0.170  10.676  19.590  0.00  0.00    +0.000 N 
ENDROOT
BRANCH   1   2
ATOM      2  C   UNL     1       0.861   9.433  19.819  0.00  0.00    +0.000 A 
ATOM      3  C   UNL     1       0.593   8.685  21.013  0.00  0.00    +0.000 A 
ATOM      4  C   UNL     1      -0.269   9.183  22.150  0.00  0.00    +0.000 C 
ATOM      5  C   UNL     1       1.155   7.400  21.195  0.00  0.00    +0.000 A 
ATOM      6  C   UNL     1       2.008   6.836  20.249  0.00  0.00    +0.000 A 
ATOM      7  C   UNL     1       2.311   7.581  19.114  0.00  0.00    +0.000 A 
ATOM      8  C   UNL     1       1.736   8.842  18.860  0.00  0.00    +0.000 A 
ATOM      9  C   UNL     1       2.079   9.433  17.512  0.00  0.00    +0.000 C 
BRANCH   6  10
ATOM     10  C   UNL     1       2.588   5.452  20.422  0.00  0.00    +0.000 C 
BRANCH  10  11
ATOM     11  C   UNL     1       3.155   4.785  19.162  0.00  0.00    +0.000 C 
ATOM     12  S   UNL     1       2.326   3.243  18.636  0.00  0.00    +0.000 S 
ATOM     13  C   UNL     1       3.796   2.315  18.722  0.00  0.00    +0.000 C 
ATOM     14  O   UNL     1       3.857   1.112  18.542  0.00  0.00    +0.000 OA
ATOM     15  N   UNL     1       4.852   3.117  18.994  0.00  0.00    +0.000 N 
ATOM     16  C   UNL     1       4.616   4.419  19.312  0.00  0.00    +0.000 C 
ATOM     17  O   UNL     1       5.496   5.193  19.663  0.00  0.00    +0.000 OA
ATOM     18  H   UNL     1       5.776   2.724  19.081  0.00  0.00    +0.000 HD
ENDBRANCH  10  11
ENDBRANCH   6  10
ENDBRANCH   1   2
BRANCH   1  19
ATOM     19  C   UNL     1       0.568  11.911  20.194  0.00  0.00    +0.000 A 
ATOM     20  C   UNL     1       1.837  12.486  20.039  0.00  0.00    +0.000 A 
ATOM     21  C   UNL     1       2.219  13.627  20.759  0.00  0.00    +0.000 A 
ATOM     22  C   UNL     1       1.342  14.213  21.669  0.00  0.00    +0.000 A 
ATOM     23  C   UNL     1       0.059  13.699  21.848  0.00  0.00    +0.000 A 
ATOM     24  C   UNL     1      -0.309  12.589  21.065  0.00  0.00    +0.000 A 
BRANCH  23  25
ATOM     25  C   UNL     1      -0.934  14.318  22.820  0.00  0.00    +0.000 C 
ATOM     26  C   UNL     1      -1.759  15.385  22.099  0.00  0.00    +0.000 C 
ATOM     27  C   UNL     1      -1.866  13.294  23.491  0.00  0.00    +0.000 C 
ENDBRANCH  23  25
BRANCH  22  28
ATOM     28  O   UNL     1       1.734  15.305  22.390  0.00  0.00    +0.000 OA
ATOM     29  H   UNL     1       2.658  15.506  22.176  0.00  0.00    +0.000 HD
ENDBRANCH  22  28
ENDBRANCH   1  19
BRANCH   1  30
ATOM     30  C   UNL     1      -1.246  10.531  19.192  0.00  0.00    +0.000 C 
BRANCH  30  34
ATOM     31  C   UNL     1      -2.823   9.835  15.698  0.00  0.00    +0.000 C 
ATOM     32  C   UNL     1      -2.671  10.285  17.124  0.00  0.00    +0.000 C 
ATOM     33  C   UNL     1      -3.923  10.746  17.827  0.00  0.00    +0.000 C 
ATOM     34  C   UNL     1      -1.469  10.210  17.739  0.00  0.00    +0.000 C 
ENDBRANCH  30  34
ENDBRANCH   1  30
TORSDOF 8
ENDMDL
MODEL 2
REMARK VINA RESULT:      -7.9      2.052      3.476
REMARK  Name = 
REMARK  14 active torsions:
REMARK  status: ('A' for Active; 'I' for Inactive)
REMARK    1  A    between atoms: C_1  and  C_2
REMARK    2  A    between atoms: C_2  and  C_3
REMARK    3  A    between atoms: C_4  and  C_5
REMARK    4  A    between atoms: C_5  and  N_6
REMARK    5  A    between atoms: N_6  and  C_7
REMARK    6  A    between atoms: N_6  and  C_17
REMARK    7  A    between atoms: C_10  and  O_11
REMARK    8  A    between atoms: C_12  and  C_13
REMARK    9  A    between atoms: C_13  and  C_14
REMARK   10  A    between atoms: C_13  and  C_15
REMARK   11  A    between atoms: C_18  and  C_19
REMARK   12  A    between atoms: C_21  and  C_22
REMARK   13  A    between atoms: C_22  and  C_23
REMARK   14  A    between atoms: C_31  and  C_32
REMARK                            x       y       z     vdW  Elec       q    Type
REMARK                         _______ _______ _______ _____ _____    ______ ____
ROOT
ATOM      1  N   UNL     1       0.280  10.916  20.136  0.00  0.00    +0.000 N 
ENDROOT
BRANCH   1   2
ATOM      2  C   UNL     1       0.885   9.609  20.184  0.00  0.00    +0.000 A 
ATOM      3  C   UNL     1       0.662   8.769  21.325  0.00  0.00    +0.000 A 
ATOM      4  C   UNL     1      -0.055   9.214  22.579  0.00  0.00    +0.000 C 
ATOM      5  C   UNL     1       1.130   7.435  21.336  0.00  0.00    +0.000 A 
ATOM      6  C   UNL     1       1.850   6.906  20.266  0.00  0.00    +0.000 A 
ATOM      7  C   UNL     1       2.113   7.734  19.180  0.00  0.00    +0.000 A 
ATOM      8  C   UNL     1       1.622   9.053  19.097  0.00  0.00    +0.000 A 
ATOM      9  C   UNL     1       1.894   9.747  17.783  0.00  0.00    +0.000 C 
BRANCH   6  10
ATOM     10  C   UNL     1       2.327   5.473  20.257  0.00  0.00    +0.000 C 
BRANCH  10  11
ATOM     11  C   UNL     1       2.986   4.979  18.961  0.00  0.00    +0.000 C 
ATOM     12  S   UNL     1       2.186   3.544  18.160  0.00  0.00    +0.000 S 
ATOM     13  C   UNL     1       3.636   2.584  18.225  0.00  0.00    +0.000 C 
ATOM     14  O   UNL     1       3.700   1.417  17.880  0.00  0.00    +0.000 OA
ATOM     15  N   UNL     1       4.675   3.317  18.689  0.00  0.00    +0.000 N 
ATOM     16  C   UNL     1       4.426   4.565  19.170  0.00  0.00    +0.000 C 
ATOM     17  O   UNL     1       5.284   5.264  19.693  0.00  0.00    +0.000 OA
ATOM     18  H   UNL     1       5.585   2.897  18.788  0.00  0.00    +0.000 HD
ENDBRANCH  10  11
ENDBRANCH   6  10
ENDBRANCH   1   2
BRANCH   1  19
ATOM     19  C   UNL     1      -1.044  11.143  19.643  0.00  0.00    +0.000 A 
ATOM     20  C   UNL     1      -1.533  10.617  18.439  0.00  0.00    +0.000 A 
ATOM     21  C   UNL     1      -2.791  10.978  17.937  0.00  0.00    +0.000 A 
ATOM     22  C   UNL     1      -3.588  11.893  18.623  0.00  0.00    +0.000 A 
ATOM     23  C   UNL     1      -3.165  12.430  19.837  0.00  0.00    +0.000 A 
ATOM     24  C   UNL     1      -1.923  11.999  20.338  0.00  0.00    +0.000 A 
BRANCH  23  25
ATOM     25  C   UNL     1      -4.011  13.419  20.625  0.00  0.00    +0.000 C 
ATOM     26  C   UNL     1      -4.505  12.759  21.912  0.00  0.00    +0.000 C 
ATOM     27  C   UNL     1      -3.284  14.735  20.951  0.00  0.00    +0.000 C 
ENDBRANCH  23  25
BRANCH  22  28
ATOM     28  O   UNL     1      -4.798  12.264  18.111  0.00  0.00    +0.000 OA
ATOM     29  H   UNL     1      -4.912  13.219  18.238  0.00  0.00    +0.000 HD
ENDBRANCH  22  28
ENDBRANCH   1  19
BRANCH   1  30
ATOM     30  C   UNL     1       1.239  12.038  20.071  0.00  0.00    +0.000 C 
BRANCH  30  34
ATOM     31  C   UNL     1      -0.034  15.454  18.697  0.00  0.00    +0.000 C 
ATOM     32  C   UNL     1       0.479  14.406  19.644  0.00  0.00    +0.000 C 
ATOM     33  C   UNL     1       0.518  14.773  21.107  0.00  0.00    +0.000 C 
ATOM     34  C   UNL     1       0.823  13.181  19.185  0.00  0.00    +0.000 C 
ENDBRANCH  30  34
ENDBRANCH   1  30
TORSDOF 8
ENDMDL
MODEL 3
REMARK VINA RESULT:      -7.9      2.004      3.961
REMARK  Name = 
REMARK  14 active torsions:
REMARK  status: ('A' for Active; 'I' for Inactive)
REMARK    1  A    between atoms: C_1  and  C_2
REMARK    2  A    between atoms: C_2  and  C_3
REMARK    3  A    between atoms: C_4  and  C_5
REMARK    4  A    between atoms: C_5  and  N_6
REMARK    5  A    between atoms: N_6  and  C_7
REMARK    6  A    between atoms: N_6  and  C_17
REMARK    7  A    between atoms: C_10  and  O_11
REMARK    8  A    between atoms: C_12  and  C_13
REMARK    9  A    between atoms: C_13  and  C_14
REMARK   10  A    between atoms: C_13  and  C_15
REMARK   11  A    between atoms: C_18  and  C_19
REMARK   12  A    between atoms: C_21  and  C_22
REMARK   13  A    between atoms: C_22  and  C_23
REMARK   14  A    between atoms: C_31  and  C_32
REMARK                            x       y       z     vdW  Elec       q    Type
REMARK                         _______ _______ _______ _____ _____    ______ ____
ROOT
ATOM      1  N   UNL     1       0.111  10.617  19.521  0.00  0.00    +0.000 N 
ENDROOT
BRANCH   1   2
ATOM      2  C   UNL     1       0.826   9.391  19.771  0.00  0.00    +0.000 A 
ATOM      3  C   UNL     1       0.551   8.645  20.965  0.00  0.00    +0.000 A 
ATOM      4  C   UNL     1      -0.345   9.130  22.081  0.00  0.00    +0.000 C 
ATOM      5  C   UNL     1       1.138   7.374  21.167  0.00  0.00    +0.000 A 
ATOM      6  C   UNL     1       2.022   6.823  20.241  0.00  0.00    +0.000 A 
ATOM      7  C   UNL     1       2.331   7.568  19.107  0.00  0.00    +0.000 A 
ATOM      8  C   UNL     1       1.732   8.814  18.833  0.00  0.00    +0.000 A 
ATOM      9  C   UNL     1       2.088   9.405  17.489  0.00  0.00    +0.000 C 
BRANCH   6  10
ATOM     10  C   UNL     1       2.630   5.454  20.434  0.00  0.00    +0.000 C 
BRANCH  10  11
ATOM     11  C   UNL     1       3.186   4.769  19.180  0.00  0.00    +0.000 C 
ATOM     12  S   UNL     1       2.338   3.232  18.670  0.00  0.00    +0.000 S 
ATOM     13  C   UNL     1       3.797   2.287  18.762  0.00  0.00    +0.000 C 
ATOM     14  O   UNL     1       3.844   1.082  18.594  0.00  0.00    +0.000 OA
ATOM     15  N   UNL     1       4.863   3.079  19.024  0.00  0.00    +0.000 N 
ATOM     16  C   UNL     1       4.643   4.387  19.330  0.00  0.00    +0.000 C 
ATOM     17  O   UNL     1       5.533   5.154  19.672  0.00  0.00    +0.000 OA
ATOM     18  H   UNL     1       5.782   2.676  19.113  0.00  0.00    +0.000 HD
ENDBRANCH  10  11
ENDBRANCH   6  10
ENDBRANCH   1   2
BRANCH   1  19
ATOM     19  C   UNL     1      -1.125  10.664  18.802  0.00  0.00    +0.000 A 
ATOM     20  C   UNL     1      -1.315  10.105  17.531  0.00  0.00    +0.000 A 
ATOM     21  C   UNL     1      -2.506  10.294  16.815  0.00  0.00    +0.000 A 
ATOM     22  C   UNL     1      -3.535  11.067  17.349  0.00  0.00    +0.000 A 
ATOM     23  C   UNL     1      -3.412  11.628  18.619  0.00  0.00    +0.000 A 
ATOM     24  C   UNL     1      -2.227  11.367  19.332  0.00  0.00    +0.000 A 
BRANCH  23  25
ATOM     25  C   UNL     1      -4.518  12.464  19.246  0.00  0.00    +0.000 C 
ATOM     26  C   UNL     1      -5.703  11.566  19.598  0.00  0.00    +0.000 C 
ATOM     27  C   UNL     1      -4.069  13.257  20.486  0.00  0.00    +0.000 C 
ENDBRANCH  23  25
BRANCH  22  28
ATOM     28  O   UNL     1      -4.678  11.274  16.632  0.00  0.00    +0.000 OA
ATOM     29  H   UNL     1      -4.697  10.653  15.887  0.00  0.00    +0.000 HD
ENDBRANCH  22  28
ENDBRANCH   1  19
BRANCH   1  30
ATOM     30  C   UNL     1       0.951  11.832  19.524  0.00  0.00    +0.000 C 
BRANCH  30  34
ATOM     31  C   UNL     1       0.366  14.640  22.161  0.00  0.00    +0.000 C 
ATOM     32  C   UNL     1       0.277  13.845  20.889  0.00  0.00    +0.000 C 
ATOM     33  C   UNL     1      -0.460  14.486  19.739  0.00  0.00    +0.000 C 
ATOM     34  C   UNL     1       0.892  12.645  20.789  0.00  0.00    +0.000 C 
ENDBRANCH  30  34
ENDBRANCH   1  30
TORSDOF 8
ENDMDL
MODEL 4
REMARK VINA RESULT:      -7.9      0.685      2.040
REMARK  Name = 
REMARK  14 active torsions:
REMARK  status: ('A' for Active; 'I' for Inactive)
REMARK    1  A    between atoms: C_1  and  C_2
REMARK    2  A    between atoms: C_2  and  C_3
REMARK    3  A    between atoms: C_4  and  C_5
REMARK    4  A    between atoms: C_5  and  N_6
REMARK    5  A    between atoms: N_6  and  C_7
REMARK    6  A    between atoms: N_6  and  C_17
REMARK    7  A    between atoms: C_10  and  O_11
REMARK    8  A    between atoms: C_12  and  C_13
REMARK    9  A    between atoms: C_13  and  C_14
REMARK   10  A    between atoms: C_13  and  C_15
REMARK   11  A    between atoms: C_18  and  C_19
REMARK   12  A    between atoms: C_21  and  C_22
REMARK   13  A    between atoms: C_22  and  C_23
REMARK   14  A    between atoms: C_31  and  C_32
REMARK                            x       y       z     vdW  Elec       q    Type
REMARK                         _______ _______ _______ _____ _____    ______ ____
ROOT
ATOM      1  N   UNL     1      -0.013  10.710  19.897  0.00  0.00    +0.000 N 
ENDROOT
BRANCH   1   2
ATOM      2  C   UNL     1       0.718   9.477  20.045  0.00  0.00    +0.000 A 
ATOM      3  C   UNL     1       0.457   8.632  21.173  0.00  0.00    +0.000 A 
ATOM      4  C   UNL     1      -0.441   9.012  22.328  0.00  0.00    +0.000 C 
ATOM      5  C   UNL     1       1.061   7.356  21.269  0.00  0.00    +0.000 A 
ATOM      6  C   UNL     1       1.949   6.895  20.300  0.00  0.00    +0.000 A 
ATOM      7  C   UNL     1       2.245   7.734  19.230  0.00  0.00    +0.000 A 
ATOM      8  C   UNL     1       1.629   8.991  19.061  0.00  0.00    +0.000 A 
ATOM      9  C   UNL     1       1.973   9.694  17.768  0.00  0.00    +0.000 C 
BRANCH   6  10
ATOM     10  C   UNL     1       2.575   5.522  20.378  0.00  0.00    +0.000 C 
BRANCH  10  11
ATOM     11  C   UNL     1       3.134   4.949  19.069  0.00  0.00    +0.000 C 
ATOM     12  S   UNL     1       2.259   3.488  18.404  0.00  0.00    +0.000 S 
ATOM     13  C   UNL     1       3.696   2.506  18.421  0.00  0.00    +0.000 C 
ATOM     14  O   UNL     1       3.718   1.321  18.137  0.00  0.00    +0.000 OA
ATOM     15  N   UNL     1       4.775   3.244  18.771  0.00  0.00    +0.000 N 
ATOM     16  C   UNL     1       4.579   4.520  19.200  0.00  0.00    +0.000 C 
ATOM     17  O   UNL     1       5.481   5.230  19.625  0.00  0.00    +0.000 OA
ATOM     18  H   UNL     1       5.684   2.813  18.831  0.00  0.00    +0.000 HD
ENDBRANCH  10  11
ENDBRANCH   6  10
ENDBRANCH   1   2
BRANCH   1  19
ATOM     19  C   UNL     1       0.285  11.886  20.656  0.00  0.00    +0.000 A 
ATOM     20  C   UNL     1      -0.585  12.453  21.597  0.00  0.00    +0.000 A 
ATOM     21  C   UNL     1      -0.302  13.679  22.215  0.00  0.00    +0.000 A 
ATOM     22  C   UNL     1       0.858  14.381  21.891  0.00  0.00    +0.000 A 
ATOM     23  C   UNL     1       1.772  13.855  20.980  0.00  0.00    +0.000 A 
ATOM     24  C   UNL     1       1.483  12.595  20.425  0.00  0.00    +0.000 A 
BRANCH  23  25
ATOM     25  C   UNL     1       3.057  14.580  20.611  0.00  0.00    +0.000 C 
ATOM     26  C   UNL     1       4.169  14.178  21.580  0.00  0.00    +0.000 C 
ATOM     27  C   UNL     1       3.509  14.342  19.159  0.00  0.00    +0.000 C 
ENDBRANCH  23  25
BRANCH  22  28
ATOM     28  O   UNL     1       1.111  15.590  22.473  0.00  0.00    +0.000 OA
ATOM     29  H   UNL     1       0.881  16.293  21.846  0.00  0.00    +0.000 HD
ENDBRANCH  22  28
ENDBRANCH   1  19
BRANCH   1  30
ATOM     30  C   UNL     1      -1.389  10.553  19.383  0.00  0.00    +0.000 C 
BRANCH  30  34
ATOM     31  C   UNL     1      -2.688  10.172  15.729  0.00  0.00    +0.000 C 
ATOM     32  C   UNL     1      -2.659  10.459  17.204  0.00  0.00    +0.000 C 
ATOM     33  C   UNL     1      -3.984  10.749  17.864  0.00  0.00    +0.000 C 
ATOM     34  C   UNL     1      -1.496  10.392  17.890  0.00  0.00    +0.000 C 
ENDBRANCH  30  34
ENDBRANCH   1  30
TORSDOF 8
ENDMDL
MODEL 5
REMARK VINA RESULT:      -7.8      0.247      1.574
REMARK  Name = 
REMARK  14 active torsions:
REMARK  status: ('A' for Active; 'I' for Inactive)
REMARK    1  A    between atoms: C_1  and  C_2
REMARK    2  A    between atoms: C_2  and  C_3
REMARK    3  A    between atoms: C_4  and  C_5
REMARK    4  A    between atoms: C_5  and  N_6
REMARK    5  A    between atoms: N_6  and  C_7
REMARK    6  A    between atoms: N_6  and  C_17
REMARK    7  A    between atoms: C_10  and  O_11
REMARK    8  A    between atoms: C_12  and  C_13
REMARK    9  A    between atoms: C_13  and  C_14
REMARK   10  A    between atoms: C_13  and  C_15
REMARK   11  A    between atoms: C_18  and  C_19
REMARK   12  A    between atoms: C_21  and  C_22
REMARK   13  A    between atoms: C_22  and  C_23
REMARK   14  A    between atoms: C_31  and  C_32
REMARK                            x       y       z     vdW  Elec       q    Type
REMARK                         _______ _______ _______ _____ _____    ______ ____
ROOT
ATOM      1  N   UNL     1       0.102  10.799  19.525  0.00  0.00    +0.000 N 
ENDROOT
BRANCH   1   2
ATOM      2  C   UNL     1       0.701   9.502  19.712  0.00  0.00    +0.000 A 
ATOM      3  C   UNL     1       1.624   9.002  18.734  0.00  0.00    +0.000 A 
ATOM      4  C   UNL     1       1.912   9.682  17.415  0.00  0.00    +0.000 C 
ATOM      5  C   UNL     1       2.327   7.797  18.961  0.00  0.00    +0.000 A 
ATOM      6  C   UNL     1       2.124   7.040  20.114  0.00  0.00    +0.000 A 
ATOM      7  C   UNL     1       1.191   7.495  21.040  0.00  0.00    +0.000 A 
ATOM      8  C   UNL     1       0.505   8.717  20.886  0.00  0.00    +0.000 A 
ATOM      9  C   UNL     1      -0.362   9.107  22.061  0.00  0.00    +0.000 C 
BRANCH   6  10
ATOM     10  C   UNL     1       2.893   5.767  20.379  0.00  0.00    +0.000 C 
BRANCH  10  11
ATOM     11  C   UNL     1       3.414   5.013  19.148  0.00  0.00    +0.000 C 
ATOM     12  S   UNL     1       2.465   3.528  18.665  0.00  0.00    +0.000 S 
ATOM     13  C   UNL     1       3.852   2.485  18.799  0.00  0.00    +0.000 C 
ATOM     14  O   UNL     1       3.815   1.275  18.660  0.00  0.00    +0.000 OA
ATOM     15  N   UNL     1       4.969   3.206  19.057  0.00  0.00    +0.000 N 
ATOM     16  C   UNL     1       4.838   4.533  19.328  0.00  0.00    +0.000 C 
ATOM     17  O   UNL     1       5.776   5.244  19.663  0.00  0.00    +0.000 OA
ATOM     18  H   UNL     1       5.856   2.741  19.167  0.00  0.00    +0.000 HD
ENDBRANCH  10  11
ENDBRANCH   6  10
ENDBRANCH   1   2
BRANCH   1  19
ATOM     19  C   UNL     1       0.604  11.985  20.148  0.00  0.00    +0.000 A 
ATOM     20  C   UNL     1       1.916  12.453  19.999  0.00  0.00    +0.000 A 
ATOM     21  C   UNL     1       2.395  13.546  20.736  0.00  0.00    +0.000 A 
ATOM     22  C   UNL     1       1.571  14.189  21.658  0.00  0.00    +0.000 A 
ATOM     23  C   UNL     1       0.249  13.783  21.832  0.00  0.00    +0.000 A 
ATOM     24  C   UNL     1      -0.212  12.721  21.032  0.00  0.00    +0.000 A 
BRANCH  23  25
ATOM     25  C   UNL     1      -0.687  14.468  22.816  0.00  0.00    +0.000 C 
ATOM     26  C   UNL     1      -1.471  15.566  22.097  0.00  0.00    +0.000 C 
ATOM     27  C   UNL     1      -1.655  13.504  23.524  0.00  0.00    +0.000 C 
ENDBRANCH  23  25
BRANCH  22  28
ATOM     28  O   UNL     1       2.054  15.232  22.396  0.00  0.00    +0.000 OA
ATOM     29  H   UNL     1       1.505  15.336  23.188  0.00  0.00    +0.000 HD
ENDBRANCH  22  28
ENDBRANCH   1  19
BRANCH   1  30
ATOM     30  C   UNL     1      -1.328  10.770  19.153  0.00  0.00    +0.000 C 
BRANCH  30  34
ATOM     31  C   UNL     1      -3.043   9.818  15.786  0.00  0.00    +0.000 C 
ATOM     32  C   UNL     1      -2.824  10.401  17.154  0.00  0.00    +0.000 C 
ATOM     33  C   UNL     1      -4.026  11.008  17.834  0.00  0.00    +0.000 C 
ATOM     34  C   UNL     1      -1.611  10.316  17.746  0.00  0.00    +0.000 C 
ENDBRANCH  30  34
ENDBRANCH   1  30
TORSDOF 8
ENDMDL
MODEL 6
REMARK VINA RESULT:      -7.7      0.732      2.610
REMARK  Name = 
REMARK  14 active torsions:
REMARK  status: ('A' for Active; 'I' for Inactive)
REMARK    1  A    between atoms: C_1  and  C_2
REMARK    2  A    between atoms: C_2  and  C_3
REMARK    3  A    between atoms: C_4  and  C_5
REMARK    4  A    between atoms: C_5  and  N_6
REMARK    5  A    between atoms: N_6  and  C_7
REMARK    6  A    between atoms: N_6  and  C_17
REMARK    7  A    between atoms: C_10  and  O_11
REMARK    8  A    between atoms: C_12  and  C_13
REMARK    9  A    between atoms: C_13  and  C_14
REMARK   10  A    between atoms: C_13  and  C_15
REMARK   11  A    between atoms: C_18  and  C_19
REMARK   12  A    between atoms: C_21  and  C_22
REMARK   13  A    between atoms: C_22  and  C_23
REMARK   14  A    between atoms: C_31  and  C_32
REMARK                            x       y       z     vdW  Elec       q    Type
REMARK                         _______ _______ _______ _____ _____    ______ ____
ROOT
ATOM      1  N   UNL     1      -0.000  10.633  19.648  0.00  0.00    +0.000 N 
ENDROOT
BRANCH   1   2
ATOM      2  C   UNL     1       0.666   9.363  19.782  0.00  0.00    +0.000 A 
ATOM      3  C   UNL     1       1.631   8.964  18.800  0.00  0.00    +0.000 A 
ATOM      4  C   UNL     1       1.905   9.723  17.522  0.00  0.00    +0.000 C 
ATOM      5  C   UNL     1       2.395   7.787  18.981  0.00  0.00    +0.000 A 
ATOM      6  C   UNL     1       2.213   6.963  20.090  0.00  0.00    +0.000 A 
ATOM      7  C   UNL     1       1.241   7.321  21.019  0.00  0.00    +0.000 A 
ATOM      8  C   UNL     1       0.492   8.510  20.912  0.00  0.00    +0.000 A 
ATOM      9  C   UNL     1      -0.415   8.793  22.087  0.00  0.00    +0.000 C 
BRANCH   6  10
ATOM     10  C   UNL     1       3.046   5.722  20.308  0.00  0.00    +0.000 C 
BRANCH  10  11
ATOM     11  C   UNL     1       3.575   5.023  19.048  0.00  0.00    +0.000 C 
ATOM     12  S   UNL     1       2.531   3.677  18.387  0.00  0.00    +0.000 S 
ATOM     13  C   UNL     1       3.809   2.502  18.509  0.00  0.00    +0.000 C 
ATOM     14  O   UNL     1       3.674   1.316  18.265  0.00  0.00    +0.000 OA
ATOM     15  N   UNL     1       4.966   3.092  18.889  0.00  0.00    +0.000 N 
ATOM     16  C   UNL     1       4.937   4.400  19.265  0.00  0.00    +0.000 C 
ATOM     17  O   UNL     1       5.911   4.990  19.712  0.00  0.00    +0.000 OA
ATOM     18  H   UNL     1       5.800   2.539  19.009  0.00  0.00    +0.000 HD
ENDBRANCH  10  11
ENDBRANCH   6  10
ENDBRANCH   1   2
BRANCH   1  19
ATOM     19  C   UNL     1       0.381  11.794  20.393  0.00  0.00    +0.000 A 
ATOM     20  C   UNL     1      -0.360  12.317  21.462  0.00  0.00    +0.000 A 
ATOM     21  C   UNL     1      -0.012  13.531  22.071  0.00  0.00    +0.000 A 
ATOM     22  C   UNL     1       1.080  14.264  21.611  0.00  0.00    +0.000 A 
ATOM     23  C   UNL     1       1.867  13.783  20.567  0.00  0.00    +0.000 A 
ATOM     24  C   UNL     1       1.523  12.533  20.020  0.00  0.00    +0.000 A 
BRANCH  23  25
ATOM     25  C   UNL     1       3.077  14.543  20.046  0.00  0.00    +0.000 C 
ATOM     26  C   UNL     1       4.264  14.322  20.983  0.00  0.00    +0.000 C 
ATOM     27  C   UNL     1       3.466  14.176  18.603  0.00  0.00    +0.000 C 
ENDBRANCH  23  25
BRANCH  22  28
ATOM     28  O   UNL     1       1.392  15.461  22.189  0.00  0.00    +0.000 OA
ATOM     29  H   UNL     1       1.057  16.177  21.626  0.00  0.00    +0.000 HD
ENDBRANCH  22  28
ENDBRANCH   1  19
BRANCH   1  30
ATOM     30  C   UNL     1      -1.396  10.551  19.169  0.00  0.00    +0.000 C 
BRANCH  30  34
ATOM     31  C   UNL     1      -2.807   9.871  15.601  0.00  0.00    +0.000 C 
ATOM     32  C   UNL     1      -2.737  10.263  17.050  0.00  0.00    +0.000 C 
ATOM     33  C   UNL     1      -4.047  10.558  17.737  0.00  0.00    +0.000 C 
ATOM     34  C   UNL     1      -1.549  10.281  17.696  0.00  0.00    +0.000 C 
ENDBRANCH  30  34
ENDBRANCH   1  30
TORSDOF 8
ENDMDL
MODEL 7
REMARK VINA RESULT:      -7.7      2.044      3.811
REMARK  Name = 
REMARK  14 active torsions:
REMARK  status: ('A' for Active; 'I' for Inactive)
REMARK    1  A    between atoms: C_1  and  C_2
REMARK    2  A    between atoms: C_2  and  C_3
REMARK    3  A    between atoms: C_4  and  C_5
REMARK    4  A    between atoms: C_5  and  N_6
REMARK    5  A    between atoms: N_6  and  C_7
REMARK    6  A    between atoms: N_6  and  C_17
REMARK    7  A    between atoms: C_10  and  O_11
REMARK    8  A    between atoms: C_12  and  C_13
REMARK    9  A    between atoms: C_13  and  C_14
REMARK   10  A    between atoms: C_13  and  C_15
REMARK   11  A    between atoms: C_18  and  C_19
REMARK   12  A    between atoms: C_21  and  C_22
REMARK   13  A    between atoms: C_22  and  C_23
REMARK   14  A    between atoms: C_31  and  C_32
REMARK                            x       y       z     vdW  Elec       q    Type
REMARK                         _______ _______ _______ _____ _____    ______ ____
ROOT
ATOM      1  N   UNL     1       0.331  10.703  19.814  0.00  0.00    +0.000 N 
ENDROOT
BRANCH   1   2
ATOM      2  C   UNL     1       0.859   9.367  19.934  0.00  0.00    +0.000 A 
ATOM      3  C   UNL     1       1.680   8.835  18.886  0.00  0.00    +0.000 A 
ATOM      4  C   UNL     1       1.921   9.526  17.564  0.00  0.00    +0.000 C 
ATOM      5  C   UNL     1       2.319   7.583  19.041  0.00  0.00    +0.000 A 
ATOM      6  C   UNL     1       2.147   6.814  20.190  0.00  0.00    +0.000 A 
ATOM      7  C   UNL     1       1.310   7.304  21.187  0.00  0.00    +0.000 A 
ATOM      8  C   UNL     1       0.693   8.569  21.105  0.00  0.00    +0.000 A 
ATOM      9  C   UNL     1      -0.066   8.984  22.343  0.00  0.00    +0.000 C 
BRANCH   6  10
ATOM     10  C   UNL     1       2.850   5.490  20.377  0.00  0.00    +0.000 C 
BRANCH  10  11
ATOM     11  C   UNL     1       3.387   4.814  19.108  0.00  0.00    +0.000 C 
ATOM     12  S   UNL     1       2.419   3.389  18.497  0.00  0.00    +0.000 S 
ATOM     13  C   UNL     1       3.780   2.309  18.589  0.00  0.00    +0.000 C 
ATOM     14  O   UNL     1       3.722   1.113  18.362  0.00  0.00    +0.000 OA
ATOM     15  N   UNL     1       4.905   2.984  18.924  0.00  0.00    +0.000 N 
ATOM     16  C   UNL     1       4.795   4.291  19.287  0.00  0.00    +0.000 C 
ATOM     17  O   UNL     1       5.739   4.954  19.693  0.00  0.00    +0.000 OA
ATOM     18  H   UNL     1       5.779   2.493  19.021  0.00  0.00    +0.000 HD
ENDBRANCH  10  11
ENDBRANCH   6  10
ENDBRANCH   1   2
BRANCH   1  19
ATOM     19  C   UNL     1      -1.000  10.976  19.368  0.00  0.00    +0.000 A 
ATOM     20  C   UNL     1      -1.548  10.472  18.180  0.00  0.00    +0.000 A 
ATOM     21  C   UNL     1      -2.811  10.877  17.723  0.00  0.00    +0.000 A 
ATOM     22  C   UNL     1      -3.551  11.816  18.438  0.00  0.00    +0.000 A 
ATOM     23  C   UNL     1      -3.068  12.335  19.638  0.00  0.00    +0.000 A 
ATOM     24  C   UNL     1      -1.825  11.860  20.096  0.00  0.00    +0.000 A 
BRANCH  23  25
ATOM     25  C   UNL     1      -3.852  13.349  20.458  0.00  0.00    +0.000 C 
ATOM     26  C   UNL     1      -4.963  12.635  21.229  0.00  0.00    +0.000 C 
ATOM     27  C   UNL     1      -2.982  14.171  21.424  0.00  0.00    +0.000 C 
ENDBRANCH  23  25
BRANCH  22  28
ATOM     28  O   UNL     1      -4.765  12.230  17.970  0.00  0.00    +0.000 OA
ATOM     29  H   UNL     1      -5.281  11.452  17.705  0.00  0.00    +0.000 HD
ENDBRANCH  22  28
ENDBRANCH   1  19
BRANCH   1  30
ATOM     30  C   UNL     1       1.351  11.754  19.619  0.00  0.00    +0.000 C 
BRANCH  30  34
ATOM     31  C   UNL     1       0.053  15.333  18.791  0.00  0.00    +0.000 C 
ATOM     32  C   UNL     1       0.653  14.178  19.542  0.00  0.00    +0.000 C 
ATOM     33  C   UNL     1       0.933  14.394  21.009  0.00  0.00    +0.000 C 
ATOM     34  C   UNL     1       0.862  12.995  18.921  0.00  0.00    +0.000 C 
ENDBRANCH  30  34
ENDBRANCH   1  30
TORSDOF 8
ENDMDL
MODEL 8
REMARK VINA RESULT:      -7.5      1.354      2.259
REMARK  Name = 
REMARK  14 active torsions:
REMARK  status: ('A' for Active; 'I' for Inactive)
REMARK    1  A    between atoms: C_1  and  C_2
REMARK    2  A    between atoms: C_2  and  C_3
REMARK    3  A    between atoms: C_4  and  C_5
REMARK    4  A    between atoms: C_5  and  N_6
REMARK    5  A    between atoms: N_6  and  C_7
REMARK    6  A    between atoms: N_6  and  C_17
REMARK    7  A    between atoms: C_10  and  O_11
REMARK    8  A    between atoms: C_12  and  C_13
REMARK    9  A    between atoms: C_13  and  C_14
REMARK   10  A    between atoms: C_13  and  C_15
REMARK   11  A    between atoms: C_18  and  C_19
REMARK   12  A    between atoms: C_21  and  C_22
REMARK   13  A    between atoms: C_22  and  C_23
REMARK   14  A    between atoms: C_31  and  C_32
REMARK                            x       y       z     vdW  Elec       q    Type
REMARK                         _______ _______ _______ _____ _____    ______ ____
ROOT
ATOM      1  N   UNL     1      -0.112  10.488  19.769  0.00  0.00    +0.000 N 
ENDROOT
BRANCH   1   2
ATOM      2  C   UNL     1       0.783   9.358  19.791  0.00  0.00    +0.000 A 
ATOM      3  C   UNL     1       0.645   8.369  20.820  0.00  0.00    +0.000 A 
ATOM      4  C   UNL     1      -0.292   8.496  21.999  0.00  0.00    +0.000 C 
ATOM      5  C   UNL     1       1.419   7.186  20.785  0.00  0.00    +0.000 A 
ATOM      6  C   UNL     1       2.359   6.958  19.782  0.00  0.00    +0.000 A 
ATOM      7  C   UNL     1       2.531   7.940  18.811  0.00  0.00    +0.000 A 
ATOM      8  C   UNL     1       1.748   9.110  18.770  0.00  0.00    +0.000 A 
ATOM      9  C   UNL     1       1.987   9.990  17.565  0.00  0.00    +0.000 C 
BRANCH   6  10
ATOM     10  C   UNL     1       3.168   5.684  19.720  0.00  0.00    +0.000 C 
BRANCH  10  11
ATOM     11  C   UNL     1       2.375   4.372  19.640  0.00  0.00    +0.000 C 
ATOM     12  S   UNL     1       3.236   2.884  20.261  0.00  0.00    +0.000 S 
ATOM     13  C   UNL     1       3.076   2.047  18.743  0.00  0.00    +0.000 C 
ATOM     14  O   UNL     1       3.563   0.955  18.509  0.00  0.00    +0.000 OA
ATOM     15  N   UNL     1       2.324   2.767  17.877  0.00  0.00    +0.000 N 
ATOM     16  C   UNL     1       1.965   4.032  18.224  0.00  0.00    +0.000 C 
ATOM     17  O   UNL     1       1.367   4.789  17.470  0.00  0.00    +0.000 OA
ATOM     18  H   UNL     1       2.144   2.415  16.950  0.00  0.00    +0.000 HD
ENDBRANCH  10  11
ENDBRANCH   6  10
ENDBRANCH   1   2
BRANCH   1  19
ATOM     19  C   UNL     1       0.038  11.617  20.635  0.00  0.00    +0.000 A 
ATOM     20  C   UNL     1      -0.861  11.944  21.659  0.00  0.00    +0.000 A 
ATOM     21  C   UNL     1      -0.738  13.134  22.391  0.00  0.00    +0.000 A 
ATOM     22  C   UNL     1       0.282  14.038  22.103  0.00  0.00    +0.000 A 
ATOM     23  C   UNL     1       1.219  13.755  21.111  0.00  0.00    +0.000 A 
ATOM     24  C   UNL     1       1.100  12.525  20.438  0.00  0.00    +0.000 A 
BRANCH  23  25
ATOM     25  C   UNL     1       2.357  14.707  20.776  0.00  0.00    +0.000 C 
ATOM     26  C   UNL     1       3.676  14.134  21.296  0.00  0.00    +0.000 C 
ATOM     27  C   UNL     1       2.476  15.028  19.276  0.00  0.00    +0.000 C 
ENDBRANCH  23  25
BRANCH  22  28
ATOM     28  O   UNL     1       0.374  15.209  22.799  0.00  0.00    +0.000 OA
ATOM     29  H   UNL     1       1.044  15.771  22.378  0.00  0.00    +0.000 HD
ENDBRANCH  22  28
ENDBRANCH   1  19
BRANCH   1  30
ATOM     30  C   UNL     1      -1.464  10.193  19.251  0.00  0.00    +0.000 C 
BRANCH  30  34
ATOM     31  C   UNL     1      -2.764  10.086  15.580  0.00  0.00    +0.000 C 
ATOM     32  C   UNL     1      -2.731  10.278  17.070  0.00  0.00    +0.000 C 
ATOM     33  C   UNL     1      -4.047  10.567  17.747  0.00  0.00    +0.000 C 
ATOM     34  C   UNL     1      -1.572  10.131  17.751  0.00  0.00    +0.000 C 
ENDBRANCH  30  34
ENDBRANCH   1  30
TORSDOF 8
ENDMDL
MODEL 9
REMARK VINA RESULT:      -7.4      1.132      1.952
REMARK  Name = 
REMARK  14 active torsions:
REMARK  status: ('A' for Active; 'I' for Inactive)
REMARK    1  A    between atoms: C_1  and  C_2
REMARK    2  A    between atoms: C_2  and  C_3
REMARK    3  A    between atoms: C_4  and  C_5
REMARK    4  A    between atoms: C_5  and  N_6
REMARK    5  A    between atoms: N_6  and  C_7
REMARK    6  A    between atoms: N_6  and  C_17
REMARK    7  A    between atoms: C_10  and  O_11
REMARK    8  A    between atoms: C_12  and  C_13
REMARK    9  A    between atoms: C_13  and  C_14
REMARK   10  A    between atoms: C_13  and  C_15
REMARK   11  A    between atoms: C_18  and  C_19
REMARK   12  A    between atoms: C_21  and  C_22
REMARK   13  A    between atoms: C_22  and  C_23
REMARK   14  A    between atoms: C_31  and  C_32
REMARK                            x       y       z     vdW  Elec       q    Type
REMARK                         _______ _______ _______ _____ _____    ______ ____
ROOT
ATOM      1  N   UNL     1       0.143  10.460  19.399  0.00  0.00    +0.000 N 
ENDROOT
BRANCH   1   2
ATOM      2  C   UNL     1       0.789   9.185  19.579  0.00  0.00    +0.000 A 
ATOM      3  C   UNL     1       1.756   8.741  18.617  0.00  0.00    +0.000 A 
ATOM      4  C   UNL     1       2.050   9.456  17.318  0.00  0.00    +0.000 C 
ATOM      5  C   UNL     1       2.501   7.560  18.842  0.00  0.00    +0.000 A 
ATOM      6  C   UNL     1       2.299   6.775  19.975  0.00  0.00    +0.000 A 
ATOM      7  C   UNL     1       1.325   7.175  20.884  0.00  0.00    +0.000 A 
ATOM      8  C   UNL     1       0.595   8.371  20.734  0.00  0.00    +0.000 A 
ATOM      9  C   UNL     1      -0.317   8.705  21.892  0.00  0.00    +0.000 C 
BRANCH   6  10
ATOM     10  C   UNL     1       3.112   5.529  20.238  0.00  0.00    +0.000 C 
BRANCH  10  11
ATOM     11  C   UNL     1       3.061   4.438  19.160  0.00  0.00    +0.000 C 
ATOM     12  S   UNL     1       1.495   4.315  18.226  0.00  0.00    +0.000 S 
ATOM     13  C   UNL     1       1.253   2.651  18.674  0.00  0.00    +0.000 C 
ATOM     14  O   UNL     1       0.261   2.002  18.389  0.00  0.00    +0.000 OA
ATOM     15  N   UNL     1       2.321   2.179  19.359  0.00  0.00    +0.000 N 
ATOM     16  C   UNL     1       3.294   3.056  19.729  0.00  0.00    +0.000 C 
ATOM     17  O   UNL     1       4.248   2.741  20.428  0.00  0.00    +0.000 OA
ATOM     18  H   UNL     1       2.329   1.229  19.693  0.00  0.00    +0.000 HD
ENDBRANCH  10  11
ENDBRANCH   6  10
ENDBRANCH   1   2
BRANCH   1  19
ATOM     19  C   UNL     1       0.591  11.657  20.042  0.00  0.00    +0.000 A 
ATOM     20  C   UNL     1       1.882  12.185  19.906  0.00  0.00    +0.000 A 
ATOM     21  C   UNL     1       2.310  13.285  20.662  0.00  0.00    +0.000 A 
ATOM     22  C   UNL     1       1.456  13.877  21.591  0.00  0.00    +0.000 A 
ATOM     23  C   UNL     1       0.153  13.411  21.753  0.00  0.00    +0.000 A 
ATOM     24  C   UNL     1      -0.260  12.343  20.935  0.00  0.00    +0.000 A 
BRANCH  23  25
ATOM     25  C   UNL     1      -0.816  14.038  22.745  0.00  0.00    +0.000 C 
ATOM     26  C   UNL     1      -1.616  15.141  22.051  0.00  0.00    +0.000 C 
ATOM     27  C   UNL     1      -1.770  13.027  23.404  0.00  0.00    +0.000 C 
ENDBRANCH  23  25
BRANCH  22  28
ATOM     28  O   UNL     1       1.891  14.928  22.347  0.00  0.00    +0.000 OA
ATOM     29  H   UNL     1       2.666  14.647  22.858  0.00  0.00    +0.000 HD
ENDBRANCH  22  28
ENDBRANCH   1  19
BRANCH   1  30
ATOM     30  C   UNL     1      -1.280  10.381  19.007  0.00  0.00    +0.000 C 
BRANCH  30  34
ATOM     31  C   UNL     1      -2.911   9.774  15.521  0.00  0.00    +0.000 C 
ATOM     32  C   UNL     1      -2.747  10.152  16.966  0.00  0.00    +0.000 C 
ATOM     33  C   UNL     1      -4.006  10.482  17.728  0.00  0.00    +0.000 C 
ATOM     34  C   UNL     1      -1.524  10.128  17.543  0.00  0.00    +0.000 C 
ENDBRANCH  30  34
ENDBRANCH   1  30
TORSDOF 8
ENDMDL
