MODEL 1
REMARK VINA RESULT:      -9.0      0.000      0.000
REMARK  Name = 
REMARK  8 active torsions:
REMARK  status: ('A' for Active; 'I' for Inactive)
REMARK    1  A    between atoms: C_1  and  C_2
REMARK    2  A    between atoms: C_4  and  C_5
REMARK    3  A    between atoms: C_8  and  C_9
REMARK    4  A    between atoms: C_9  and  S_10
REMARK    5  A    between atoms: S_10  and  C_11
REMARK    6  A    between atoms: C_13  and  C_14
REMARK    7  A    between atoms: N_21  and  C_22
REMARK    8  A    between atoms: C_22  and  C_23
REMARK                            x       y       z     vdW  Elec       q    Type
REMARK                         _______ _______ _______ _____ _____    ______ ____
ROOT
ATOM      1  C   UNL     1       4.671   5.413  17.498  0.00  0.00    +0.000 A 
ATOM      2  N   UNL     1       5.123   5.743  16.307  0.00  0.00    +0.000 NA
ATOM      3  C   UNL     1       5.512   4.560  15.713  0.00  0.00    +0.000 A 
ATOM      4  C   UNL     1       5.294   3.503  16.569  0.00  0.00    +0.000 A 
ATOM      5  N   UNL     1       4.771   4.058  17.714  0.00  0.00    +0.000 N 
ENDROOT
BRANCH   3   6
ATOM      6  C   UNL     1       6.125   4.458  14.398  0.00  0.00    +0.000 A 
ATOM      7  C   UNL     1       5.568   3.614  13.429  0.00  0.00    +0.000 A 
ATOM      8  C   UNL     1       6.126   3.531  12.150  0.00  0.00    +0.000 A 
ATOM      9  C   UNL     1       7.255   4.282  11.829  0.00  0.00    +0.000 A 
ATOM     10  C   UNL     1       7.826   5.119  12.784  0.00  0.00    +0.000 A 
ATOM     11  C   UNL     1       7.264   5.208  14.062  0.00  0.00    +0.000 A 
ENDBRANCH   3   6
BRANCH   1  12
ATOM     12  S   UNL     1       4.043   6.522  18.682  0.00  0.00    +0.000 S 
BRANCH  12  13
ATOM     13  C   UNL     1       2.994   7.616  17.667  0.00  0.00    +0.000 C 
BRANCH  13  21
ATOM     14  C   UNL     1      -0.905  10.376  23.142  0.00  0.00    +0.000 C 
ATOM     15  C   UNL     1      -0.253  10.248  21.784  0.00  0.00    +0.000 A 
ATOM     16  C   UNL     1      -0.441  11.393  20.837  0.00  0.00    +0.000 A 
ATOM     17  C   UNL     1       0.145  11.277  19.631  0.00  0.00    +0.000 A 
ATOM     18  C   UNL     1       0.031  12.345  18.589  0.00  0.00    +0.000 C 
ATOM     19  N   UNL     1       0.876  10.111  19.360  0.00  0.00    +0.000 N 
ATOM     20  C   UNL     1       1.579   9.736  18.241  0.00  0.00    +0.000 A 
ATOM     21  C   UNL     1       2.101   8.486  18.512  0.00  0.00    +0.000 A 
ATOM     22  N   UNL     1       1.734   8.102  19.788  0.00  0.00    +0.000 NA
ATOM     23  C   UNL     1       1.005   9.081  20.290  0.00  0.00    +0.000 A 
ATOM     24  N   UNL     1       0.425   9.168  21.525  0.00  0.00    +0.000 NA
ENDBRANCH  13  21
ENDBRANCH  12  13
ENDBRANCH   1  12
BRANCH   5  25
ATOM     25  C   UNL     1       4.574   3.307  18.946  0.00  0.00    +0.000 C 
BRANCH  25  26
ATOM     26  C   UNL     1       3.123   3.158  19.329  0.00  0.00    +0.000 A 
ATOM     27  C   UNL     1       2.160   2.757  18.388  0.00  0.00    +0.000 A 
ATOM     28  C   UNL     1       0.829   2.565  18.771  0.00  0.00    +0.000 A 
ATOM     29  C   UNL     1       0.444   2.778  20.093  0.00  0.00    +0.000 A 
ATOM     30  C   UNL     1       1.386   3.191  21.031  0.00  0.00    +0.000 A 
ATOM     31  C   UNL     1       2.716   3.380  20.652  0.00  0.00    +0.000 A 
ENDBRANCH  25  26
ENDBRANCH   5  25
TORSDOF 6
ENDMDL
MODEL 2
REMARK VINA RESULT:      -8.9      0.743      1.877
REMARK  Name = 
REMARK  8 active torsions:
REMARK  status: ('A' for Active; 'I' for Inactive)
REMARK    1  A    between atoms: C_1  and  C_2
REMARK    2  A    between atoms: C_4  and  C_5
REMARK    3  A    between atoms: C_8  and  C_9
REMARK    4  A    between atoms: C_9  and  S_10
REMARK    5  A    between atoms: S_10  and  C_11
REMARK    6  A    between atoms: C_13  and  C_14
REMARK    7  A    between atoms: N_21  and  C_22
REMARK    8  A    between atoms: C_22  and  C_23
REMARK                            x       y       z     vdW  Elec       q    Type
REMARK                         _______ _______ _______ _____ _____    ______ ____
ROOT
ATOM      1  C   UNL     1       4.617   5.405  17.469  0.00  0.00    +0.000 A 
ATOM      2  N   UNL     1       5.053   5.719  16.267  0.00  0.00    +0.000 NA
ATOM      3  C   UNL     1       5.504   4.541  15.711  0.00  0.00    +0.000 A 
ATOM      4  C   UNL     1       5.341   3.501  16.601  0.00  0.00    +0.000 A 
ATOM      5  N   UNL     1       4.788   4.064  17.728  0.00  0.00    +0.000 N 
ENDROOT
BRANCH   3   6
ATOM      6  C   UNL     1       6.124   4.428  14.400  0.00  0.00    +0.000 A 
ATOM      7  C   UNL     1       5.566   3.584  13.432  0.00  0.00    +0.000 A 
ATOM      8  C   UNL     1       6.130   3.491  12.157  0.00  0.00    +0.000 A 
ATOM      9  C   UNL     1       7.266   4.234  11.838  0.00  0.00    +0.000 A 
ATOM     10  C   UNL     1       7.837   5.072  12.792  0.00  0.00    +0.000 A 
ATOM     11  C   UNL     1       7.268   5.170  14.067  0.00  0.00    +0.000 A 
ENDBRANCH   3   6
BRANCH   1  12
ATOM     12  S   UNL     1       3.930   6.516  18.617  0.00  0.00    +0.000 S 
BRANCH  12  13
ATOM     13  C   UNL     1       3.136   7.749  17.531  0.00  0.00    +0.000 C 
BRANCH  13  21
ATOM     14  C   UNL     1      -1.027  13.349  19.555  0.00  0.00    +0.000 C 
ATOM     15  C   UNL     1      -0.345  12.001  19.586  0.00  0.00    +0.000 A 
ATOM     16  C   UNL     1      -0.662  11.114  20.751  0.00  0.00    +0.000 A 
ATOM     17  C   UNL     1      -0.056   9.913  20.773  0.00  0.00    +0.000 A 
ATOM     18  C   UNL     1      -0.280   8.933  21.881  0.00  0.00    +0.000 C 
ATOM     19  N   UNL     1       0.811   9.589  19.718  0.00  0.00    +0.000 N 
ATOM     20  C   UNL     1       1.539   8.450  19.476  0.00  0.00    +0.000 A 
ATOM     21  C   UNL     1       2.225   8.672  18.297  0.00  0.00    +0.000 A 
ATOM     22  N   UNL     1       1.913   9.928  17.814  0.00  0.00    +0.000 NA
ATOM     23  C   UNL     1       1.063  10.469  18.667  0.00  0.00    +0.000 A 
ATOM     24  N   UNL     1       0.462  11.696  18.612  0.00  0.00    +0.000 NA
ENDBRANCH  13  21
ENDBRANCH  12  13
ENDBRANCH   1  12
BRANCH   5  25
ATOM     25  C   UNL     1       4.630   3.343  18.983  0.00  0.00    +0.000 C 
BRANCH  25  26
ATOM     26  C   UNL     1       3.188   3.135  19.375  0.00  0.00    +0.000 A 
ATOM     27  C   UNL     1       2.779   3.227  20.716  0.00  0.00    +0.000 A 
ATOM     28  C   UNL     1       1.430   3.091  21.057  0.00  0.00    +0.000 A 
ATOM     29  C   UNL     1       0.478   2.856  20.068  0.00  0.00    +0.000 A 
ATOM     30  C   UNL     1       0.874   2.747  18.738  0.00  0.00    +0.000 A 
ATOM     31  C   UNL     1       2.219   2.885  18.393  0.00  0.00    +0.000 A 
ENDBRANCH  25  26
ENDBRANCH   5  25
TORSDOF 6
ENDMDL
MODEL 3
REMARK VINA RESULT:      -8.8      0.910      1.720
REMARK  Name = 
REMARK  8 active torsions:
REMARK  status: ('A' for Active; 'I' for Inactive)
REMARK    1  A    between atoms: C_1  and  C_2
REMARK    2  A    between atoms: C_4  and  C_5
REMARK    3  A    between atoms: C_8  and  C_9
REMARK    4  A    between atoms: C_9  and  S_10
REMARK    5  A    between atoms: S_10  and  C_11
REMARK    6  A    between atoms: C_13  and  C_14
REMARK    7  A    between atoms: N_21  and  C_22
REMARK    8  A    between atoms: C_22  and  C_23
REMARK                            x       y       z     vdW  Elec       q    Type
REMARK                         _______ _______ _______ _____ _____    ______ ____
ROOT
ATOM      1  C   UNL     1       4.798   6.021  17.180  0.00  0.00    +0.000 A 
ATOM      2  N   UNL     1       5.189   6.121  15.927  0.00  0.00    +0.000 NA
ATOM      3  C   UNL     1       5.514   4.840  15.532  0.00  0.00    +0.000 A 
ATOM      4  C   UNL     1       5.320   3.957  16.571  0.00  0.00    +0.000 A 
ATOM      5  N   UNL     1       4.877   4.721  17.626  0.00  0.00    +0.000 N 
ENDROOT
BRANCH   3   6
ATOM      6  C   UNL     1       6.048   4.487  14.226  0.00  0.00    +0.000 A 
ATOM      7  C   UNL     1       5.373   3.562  13.420  0.00  0.00    +0.000 A 
ATOM      8  C   UNL     1       5.855   3.239  12.148  0.00  0.00    +0.000 A 
ATOM      9  C   UNL     1       7.025   3.830  11.672  0.00  0.00    +0.000 A 
ATOM     10  C   UNL     1       7.712   4.746  12.465  0.00  0.00    +0.000 A 
ATOM     11  C   UNL     1       7.225   5.075  13.735  0.00  0.00    +0.000 A 
ENDBRANCH   3   6
BRANCH   1  12
ATOM     12  S   UNL     1       4.266   7.340  18.181  0.00  0.00    +0.000 S 
BRANCH  12  13
ATOM     13  C   UNL     1       2.475   7.385  17.838  0.00  0.00    +0.000 C 
BRANCH  13  21
ATOM     14  C   UNL     1      -1.260  13.266  19.902  0.00  0.00    +0.000 C 
ATOM     15  C   UNL     1      -0.514  11.955  19.986  0.00  0.00    +0.000 A 
ATOM     16  C   UNL     1      -0.418  11.321  21.340  0.00  0.00    +0.000 A 
ATOM     17  C   UNL     1       0.243  10.151  21.409  0.00  0.00    +0.000 A 
ATOM     18  C   UNL     1       0.417   9.415  22.700  0.00  0.00    +0.000 C 
ATOM     19  N   UNL     1       0.781   9.623  20.226  0.00  0.00    +0.000 N 
ATOM     20  C   UNL     1       1.477   8.460  20.000  0.00  0.00    +0.000 A 
ATOM     21  C   UNL     1       1.771   8.441  18.650  0.00  0.00    +0.000 A 
ATOM     22  N   UNL     1       1.251   9.572  18.051  0.00  0.00    +0.000 NA
ATOM     23  C   UNL     1       0.657  10.272  18.999  0.00  0.00    +0.000 A 
ATOM     24  N   UNL     1      -0.011  11.460  18.892  0.00  0.00    +0.000 NA
ENDBRANCH  13  21
ENDBRANCH  12  13
ENDBRANCH   1  12
BRANCH   5  25
ATOM     25  C   UNL     1       4.733   4.205  18.980  0.00  0.00    +0.000 C 
BRANCH  25  26
ATOM     26  C   UNL     1       3.312   3.840  19.332  0.00  0.00    +0.000 A 
ATOM     27  C   UNL     1       2.698   2.700  18.786  0.00  0.00    +0.000 A 
ATOM     28  C   UNL     1       1.402   2.341  19.168  0.00  0.00    +0.000 A 
ATOM     29  C   UNL     1       0.704   3.117  20.091  0.00  0.00    +0.000 A 
ATOM     30  C   UNL     1       1.297   4.257  20.626  0.00  0.00    +0.000 A 
ATOM     31  C   UNL     1       2.591   4.616  20.250  0.00  0.00    +0.000 A 
ENDBRANCH  25  26
ENDBRANCH   5  25
TORSDOF 6
ENDMDL
MODEL 4
REMARK VINA RESULT:      -8.7      0.914      2.014
REMARK  Name = 
REMARK  8 active torsions:
REMARK  status: ('A' for Active; 'I' for Inactive)
REMARK    1  A    between atoms: C_1  and  C_2
REMARK    2  A    between atoms: C_4  and  C_5
REMARK    3  A    between atoms: C_8  and  C_9
REMARK    4  A    between atoms: C_9  and  S_10
REMARK    5  A    between atoms: S_10  and  C_11
REMARK    6  A    between atoms: C_13  and  C_14
REMARK    7  A    between atoms: N_21  and  C_22
REMARK    8  A    between atoms: C_22  and  C_23
REMARK                            x       y       z     vdW  Elec       q    Type
REMARK                         _______ _______ _______ _____ _____    ______ ____
ROOT
ATOM      1  C   UNL     1       4.767   5.833  17.282  0.00  0.00    +0.000 A 
ATOM      2  N   UNL     1       5.139   5.994  16.030  0.00  0.00    +0.000 NA
ATOM      3  C   UNL     1       5.476   4.737  15.574  0.00  0.00    +0.000 A 
ATOM      4  C   UNL     1       5.310   3.806  16.576  0.00  0.00    +0.000 A 
ATOM      5  N   UNL     1       4.871   4.517  17.670  0.00  0.00    +0.000 N 
ENDROOT
BRANCH   3   6
ATOM      6  C   UNL     1       5.996   4.450  14.247  0.00  0.00    +0.000 A 
ATOM      7  C   UNL     1       7.170   5.072  13.805  0.00  0.00    +0.000 A 
ATOM      8  C   UNL     1       7.701   4.781  12.545  0.00  0.00    +0.000 A 
ATOM      9  C   UNL     1       7.057   3.871  11.707  0.00  0.00    +0.000 A 
ATOM     10  C   UNL     1       5.884   3.250  12.129  0.00  0.00    +0.000 A 
ATOM     11  C   UNL     1       5.357   3.536  13.393  0.00  0.00    +0.000 A 
ENDBRANCH   3   6
BRANCH   1  12
ATOM     12  S   UNL     1       4.231   7.100  18.348  0.00  0.00    +0.000 S 
BRANCH  12  13
ATOM     13  C   UNL     1       2.742   7.717  17.492  0.00  0.00    +0.000 C 
BRANCH  13  21
ATOM     14  C   UNL     1      -1.992  12.622  20.006  0.00  0.00    +0.000 C 
ATOM     15  C   UNL     1      -0.974  11.506  19.995  0.00  0.00    +0.000 A 
ATOM     16  C   UNL     1      -0.625  10.900  21.319  0.00  0.00    +0.000 A 
ATOM     17  C   UNL     1       0.279   9.903  21.304  0.00  0.00    +0.000 A 
ATOM     18  C   UNL     1       0.721   9.216  22.558  0.00  0.00    +0.000 C 
ATOM     19  N   UNL     1       0.815   9.514  20.068  0.00  0.00    +0.000 N 
ATOM     20  C   UNL     1       1.726   8.534  19.755  0.00  0.00    +0.000 A 
ATOM     21  C   UNL     1       1.899   8.588  18.386  0.00  0.00    +0.000 A 
ATOM     22  N   UNL     1       1.095   9.581  17.860  0.00  0.00    +0.000 NA
ATOM     23  C   UNL     1       0.446  10.127  18.872  0.00  0.00    +0.000 A 
ATOM     24  N   UNL     1      -0.472  11.141  18.850  0.00  0.00    +0.000 NA
ENDBRANCH  13  21
ENDBRANCH  12  13
ENDBRANCH   1  12
BRANCH   5  25
ATOM     25  C   UNL     1       4.755   3.939  19.001  0.00  0.00    +0.000 C 
BRANCH  25  26
ATOM     26  C   UNL     1       3.331   3.636  19.398  0.00  0.00    +0.000 A 
ATOM     27  C   UNL     1       2.607   4.506  20.231  0.00  0.00    +0.000 A 
ATOM     28  C   UNL     1       1.270   4.244  20.542  0.00  0.00    +0.000 A 
ATOM     29  C   UNL     1       0.643   3.109  20.032  0.00  0.00    +0.000 A 
ATOM     30  C   UNL     1       1.355   2.231  19.219  0.00  0.00    +0.000 A 
ATOM     31  C   UNL     1       2.689   2.492  18.905  0.00  0.00    +0.000 A 
ENDBRANCH  25  26
ENDBRANCH   5  25
TORSDOF 6
ENDMDL
MODEL 5
REMARK VINA RESULT:      -8.4      0.650      1.080
REMARK  Name = 
REMARK  8 active torsions:
REMARK  status: ('A' for Active; 'I' for Inactive)
REMARK    1  A    between atoms: C_1  and  C_2
REMARK    2  A    between atoms: C_4  and  C_5
REMARK    3  A    between atoms: C_8  and  C_9
REMARK    4  A    between atoms: C_9  and  S_10
REMARK    5  A    between atoms: S_10  and  C_11
REMARK    6  A    between atoms: C_13  and  C_14
REMARK    7  A    between atoms: N_21  and  C_22
REMARK    8  A    between atoms: C_22  and  C_23
REMARK                            x       y       z     vdW  Elec       q    Type
REMARK                         _______ _______ _______ _____ _____    ______ ____
ROOT
ATOM      1  C   UNL     1       4.788   6.186  17.088  0.00  0.00    +0.000 A 
ATOM      2  N   UNL     1       5.180   6.248  15.833  0.00  0.00    +0.000 NA
ATOM      3  C   UNL     1       5.493   4.953  15.473  0.00  0.00    +0.000 A 
ATOM      4  C   UNL     1       5.290   4.102  16.537  0.00  0.00    +0.000 A 
ATOM      5  N   UNL     1       4.855   4.899  17.570  0.00  0.00    +0.000 N 
ENDROOT
BRANCH   3   6
ATOM      6  C   UNL     1       6.022   4.560  14.177  0.00  0.00    +0.000 A 
ATOM      7  C   UNL     1       7.239   5.088  13.728  0.00  0.00    +0.000 A 
ATOM      8  C   UNL     1       7.778   4.693  12.500  0.00  0.00    +0.000 A 
ATOM      9  C   UNL     1       7.100   3.773  11.702  0.00  0.00    +0.000 A 
ATOM     10  C   UNL     1       5.885   3.245  12.131  0.00  0.00    +0.000 A 
ATOM     11  C   UNL     1       5.349   3.634  13.363  0.00  0.00    +0.000 A 
ENDBRANCH   3   6
BRANCH   1  12
ATOM     12  S   UNL     1       4.270   7.538  18.052  0.00  0.00    +0.000 S 
BRANCH  12  13
ATOM     13  C   UNL     1       2.499   7.655  17.629  0.00  0.00    +0.000 C 
BRANCH  13  21
ATOM     14  C   UNL     1      -0.930  11.063  23.053  0.00  0.00    +0.000 C 
ATOM     15  C   UNL     1      -0.264  10.830  21.717  0.00  0.00    +0.000 A 
ATOM     16  C   UNL     1      -0.152  12.013  20.806  0.00  0.00    +0.000 A 
ATOM     17  C   UNL     1       0.446  11.803  19.619  0.00  0.00    +0.000 A 
ATOM     18  C   UNL     1       0.618  12.898  18.614  0.00  0.00    +0.000 C 
ATOM     19  N   UNL     1       0.913  10.511  19.333  0.00  0.00    +0.000 N 
ATOM     20  C   UNL     1       1.564  10.020  18.227  0.00  0.00    +0.000 A 
ATOM     21  C   UNL     1       1.784   8.678  18.472  0.00  0.00    +0.000 A 
ATOM     22  N   UNL     1       1.285   8.351  19.718  0.00  0.00    +0.000 NA
ATOM     23  C   UNL     1       0.769   9.453  20.229  0.00  0.00    +0.000 A 
ATOM     24  N   UNL     1       0.169   9.633  21.444  0.00  0.00    +0.000 NA
ENDBRANCH  13  21
ENDBRANCH  12  13
ENDBRANCH   1  12
BRANCH   5  25
ATOM     25  C   UNL     1       4.707   4.421  18.938  0.00  0.00    +0.000 C 
BRANCH  25  26
ATOM     26  C   UNL     1       3.295   4.014  19.278  0.00  0.00    +0.000 A 
ATOM     27  C   UNL     1       2.520   3.260  18.381  0.00  0.00    +0.000 A 
ATOM     28  C   UNL     1       1.234   2.838  18.733  0.00  0.00    +0.000 A 
ATOM     29  C   UNL     1       0.707   3.168  19.980  0.00  0.00    +0.000 A 
ATOM     30  C   UNL     1       1.460   3.928  20.871  0.00  0.00    +0.000 A 
ATOM     31  C   UNL     1       2.744   4.348  20.523  0.00  0.00    +0.000 A 
ENDBRANCH  25  26
ENDBRANCH   5  25
TORSDOF 6
ENDMDL
MODEL 6
REMARK VINA RESULT:      -8.3      5.498      6.477
REMARK  Name = 
REMARK  8 active torsions:
REMARK  status: ('A' for Active; 'I' for Inactive)
REMARK    1  A    between atoms: C_1  and  C_2
REMARK    2  A    between atoms: C_4  and  C_5
REMARK    3  A    between atoms: C_8  and  C_9
REMARK    4  A    between atoms: C_9  and  S_10
REMARK    5  A    between atoms: S_10  and  C_11
REMARK    6  A    between atoms: C_13  and  C_14
REMARK    7  A    between atoms: N_21  and  C_22
REMARK    8  A    between atoms: C_22  and  C_23
REMARK                            x       y       z     vdW  Elec       q    Type
REMARK                         _______ _______ _______ _____ _____    ______ ____
ROOT
ATOM      1  C   UNL     1       7.387   6.480  17.364  0.00  0.00    +0.000 A 
ATOM      2  N   UNL     1       7.596   6.311  16.075  0.00  0.00    +0.000 NA
ATOM      3  C   UNL     1       6.774   5.271  15.694  0.00  0.00    +0.000 A 
ATOM      4  C   UNL     1       6.064   4.804  16.778  0.00  0.00    +0.000 A 
ATOM      5  N   UNL     1       6.472   5.571  17.845  0.00  0.00    +0.000 N 
ENDROOT
BRANCH   3   6
ATOM      6  C   UNL     1       6.719   4.709  14.354  0.00  0.00    +0.000 A 
ATOM      7  C   UNL     1       5.718   3.787  14.022  0.00  0.00    +0.000 A 
ATOM      8  C   UNL     1       5.631   3.264  12.729  0.00  0.00    +0.000 A 
ATOM      9  C   UNL     1       6.551   3.649  11.754  0.00  0.00    +0.000 A 
ATOM     10  C   UNL     1       7.556   4.559  12.071  0.00  0.00    +0.000 A 
ATOM     11  C   UNL     1       7.639   5.089  13.363  0.00  0.00    +0.000 A 
ENDBRANCH   3   6
BRANCH   1  12
ATOM     12  S   UNL     1       8.164   7.670  18.367  0.00  0.00    +0.000 S 
BRANCH  12  13
ATOM     13  C   UNL     1       7.476   9.229  17.716  0.00  0.00    +0.000 C 
BRANCH  13  21
ATOM     14  C   UNL     1      10.319  15.902  18.148  0.00  0.00    +0.000 C 
ATOM     15  C   UNL     1      10.177  14.405  18.300  0.00  0.00    +0.000 A 
ATOM     16  C   UNL     1      11.284  13.694  19.015  0.00  0.00    +0.000 A 
ATOM     17  C   UNL     1      11.152  12.362  19.152  0.00  0.00    +0.000 A 
ATOM     18  C   UNL     1      12.187  11.529  19.840  0.00  0.00    +0.000 C 
ATOM     19  N   UNL     1      10.003  11.753  18.624  0.00  0.00    +0.000 N 
ATOM     20  C   UNL     1       9.603  10.438  18.632  0.00  0.00    +0.000 A 
ATOM     21  C   UNL     1       8.393  10.398  17.966  0.00  0.00    +0.000 A 
ATOM     22  N   UNL     1       8.048  11.673  17.564  0.00  0.00    +0.000 NA
ATOM     23  C   UNL     1       9.013  12.479  17.965  0.00  0.00    +0.000 A 
ATOM     24  N   UNL     1       9.115  13.834  17.811  0.00  0.00    +0.000 NA
ENDBRANCH  13  21
ENDBRANCH  12  13
ENDBRANCH   1  12
BRANCH   5  25
ATOM     25  C   UNL     1       6.105   5.279  19.223  0.00  0.00    +0.000 C 
BRANCH  25  26
ATOM     26  C   UNL     1       4.646   4.935  19.393  0.00  0.00    +0.000 A 
ATOM     27  C   UNL     1       4.237   3.622  19.680  0.00  0.00    +0.000 A 
ATOM     28  C   UNL     1       2.887   3.329  19.894  0.00  0.00    +0.000 A 
ATOM     29  C   UNL     1       1.932   4.339  19.817  0.00  0.00    +0.000 A 
ATOM     30  C   UNL     1       2.323   5.642  19.518  0.00  0.00    +0.000 A 
ATOM     31  C   UNL     1       3.670   5.938  19.307  0.00  0.00    +0.000 A 
ENDBRANCH  25  26
ENDBRANCH   5  25
TORSDOF 6
ENDMDL
MODEL 7
REMARK VINA RESULT:      -8.3      5.611      6.662
REMARK  Name = 
REMARK  8 active torsions:
REMARK  status: ('A' for Active; 'I' for Inactive)
REMARK    1  A    between atoms: C_1  and  C_2
REMARK    2  A    between atoms: C_4  and  C_5
REMARK    3  A    between atoms: C_8  and  C_9
REMARK    4  A    between atoms: C_9  and  S_10
REMARK    5  A    between atoms: S_10  and  C_11
REMARK    6  A    between atoms: C_13  and  C_14
REMARK    7  A    between atoms: N_21  and  C_22
REMARK    8  A    between atoms: C_22  and  C_23
REMARK                            x       y       z     vdW  Elec       q    Type
REMARK                         _______ _______ _______ _____ _____    ______ ____
ROOT
ATOM      1  C   UNL     1       7.446   6.611  17.413  0.00  0.00    +0.000 A 
ATOM      2  N   UNL     1       7.643   6.420  16.126  0.00  0.00    +0.000 NA
ATOM      3  C   UNL     1       6.777   5.410  15.760  0.00  0.00    +0.000 A 
ATOM      4  C   UNL     1       6.053   4.984  16.852  0.00  0.00    +0.000 A 
ATOM      5  N   UNL     1       6.497   5.745  17.909  0.00  0.00    +0.000 N 
ENDROOT
BRANCH   3   6
ATOM      6  C   UNL     1       6.692   4.836  14.426  0.00  0.00    +0.000 A 
ATOM      7  C   UNL     1       7.650   5.166  13.460  0.00  0.00    +0.000 A 
ATOM      8  C   UNL     1       7.601   4.595  12.184  0.00  0.00    +0.000 A 
ATOM      9  C   UNL     1       6.586   3.697  11.857  0.00  0.00    +0.000 A 
ATOM     10  C   UNL     1       5.621   3.366  12.806  0.00  0.00    +0.000 A 
ATOM     11  C   UNL     1       5.674   3.931  14.084  0.00  0.00    +0.000 A 
ENDBRANCH   3   6
BRANCH   1  12
ATOM     12  S   UNL     1       8.276   7.779  18.399  0.00  0.00    +0.000 S 
BRANCH  12  13
ATOM     13  C   UNL     1       7.581   9.354  17.797  0.00  0.00    +0.000 C 
BRANCH  13  21
ATOM     14  C   UNL     1      10.608  15.957  17.977  0.00  0.00    +0.000 C 
ATOM     15  C   UNL     1      10.421  14.473  18.191  0.00  0.00    +0.000 A 
ATOM     16  C   UNL     1      11.500  13.762  18.948  0.00  0.00    +0.000 A 
ATOM     17  C   UNL     1      11.328  12.441  19.141  0.00  0.00    +0.000 A 
ATOM     18  C   UNL     1      12.333  11.611  19.876  0.00  0.00    +0.000 C 
ATOM     19  N   UNL     1      10.169  11.843  18.626  0.00  0.00    +0.000 N 
ATOM     20  C   UNL     1       9.731  10.542  18.685  0.00  0.00    +0.000 A 
ATOM     21  C   UNL     1       8.528  10.506  18.007  0.00  0.00    +0.000 A 
ATOM     22  N   UNL     1       8.223  11.773  17.548  0.00  0.00    +0.000 NA
ATOM     23  C   UNL     1       9.206  12.568  17.925  0.00  0.00    +0.000 A 
ATOM     24  N   UNL     1       9.348  13.911  17.714  0.00  0.00    +0.000 NA
ENDBRANCH  13  21
ENDBRANCH  12  13
ENDBRANCH   1  12
BRANCH   5  25
ATOM     25  C   UNL     1       6.126   5.484  19.292  0.00  0.00    +0.000 C 
BRANCH  25  26
ATOM     26  C   UNL     1       4.743   4.898  19.438  0.00  0.00    +0.000 A 
ATOM     27  C   UNL     1       3.608   5.723  19.504  0.00  0.00    +0.000 A 
ATOM     28  C   UNL     1       2.328   5.166  19.579  0.00  0.00    +0.000 A 
ATOM     29  C   UNL     1       2.167   3.782  19.595  0.00  0.00    +0.000 A 
ATOM     30  C   UNL     1       3.286   2.955  19.546  0.00  0.00    +0.000 A 
ATOM     31  C   UNL     1       4.564   3.508  19.468  0.00  0.00    +0.000 A 
ENDBRANCH  25  26
ENDBRANCH   5  25
TORSDOF 6
ENDMDL
MODEL 8
REMARK VINA RESULT:      -8.2      2.776      6.198
REMARK  Name = 
REMARK  8 active torsions:
REMARK  status: ('A' for Active; 'I' for Inactive)
REMARK    1  A    between atoms: C_1  and  C_2
REMARK    2  A    between atoms: C_4  and  C_5
REMARK    3  A    between atoms: C_8  and  C_9
REMARK    4  A    between atoms: C_9  and  S_10
REMARK    5  A    between atoms: S_10  and  C_11
REMARK    6  A    between atoms: C_13  and  C_14
REMARK    7  A    between atoms: N_21  and  C_22
REMARK    8  A    between atoms: C_22  and  C_23
REMARK                            x       y       z     vdW  Elec       q    Type
REMARK                         _______ _______ _______ _____ _____    ______ ____
ROOT
ATOM      1  C   UNL     1       2.555   7.752  18.312  0.00  0.00    +0.000 A 
ATOM      2  N   UNL     1       1.824   6.964  19.073  0.00  0.00    +0.000 NA
ATOM      3  C   UNL     1       2.555   5.804  19.223  0.00  0.00    +0.000 A 
ATOM      4  C   UNL     1       3.744   5.897  18.532  0.00  0.00    +0.000 A 
ATOM      5  N   UNL     1       3.730   7.139  17.940  0.00  0.00    +0.000 N 
ENDROOT
BRANCH   3   6
ATOM      6  C   UNL     1       2.103   4.629  19.950  0.00  0.00    +0.000 A 
ATOM      7  C   UNL     1       2.555   4.395  21.255  0.00  0.00    +0.000 A 
ATOM      8  C   UNL     1       2.103   3.289  21.979  0.00  0.00    +0.000 A 
ATOM      9  C   UNL     1       1.200   2.396  21.403  0.00  0.00    +0.000 A 
ATOM     10  C   UNL     1       0.747   2.610  20.103  0.00  0.00    +0.000 A 
ATOM     11  C   UNL     1       1.194   3.722  19.381  0.00  0.00    +0.000 A 
ENDBRANCH   3   6
BRANCH   1  12
ATOM     12  S   UNL     1       2.115   9.356  17.803  0.00  0.00    +0.000 S 
BRANCH  12  13
ATOM     13  C   UNL     1       0.988   9.887  19.136  0.00  0.00    +0.000 C 
BRANCH  13  21
ATOM     14  C   UNL     1      -5.715  12.583  18.365  0.00  0.00    +0.000 C 
ATOM     15  C   UNL     1      -4.433  11.848  18.046  0.00  0.00    +0.000 A 
ATOM     16  C   UNL     1      -4.336  11.222  16.690  0.00  0.00    +0.000 A 
ATOM     17  C   UNL     1      -3.191  10.573  16.408  0.00  0.00    +0.000 A 
ATOM     18  C   UNL     1      -2.966   9.898  15.092  0.00  0.00    +0.000 C 
ATOM     19  N   UNL     1      -2.193  10.536  17.393  0.00  0.00    +0.000 N 
ATOM     20  C   UNL     1      -0.940   9.970  17.377  0.00  0.00    +0.000 A 
ATOM     21  C   UNL     1      -0.383  10.228  18.614  0.00  0.00    +0.000 A 
ATOM     22  N   UNL     1      -1.276  10.955  19.377  0.00  0.00    +0.000 NA
ATOM     23  C   UNL     1      -2.354  11.139  18.639  0.00  0.00    +0.000 A 
ATOM     24  N   UNL     1      -3.503  11.808  18.956  0.00  0.00    +0.000 NA
ENDBRANCH  13  21
ENDBRANCH  12  13
ENDBRANCH   1  12
BRANCH   5  25
ATOM     25  C   UNL     1       4.718   7.566  16.960  0.00  0.00    +0.000 C 
BRANCH  25  26
ATOM     26  C   UNL     1       5.516   6.425  16.380  0.00  0.00    +0.000 A 
ATOM     27  C   UNL     1       5.157   5.835  15.156  0.00  0.00    +0.000 A 
ATOM     28  C   UNL     1       5.940   4.819  14.601  0.00  0.00    +0.000 A 
ATOM     29  C   UNL     1       7.083   4.375  15.262  0.00  0.00    +0.000 A 
ATOM     30  C   UNL     1       7.439   4.942  16.483  0.00  0.00    +0.000 A 
ATOM     31  C   UNL     1       6.662   5.958  17.039  0.00  0.00    +0.000 A 
ENDBRANCH  25  26
ENDBRANCH   5  25
TORSDOF 6
ENDMDL
MODEL 9
REMARK VINA RESULT:      -8.1      1.841      5.850
REMARK  Name = 
REMARK  8 active torsions:
REMARK  status: ('A' for Active; 'I' for Inactive)
REMARK    1  A    between atoms: C_1  and  C_2
REMARK    2  A    between atoms: C_4  and  C_5
REMARK    3  A    between atoms: C_8  and  C_9
REMARK    4  A    between atoms: C_9  and  S_10
REMARK    5  A    between atoms: S_10  and  C_11
REMARK    6  A    between atoms: C_13  and  C_14
REMARK    7  A    between atoms: N_21  and  C_22
REMARK    8  A    between atoms: C_22  and  C_23
REMARK                            x       y       z     vdW  Elec       q    Type
REMARK                         _______ _______ _______ _____ _____    ______ ____
ROOT
ATOM      1  C   UNL     1       2.783   7.819  18.264  0.00  0.00    +0.000 A 
ATOM      2  N   UNL     1       2.022   7.053  19.019  0.00  0.00    +0.000 NA
ATOM      3  C   UNL     1       2.682   5.846  19.115  0.00  0.00    +0.000 A 
ATOM      4  C   UNL     1       3.858   5.888  18.398  0.00  0.00    +0.000 A 
ATOM      5  N   UNL     1       3.908   7.147  17.844  0.00  0.00    +0.000 N 
ENDROOT
BRANCH   3   6
ATOM      6  C   UNL     1       2.174   4.679  19.817  0.00  0.00    +0.000 A 
ATOM      7  C   UNL     1       2.535   4.452  21.151  0.00  0.00    +0.000 A 
ATOM      8  C   UNL     1       2.027   3.353  21.850  0.00  0.00    +0.000 A 
ATOM      9  C   UNL     1       1.161   2.462  21.220  0.00  0.00    +0.000 A 
ATOM     10  C   UNL     1       0.799   2.670  19.891  0.00  0.00    +0.000 A 
ATOM     11  C   UNL     1       1.300   3.773  19.193  0.00  0.00    +0.000 A 
ENDBRANCH   3   6
BRANCH   1  12
ATOM     12  S   UNL     1       2.432   9.462  17.815  0.00  0.00    +0.000 S 
BRANCH  12  13
ATOM     13  C   UNL     1       0.608   9.487  17.838  0.00  0.00    +0.000 C 
BRANCH  13  21
ATOM     14  C   UNL     1      -2.970  13.623  22.622  0.00  0.00    +0.000 C 
ATOM     15  C   UNL     1      -2.090  12.525  22.071  0.00  0.00    +0.000 A 
ATOM     16  C   UNL     1      -1.518  11.560  23.063  0.00  0.00    +0.000 A 
ATOM     17  C   UNL     1      -0.739  10.581  22.568  0.00  0.00    +0.000 A 
ATOM     18  C   UNL     1      -0.100   9.554  23.450  0.00  0.00    +0.000 C 
ATOM     19  N   UNL     1      -0.527  10.540  21.182  0.00  0.00    +0.000 N 
ATOM     20  C   UNL     1       0.195   9.661  20.412  0.00  0.00    +0.000 A 
ATOM     21  C   UNL     1       0.068  10.094  19.106  0.00  0.00    +0.000 A 
ATOM     22  N   UNL     1      -0.734  11.219  19.072  0.00  0.00    +0.000 NA
ATOM     23  C   UNL     1      -1.090  11.477  20.316  0.00  0.00    +0.000 A 
ATOM     24  N   UNL     1      -1.889  12.483  20.786  0.00  0.00    +0.000 NA
ENDBRANCH  13  21
ENDBRANCH  12  13
ENDBRANCH   1  12
BRANCH   5  25
ATOM     25  C   UNL     1       4.898   7.543  16.853  0.00  0.00    +0.000 C 
BRANCH  25  26
ATOM     26  C   UNL     1       5.631   6.375  16.241  0.00  0.00    +0.000 A 
ATOM     27  C   UNL     1       6.798   5.860  16.831  0.00  0.00    +0.000 A 
ATOM     28  C   UNL     1       7.434   4.739  16.288  0.00  0.00    +0.000 A 
ATOM     29  C   UNL     1       6.917   4.127  15.148  0.00  0.00    +0.000 A 
ATOM     30  C   UNL     1       5.771   4.638  14.546  0.00  0.00    +0.000 A 
ATOM     31  C   UNL     1       5.133   5.754  15.088  0.00  0.00    +0.000 A 
ENDBRANCH  25  26
ENDBRANCH   5  25
TORSDOF 6
ENDMDL
