MODEL 1
REMARK VINA RESULT:      -8.4      0.000      0.000
REMARK  Name = 
REMARK  11 active torsions:
REMARK  status: ('A' for Active; 'I' for Inactive)
REMARK    1  A    between atoms: C_1  and  O_2
REMARK    2  A    between atoms: O_2  and  C_3
REMARK    3  A    between atoms: C_6  and  C_7
REMARK    4  A    between atoms: C_8  and  C_9
REMARK    5  A    between atoms: N_11  and  CA_12
REMARK    6  A    between atoms: CA_12  and  CB_13
REMARK    7  A    between atoms: CA_12  and  C_14
REMARK    8  A    between atoms: C_14  and  OXT_16
REMARK    9  A    between atoms: C_19  and  C_20
REMARK   10  A    between atoms: C_23  and  O_24
REMARK   11  A    between atoms: C_25  and  O_26
REMARK                            x       y       z     vdW  Elec       q    Type
REMARK                         _______ _______ _______ _____ _____    ______ ____
ROOT
ATOM      1  C   UNK A   0       2.914   3.747  20.352  0.00  0.00    +0.000 A 
ATOM      2  C   UNK A   0       3.573   2.697  19.699  0.00  0.00    +0.000 A 
ATOM      3  C   UNK A   0       4.118   2.856  18.420  0.00  0.00    +0.000 A 
ATOM      4  C   UNK A   0       4.013   4.072  17.724  0.00  0.00    +0.000 A 
ATOM      5  C   UNK A   0       3.364   5.151  18.367  0.00  0.00    +0.000 A 
ATOM      6  C   UNK A   0       3.062   6.503  18.039  0.00  0.00    +0.000 A 
ATOM      7  C   UNK A   0       2.379   7.049  19.108  0.00  0.00    +0.000 A 
ATOM      8  O   UNK A   0       2.241   6.103  20.085  0.00  0.00    +0.000 OA
ATOM      9  C   UNK A   0       2.835   4.953  19.641  0.00  0.00    +0.000 A 
ENDROOT
BRANCH   7  10
ATOM     10  C   UNK A   0       1.808   8.370  19.371  0.00  0.00    +0.000 A 
ATOM     11  C   UNK A   0       1.592   9.305  18.343  0.00  0.00    +0.000 A 
ATOM     12  C   UNK A   0       1.034  10.563  18.608  0.00  0.00    +0.000 A 
ATOM     13  C   UNK A   0       0.689  10.892  19.911  0.00  0.00    +0.000 A 
ATOM     14  C   UNK A   0       0.901   9.978  20.938  0.00  0.00    +0.000 A 
ATOM     15  C   UNK A   0       1.452   8.731  20.682  0.00  0.00    +0.000 A 
BRANCH  13  16
ATOM     16  O   UNK A   0       0.137  12.098  20.241  0.00  0.00    +0.000 OA
ATOM     17  H   UNK A   0      -0.014  12.595  19.417  0.00  0.00    +0.000 HD
ENDBRANCH  13  16
BRANCH  14  18
ATOM     18  O   UNK A   0       0.562  10.300  22.222  0.00  0.00    +0.000 OA
ATOM     19  H   UNK A   0       1.086   9.686  22.773  0.00  0.00    +0.000 HD
ENDBRANCH  14  18
ENDBRANCH   7  10
BRANCH   1  21
ATOM     20  C   UNK A   0       1.479   2.535  21.794  0.00  0.00    +0.000 C 
ATOM     21  O   UNK A   0       2.324   3.659  21.584  0.00  0.00    +0.000 OA
ENDBRANCH   1  21
BRANCH   4  22
ATOM     22  C   UNK A   0       4.579   4.290  16.387  0.00  0.00    +0.000 C 
ATOM     23  C   UNK A   0       5.896   4.299  16.121  0.00  0.00    +0.000 C 
BRANCH  23  24
ATOM     24  C   UNK A   0       6.367   4.523  14.732  0.00  0.00    +0.000 C 
ATOM     25  O   UNK A   0       7.251   5.322  14.446  0.00  0.00    +0.000 OA
ATOM     26  N   ALA A   1       5.717   3.750  13.807  0.00  0.00    +0.000 N 
ATOM     27  H   ALA A   1       4.979   3.107  14.079  0.00  0.00    +0.000 HD
BRANCH  26  28
ATOM     28  CA  ALA A   1       6.037   3.822  12.386  0.00  0.00    +0.000 C 
ATOM     29  CB  ALA A   1       7.500   3.485  12.134  0.00  0.00    +0.000 C 
BRANCH  28  30
ATOM     30  C   ALA A   1       5.146   2.831  11.633  0.00  0.00    +0.000 C 
ATOM     31  O   ALA A   1       4.033   3.109  11.205  0.00  0.00    +0.000 OA
BRANCH  30  32
ATOM     32  OXT ALA A   1       5.684   1.596  11.505  0.00  0.00    +0.000 OA
ATOM     33  HXT ALA A   1       6.660   1.580  11.475  0.00  0.00    +0.000 HD
ENDBRANCH  30  32
ENDBRANCH  28  30
ENDBRANCH  26  28
ENDBRANCH  23  24
ENDBRANCH   4  22
TORSDOF 9
ENDMDL
MODEL 2
REMARK VINA RESULT:      -8.3      0.532      1.234
REMARK  Name = 
REMARK  11 active torsions:
REMARK  status: ('A' for Active; 'I' for Inactive)
REMARK    1  A    between atoms: C_1  and  O_2
REMARK    2  A    between atoms: O_2  and  C_3
REMARK    3  A    between atoms: C_6  and  C_7
REMARK    4  A    between atoms: C_8  and  C_9
REMARK    5  A    between atoms: N_11  and  CA_12
REMARK    6  A    between atoms: CA_12  and  CB_13
REMARK    7  A    between atoms: CA_12  and  C_14
REMARK    8  A    between atoms: C_14  and  OXT_16
REMARK    9  A    between atoms: C_19  and  C_20
REMARK   10  A    between atoms: C_23  and  O_24
REMARK   11  A    between atoms: C_25  and  O_26
REMARK                            x       y       z     vdW  Elec       q    Type
REMARK                         _______ _______ _______ _____ _____    ______ ____
ROOT
ATOM      1  C   UNK A   0       2.900   3.710  20.450  0.00  0.00    +0.000 A 
ATOM      2  C   UNK A   0       3.552   2.697  19.733  0.00  0.00    +0.000 A 
ATOM      3  C   UNK A   0       4.047   2.913  18.443  0.00  0.00    +0.000 A 
ATOM      4  C   UNK A   0       3.897   4.152  17.797  0.00  0.00    +0.000 A 
ATOM      5  C   UNK A   0       3.253   5.194  18.503  0.00  0.00    +0.000 A 
ATOM      6  C   UNK A   0       2.918   6.552  18.238  0.00  0.00    +0.000 A 
ATOM      7  C   UNK A   0       2.266   7.046  19.351  0.00  0.00    +0.000 A 
ATOM      8  O   UNK A   0       2.179   6.062  20.296  0.00  0.00    +0.000 OA
ATOM      9  C   UNK A   0       2.775   4.940  19.788  0.00  0.00    +0.000 A 
ENDROOT
BRANCH   7  10
ATOM     10  C   UNK A   0       1.683   8.346  19.684  0.00  0.00    +0.000 A 
ATOM     11  C   UNK A   0       1.219   8.644  20.977  0.00  0.00    +0.000 A 
ATOM     12  C   UNK A   0       0.674   9.899  21.284  0.00  0.00    +0.000 A 
ATOM     13  C   UNK A   0       0.588  10.863  20.290  0.00  0.00    +0.000 A 
ATOM     14  C   UNK A   0       1.040  10.580  19.005  0.00  0.00    +0.000 A 
ATOM     15  C   UNK A   0       1.582   9.341  18.696  0.00  0.00    +0.000 A 
BRANCH  13  16
ATOM     16  O   UNK A   0       0.072  12.108  20.519  0.00  0.00    +0.000 OA
ATOM     17  H   UNK A   0      -0.857  12.003  20.790  0.00  0.00    +0.000 HD
ENDBRANCH  13  16
BRANCH  14  18
ATOM     18  O   UNK A   0       0.957  11.529  18.025  0.00  0.00    +0.000 OA
ATOM     19  H   UNK A   0       0.018  11.799  18.029  0.00  0.00    +0.000 HD
ENDBRANCH  14  18
ENDBRANCH   7  10
BRANCH   1  21
ATOM     20  C   UNK A   0       1.415   2.512  21.852  0.00  0.00    +0.000 C 
ATOM     21  O   UNK A   0       2.358   3.566  21.698  0.00  0.00    +0.000 OA
ENDBRANCH   1  21
BRANCH   4  22
ATOM     22  C   UNK A   0       4.409   4.429  16.450  0.00  0.00    +0.000 C 
ATOM     23  C   UNK A   0       5.690   4.259  16.084  0.00  0.00    +0.000 C 
BRANCH  23  24
ATOM     24  C   UNK A   0       6.108   4.564  14.693  0.00  0.00    +0.000 C 
ATOM     25  O   UNK A   0       6.806   5.527  14.400  0.00  0.00    +0.000 OA
ATOM     26  N   ALA A   1       5.637   3.662  13.775  0.00  0.00    +0.000 N 
ATOM     27  H   ALA A   1       5.050   2.882  14.054  0.00  0.00    +0.000 HD
BRANCH  26  28
ATOM     28  CA  ALA A   1       5.939   3.787  12.354  0.00  0.00    +0.000 C 
ATOM     29  CB  ALA A   1       7.421   3.567  12.085  0.00  0.00    +0.000 C 
BRANCH  28  30
ATOM     30  C   ALA A   1       5.120   2.745  11.587  0.00  0.00    +0.000 C 
ATOM     31  O   ALA A   1       4.028   2.976  11.084  0.00  0.00    +0.000 OA
BRANCH  30  32
ATOM     32  OXT ALA A   1       5.695   1.521  11.538  0.00  0.00    +0.000 OA
ATOM     33  HXT ALA A   1       6.528   1.485  11.029  0.00  0.00    +0.000 HD
ENDBRANCH  30  32
ENDBRANCH  28  30
ENDBRANCH  26  28
ENDBRANCH  23  24
ENDBRANCH   4  22
TORSDOF 9
ENDMDL
MODEL 3
REMARK VINA RESULT:      -7.9      7.998      9.416
REMARK  Name = 
REMARK  11 active torsions:
REMARK  status: ('A' for Active; 'I' for Inactive)
REMARK    1  A    between atoms: C_1  and  O_2
REMARK    2  A    between atoms: O_2  and  C_3
REMARK    3  A    between atoms: C_6  and  C_7
REMARK    4  A    between atoms: C_8  and  C_9
REMARK    5  A    between atoms: N_11  and  CA_12
REMARK    6  A    between atoms: CA_12  and  CB_13
REMARK    7  A    between atoms: CA_12  and  C_14
REMARK    8  A    between atoms: C_14  and  OXT_16
REMARK    9  A    between atoms: C_19  and  C_20
REMARK   10  A    between atoms: C_23  and  O_24
REMARK   11  A    between atoms: C_25  and  O_26
REMARK                            x       y       z     vdW  Elec       q    Type
REMARK                         _______ _______ _______ _____ _____    ______ ____
ROOT
ATOM      1  C   UNK A   0      10.909  13.576  19.243  0.00  0.00    +0.000 A 
ATOM      2  C   UNK A   0      11.116  12.765  18.118  0.00  0.00    +0.000 A 
ATOM      3  C   UNK A   0      10.562  11.484  18.026  0.00  0.00    +0.000 A 
ATOM      4  C   UNK A   0       9.787  10.943  19.066  0.00  0.00    +0.000 A 
ATOM      5  C   UNK A   0       9.554  11.746  20.206  0.00  0.00    +0.000 A 
ATOM      6  C   UNK A   0       8.844  11.598  21.432  0.00  0.00    +0.000 A 
ATOM      7  C   UNK A   0       9.012  12.763  22.154  0.00  0.00    +0.000 A 
ATOM      8  O   UNK A   0       9.792  13.628  21.439  0.00  0.00    +0.000 OA
ATOM      9  C   UNK A   0      10.122  13.017  20.261  0.00  0.00    +0.000 A 
ENDROOT
BRANCH   7  10
ATOM     10  C   UNK A   0       8.543  13.212  23.465  0.00  0.00    +0.000 A 
ATOM     11  C   UNK A   0       8.480  12.345  24.571  0.00  0.00    +0.000 A 
ATOM     12  C   UNK A   0       8.039  12.794  25.823  0.00  0.00    +0.000 A 
ATOM     13  C   UNK A   0       7.654  14.118  25.974  0.00  0.00    +0.000 A 
ATOM     14  C   UNK A   0       7.707  14.985  24.887  0.00  0.00    +0.000 A 
ATOM     15  C   UNK A   0       8.144  14.548  23.645  0.00  0.00    +0.000 A 
BRANCH  13  16
ATOM     16  O   UNK A   0       7.217  14.624  27.166  0.00  0.00    +0.000 OA
ATOM     17  H   UNK A   0       7.000  15.563  27.032  0.00  0.00    +0.000 HD
ENDBRANCH  13  16
BRANCH  14  18
ATOM     18  O   UNK A   0       7.328  16.290  25.033  0.00  0.00    +0.000 OA
ATOM     19  H   UNK A   0       6.864  16.503  24.200  0.00  0.00    +0.000 HD
ENDBRANCH  14  18
ENDBRANCH   7  10
BRANCH   1  21
ATOM     20  C   UNK A   0      11.682  15.578  18.241  0.00  0.00    +0.000 C 
ATOM     21  O   UNK A   0      11.446  14.822  19.423  0.00  0.00    +0.000 OA
ENDBRANCH   1  21
BRANCH   4  22
ATOM     22  C   UNK A   0       9.176   9.609  19.010  0.00  0.00    +0.000 C 
ATOM     23  C   UNK A   0       8.429   9.168  17.984  0.00  0.00    +0.000 C 
BRANCH  23  24
ATOM     24  C   UNK A   0       7.858   7.799  18.021  0.00  0.00    +0.000 C 
ATOM     25  O   UNK A   0       8.102   6.996  18.913  0.00  0.00    +0.000 OA
ATOM     26  N   ALA A   1       7.034   7.526  16.961  0.00  0.00    +0.000 N 
ATOM     27  H   ALA A   1       6.865   8.213  16.233  0.00  0.00    +0.000 HD
BRANCH  26  28
ATOM     28  CA  ALA A   1       6.374   6.234  16.816  0.00  0.00    +0.000 C 
ATOM     29  CB  ALA A   1       5.069   6.367  16.044  0.00  0.00    +0.000 C 
BRANCH  28  30
ATOM     30  C   ALA A   1       7.316   5.285  16.072  0.00  0.00    +0.000 C 
ATOM     31  O   ALA A   1       7.939   4.382  16.615  0.00  0.00    +0.000 OA
BRANCH  30  32
ATOM     32  OXT ALA A   1       7.429   5.549  14.749  0.00  0.00    +0.000 OA
ATOM     33  HXT ALA A   1       6.639   5.962  14.349  0.00  0.00    +0.000 HD
ENDBRANCH  30  32
ENDBRANCH  28  30
ENDBRANCH  26  28
ENDBRANCH  23  24
ENDBRANCH   4  22
TORSDOF 9
ENDMDL
MODEL 4
REMARK VINA RESULT:      -7.9      7.637      9.048
REMARK  Name = 
REMARK  11 active torsions:
REMARK  status: ('A' for Active; 'I' for Inactive)
REMARK    1  A    between atoms: C_1  and  O_2
REMARK    2  A    between atoms: O_2  and  C_3
REMARK    3  A    between atoms: C_6  and  C_7
REMARK    4  A    between atoms: C_8  and  C_9
REMARK    5  A    between atoms: N_11  and  CA_12
REMARK    6  A    between atoms: CA_12  and  CB_13
REMARK    7  A    between atoms: CA_12  and  C_14
REMARK    8  A    between atoms: C_14  and  OXT_16
REMARK    9  A    between atoms: C_19  and  C_20
REMARK   10  A    between atoms: C_23  and  O_24
REMARK   11  A    between atoms: C_25  and  O_26
REMARK                            x       y       z     vdW  Elec       q    Type
REMARK                         _______ _______ _______ _____ _____    ______ ____
ROOT
ATOM      1  C   UNK A   0      10.431  13.494  19.012  0.00  0.00    +0.000 A 
ATOM      2  C   UNK A   0      10.593  12.725  17.852  0.00  0.00    +0.000 A 
ATOM      3  C   UNK A   0      10.142  11.402  17.780  0.00  0.00    +0.000 A 
ATOM      4  C   UNK A   0       9.522  10.778  18.875  0.00  0.00    +0.000 A 
ATOM      5  C   UNK A   0       9.336  11.537  20.053  0.00  0.00    +0.000 A 
ATOM      6  C   UNK A   0       8.765  11.306  21.337  0.00  0.00    +0.000 A 
ATOM      7  C   UNK A   0       8.905  12.468  22.071  0.00  0.00    +0.000 A 
ATOM      8  O   UNK A   0       9.534  13.410  21.307  0.00  0.00    +0.000 OA
ATOM      9  C   UNK A   0       9.797  12.851  20.086  0.00  0.00    +0.000 A 
ENDROOT
BRANCH   7  10
ATOM     10  C   UNK A   0       8.530  12.851  23.432  0.00  0.00    +0.000 A 
ATOM     11  C   UNK A   0       8.769  14.143  23.934  0.00  0.00    +0.000 A 
ATOM     12  C   UNK A   0       8.395  14.499  25.236  0.00  0.00    +0.000 A 
ATOM     13  C   UNK A   0       7.778  13.558  26.047  0.00  0.00    +0.000 A 
ATOM     14  C   UNK A   0       7.538  12.275  25.564  0.00  0.00    +0.000 A 
ATOM     15  C   UNK A   0       7.906  11.917  24.276  0.00  0.00    +0.000 A 
BRANCH  13  16
ATOM     16  O   UNK A   0       7.382  13.837  27.325  0.00  0.00    +0.000 OA
ATOM     17  H   UNK A   0       6.905  14.685  27.314  0.00  0.00    +0.000 HD
ENDBRANCH  13  16
BRANCH  14  18
ATOM     18  O   UNK A   0       6.931  11.346  26.362  0.00  0.00    +0.000 OA
ATOM     19  H   UNK A   0       6.275  11.857  26.874  0.00  0.00    +0.000 HD
ENDBRANCH  14  18
ENDBRANCH   7  10
BRANCH   1  21
ATOM     20  C   UNK A   0       9.976  15.806  18.774  0.00  0.00    +0.000 C 
ATOM     21  O   UNK A   0      10.875  14.778  19.172  0.00  0.00    +0.000 OA
ENDBRANCH   1  21
BRANCH   4  22
ATOM     22  C   UNK A   0       9.023   9.398  18.843  0.00  0.00    +0.000 C 
ATOM     23  C   UNK A   0       8.205   8.917  17.892  0.00  0.00    +0.000 C 
BRANCH  23  24
ATOM     24  C   UNK A   0       7.759   7.503  17.947  0.00  0.00    +0.000 C 
ATOM     25  O   UNK A   0       8.118   6.721  18.819  0.00  0.00    +0.000 OA
ATOM     26  N   ALA A   1       6.909   7.162  16.928  0.00  0.00    +0.000 N 
ATOM     27  H   ALA A   1       6.643   7.834  16.214  0.00  0.00    +0.000 HD
BRANCH  26  28
ATOM     28  CA  ALA A   1       6.358   5.818  16.806  0.00  0.00    +0.000 C 
ATOM     29  CB  ALA A   1       4.918   5.767  17.296  0.00  0.00    +0.000 C 
BRANCH  28  30
ATOM     30  C   ALA A   1       6.413   5.398  15.335  0.00  0.00    +0.000 C 
ATOM     31  O   ALA A   1       5.438   5.019  14.699  0.00  0.00    +0.000 OA
BRANCH  30  32
ATOM     32  OXT ALA A   1       7.653   5.452  14.794  0.00  0.00    +0.000 OA
ATOM     33  HXT ALA A   1       7.853   6.285  14.323  0.00  0.00    +0.000 HD
ENDBRANCH  30  32
ENDBRANCH  28  30
ENDBRANCH  26  28
ENDBRANCH  23  24
ENDBRANCH   4  22
TORSDOF 9
ENDMDL
MODEL 5
REMARK VINA RESULT:      -7.7      4.032      7.330
REMARK  Name = 
REMARK  11 active torsions:
REMARK  status: ('A' for Active; 'I' for Inactive)
REMARK    1  A    between atoms: C_1  and  O_2
REMARK    2  A    between atoms: O_2  and  C_3
REMARK    3  A    between atoms: C_6  and  C_7
REMARK    4  A    between atoms: C_8  and  C_9
REMARK    5  A    between atoms: N_11  and  CA_12
REMARK    6  A    between atoms: CA_12  and  CB_13
REMARK    7  A    between atoms: CA_12  and  C_14
REMARK    8  A    between atoms: C_14  and  OXT_16
REMARK    9  A    between atoms: C_19  and  C_20
REMARK   10  A    between atoms: C_23  and  O_24
REMARK   11  A    between atoms: C_25  and  O_26
REMARK                            x       y       z     vdW  Elec       q    Type
REMARK                         _______ _______ _______ _____ _____    ______ ____
ROOT
ATOM      1  C   UNK A   0      -0.734  11.197  22.757  0.00  0.00    +0.000 A 
ATOM      2  C   UNK A   0      -0.682   9.813  22.976  0.00  0.00    +0.000 A 
ATOM      3  C   UNK A   0       0.017   8.961  22.115  0.00  0.00    +0.000 A 
ATOM      4  C   UNK A   0       0.684   9.450  20.979  0.00  0.00    +0.000 A 
ATOM      5  C   UNK A   0       0.656  10.844  20.743  0.00  0.00    +0.000 A 
ATOM      6  C   UNK A   0       1.188  11.724  19.757  0.00  0.00    +0.000 A 
ATOM      7  C   UNK A   0       0.787  13.005  20.083  0.00  0.00    +0.000 A 
ATOM      8  O   UNK A   0       0.033  12.966  21.221  0.00  0.00    +0.000 OA
ATOM      9  C   UNK A   0      -0.050  11.661  21.624  0.00  0.00    +0.000 A 
ENDROOT
BRANCH   7  10
ATOM     10  C   UNK A   0       1.005  14.315  19.469  0.00  0.00    +0.000 A 
ATOM     11  C   UNK A   0       2.296  14.828  19.248  0.00  0.00    +0.000 A 
ATOM     12  C   UNK A   0       2.489  16.080  18.649  0.00  0.00    +0.000 A 
ATOM     13  C   UNK A   0       1.385  16.828  18.268  0.00  0.00    +0.000 A 
ATOM     14  C   UNK A   0       0.102  16.334  18.484  0.00  0.00    +0.000 A 
ATOM     15  C   UNK A   0      -0.096  15.095  19.076  0.00  0.00    +0.000 A 
BRANCH  13  16
ATOM     16  O   UNK A   0       1.499  18.055  17.675  0.00  0.00    +0.000 OA
ATOM     17  H   UNK A   0       0.844  18.648  18.084  0.00  0.00    +0.000 HD
ENDBRANCH  13  16
BRANCH  14  18
ATOM     18  O   UNK A   0      -0.987  17.070  18.110  0.00  0.00    +0.000 OA
ATOM     19  H   UNK A   0      -1.612  16.975  18.856  0.00  0.00    +0.000 HD
ENDBRANCH  14  18
ENDBRANCH   7  10
BRANCH   1  21
ATOM     20  C   UNK A   0      -2.815  12.210  23.257  0.00  0.00    +0.000 C 
ATOM     21  O   UNK A   0      -1.425  12.089  23.531  0.00  0.00    +0.000 OA
ENDBRANCH   1  21
BRANCH   4  22
ATOM     22  C   UNK A   0       1.439   8.597  20.054  0.00  0.00    +0.000 C 
ATOM     23  C   UNK A   0       1.849   7.351  20.346  0.00  0.00    +0.000 C 
BRANCH  23  24
ATOM     24  C   UNK A   0       2.604   6.566  19.338  0.00  0.00    +0.000 C 
ATOM     25  O   UNK A   0       2.362   6.609  18.139  0.00  0.00    +0.000 OA
ATOM     26  N   ALA A   1       3.595   5.793  19.884  0.00  0.00    +0.000 N 
ATOM     27  H   ALA A   1       3.758   5.773  20.886  0.00  0.00    +0.000 HD
BRANCH  26  28
ATOM     28  CA  ALA A   1       4.451   4.949  19.059  0.00  0.00    +0.000 C 
ATOM     29  CB  ALA A   1       5.923   5.256  19.301  0.00  0.00    +0.000 C 
BRANCH  28  30
ATOM     30  C   ALA A   1       4.170   3.484  19.402  0.00  0.00    +0.000 C 
ATOM     31  O   ALA A   1       3.048   3.036  19.599  0.00  0.00    +0.000 OA
BRANCH  30  32
ATOM     32  OXT ALA A   1       5.283   2.720  19.503  0.00  0.00    +0.000 OA
ATOM     33  HXT ALA A   1       5.111   1.759  19.549  0.00  0.00    +0.000 HD
ENDBRANCH  30  32
ENDBRANCH  28  30
ENDBRANCH  26  28
ENDBRANCH  23  24
ENDBRANCH   4  22
TORSDOF 9
ENDMDL
MODEL 6
REMARK VINA RESULT:      -7.6      7.419      9.236
REMARK  Name = 
REMARK  11 active torsions:
REMARK  status: ('A' for Active; 'I' for Inactive)
REMARK    1  A    between atoms: C_1  and  O_2
REMARK    2  A    between atoms: O_2  and  C_3
REMARK    3  A    between atoms: C_6  and  C_7
REMARK    4  A    between atoms: C_8  and  C_9
REMARK    5  A    between atoms: N_11  and  CA_12
REMARK    6  A    between atoms: CA_12  and  CB_13
REMARK    7  A    between atoms: CA_12  and  C_14
REMARK    8  A    between atoms: C_14  and  OXT_16
REMARK    9  A    between atoms: C_19  and  C_20
REMARK   10  A    between atoms: C_23  and  O_24
REMARK   11  A    between atoms: C_25  and  O_26
REMARK                            x       y       z     vdW  Elec       q    Type
REMARK                         _______ _______ _______ _____ _____    ______ ____
ROOT
ATOM      1  C   UNK A   0      10.990  14.180  17.430  0.00  0.00    +0.000 A 
ATOM      2  C   UNK A   0      11.808  13.042  17.416  0.00  0.00    +0.000 A 
ATOM      3  C   UNK A   0      11.300  11.770  17.701  0.00  0.00    +0.000 A 
ATOM      4  C   UNK A   0       9.949  11.577  18.035  0.00  0.00    +0.000 A 
ATOM      5  C   UNK A   0       9.100  12.707  18.043  0.00  0.00    +0.000 A 
ATOM      6  C   UNK A   0       7.720  12.946  18.302  0.00  0.00    +0.000 A 
ATOM      7  C   UNK A   0       7.498  14.302  18.158  0.00  0.00    +0.000 A 
ATOM      8  O   UNK A   0       8.671  14.918  17.823  0.00  0.00    +0.000 OA
ATOM      9  C   UNK A   0       9.643  13.958  17.752  0.00  0.00    +0.000 A 
ENDROOT
BRANCH   7  10
ATOM     10  C   UNK A   0       6.313  15.148  18.294  0.00  0.00    +0.000 A 
ATOM     11  C   UNK A   0       5.077  14.797  17.722  0.00  0.00    +0.000 A 
ATOM     12  C   UNK A   0       3.947  15.613  17.870  0.00  0.00    +0.000 A 
ATOM     13  C   UNK A   0       4.051  16.791  18.595  0.00  0.00    +0.000 A 
ATOM     14  C   UNK A   0       5.268  17.153  19.163  0.00  0.00    +0.000 A 
ATOM     15  C   UNK A   0       6.390  16.349  19.021  0.00  0.00    +0.000 A 
BRANCH  13  16
ATOM     16  O   UNK A   0       2.990  17.632  18.783  0.00  0.00    +0.000 OA
ATOM     17  H   UNK A   0       2.173  17.115  18.668  0.00  0.00    +0.000 HD
ENDBRANCH  13  16
BRANCH  14  18
ATOM     18  O   UNK A   0       5.372  18.314  19.877  0.00  0.00    +0.000 OA
ATOM     19  H   UNK A   0       5.394  18.025  20.810  0.00  0.00    +0.000 HD
ENDBRANCH  14  18
ENDBRANCH   7  10
BRANCH   1  21
ATOM     20  C   UNK A   0      12.246  16.033  18.202  0.00  0.00    +0.000 C 
ATOM     21  O   UNK A   0      11.418  15.459  17.198  0.00  0.00    +0.000 OA
ENDBRANCH   1  21
BRANCH   4  22
ATOM     22  C   UNK A   0       9.369  10.261  18.330  0.00  0.00    +0.000 C 
ATOM     23  C   UNK A   0       8.552   9.596  17.496  0.00  0.00    +0.000 C 
BRANCH  23  24
ATOM     24  C   UNK A   0       8.021   8.267  17.887  0.00  0.00    +0.000 C 
ATOM     25  O   UNK A   0       8.460   7.621  18.830  0.00  0.00    +0.000 OA
ATOM     26  N   ALA A   1       6.994   7.838  17.088  0.00  0.00    +0.000 N 
ATOM     27  H   ALA A   1       6.664   8.395  16.305  0.00  0.00    +0.000 HD
BRANCH  26  28
ATOM     28  CA  ALA A   1       6.335   6.556  17.309  0.00  0.00    +0.000 C 
ATOM     29  CB  ALA A   1       4.827   6.677  17.145  0.00  0.00    +0.000 C 
BRANCH  28  30
ATOM     30  C   ALA A   1       6.881   5.545  16.298  0.00  0.00    +0.000 C 
ATOM     31  O   ALA A   1       7.642   4.632  16.593  0.00  0.00    +0.000 OA
BRANCH  30  32
ATOM     32  OXT ALA A   1       6.473   5.764  15.026  0.00  0.00    +0.000 OA
ATOM     33  HXT ALA A   1       7.060   6.349  14.508  0.00  0.00    +0.000 HD
ENDBRANCH  30  32
ENDBRANCH  28  30
ENDBRANCH  26  28
ENDBRANCH  23  24
ENDBRANCH   4  22
TORSDOF 9
ENDMDL
MODEL 7
REMARK VINA RESULT:      -7.5      8.044      9.422
REMARK  Name = 
REMARK  11 active torsions:
REMARK  status: ('A' for Active; 'I' for Inactive)
REMARK    1  A    between atoms: C_1  and  O_2
REMARK    2  A    between atoms: O_2  and  C_3
REMARK    3  A    between atoms: C_6  and  C_7
REMARK    4  A    between atoms: C_8  and  C_9
REMARK    5  A    between atoms: N_11  and  CA_12
REMARK    6  A    between atoms: CA_12  and  CB_13
REMARK    7  A    between atoms: CA_12  and  C_14
REMARK    8  A    between atoms: C_14  and  OXT_16
REMARK    9  A    between atoms: C_19  and  C_20
REMARK   10  A    between atoms: C_23  and  O_24
REMARK   11  A    between atoms: C_25  and  O_26
REMARK                            x       y       z     vdW  Elec       q    Type
REMARK                         _______ _______ _______ _____ _____    ______ ____
ROOT
ATOM      1  C   UNK A   0      10.526  13.680  18.925  0.00  0.00    +0.000 A 
ATOM      2  C   UNK A   0      10.658  12.897  17.770  0.00  0.00    +0.000 A 
ATOM      3  C   UNK A   0      10.206  11.574  17.725  0.00  0.00    +0.000 A 
ATOM      4  C   UNK A   0       9.615  10.962  18.843  0.00  0.00    +0.000 A 
ATOM      5  C   UNK A   0       9.458  11.735  20.016  0.00  0.00    +0.000 A 
ATOM      6  C   UNK A   0       8.921  11.519  21.318  0.00  0.00    +0.000 A 
ATOM      7  C   UNK A   0       9.080  12.689  22.034  0.00  0.00    +0.000 A 
ATOM      8  O   UNK A   0       9.690  13.622  21.243  0.00  0.00    +0.000 OA
ATOM      9  C   UNK A   0       9.921  13.050  20.022  0.00  0.00    +0.000 A 
ENDROOT
BRANCH   7  10
ATOM     10  C   UNK A   0       8.741  13.088  23.399  0.00  0.00    +0.000 A 
ATOM     11  C   UNK A   0       8.408  12.146  24.389  0.00  0.00    +0.000 A 
ATOM     12  C   UNK A   0       8.096  12.543  25.697  0.00  0.00    +0.000 A 
ATOM     13  C   UNK A   0       8.116  13.892  26.020  0.00  0.00    +0.000 A 
ATOM     14  C   UNK A   0       8.441  14.835  25.050  0.00  0.00    +0.000 A 
ATOM     15  C   UNK A   0       8.751  14.448  23.754  0.00  0.00    +0.000 A 
BRANCH  13  16
ATOM     16  O   UNK A   0       7.826  14.350  27.275  0.00  0.00    +0.000 OA
ATOM     17  H   UNK A   0       6.926  14.718  27.261  0.00  0.00    +0.000 HD
ENDBRANCH  13  16
BRANCH  14  18
ATOM     18  O   UNK A   0       8.460  16.164  25.366  0.00  0.00    +0.000 OA
ATOM     19  H   UNK A   0       8.202  16.194  26.308  0.00  0.00    +0.000 HD
ENDBRANCH  14  18
ENDBRANCH   7  10
BRANCH   1  21
ATOM     20  C   UNK A   0      12.269  15.120  19.628  0.00  0.00    +0.000 C 
ATOM     21  O   UNK A   0      10.975  14.966  19.059  0.00  0.00    +0.000 OA
ENDBRANCH   1  21
BRANCH   4  22
ATOM     22  C   UNK A   0       9.115   9.582  18.839  0.00  0.00    +0.000 C 
ATOM     23  C   UNK A   0       8.233   9.105  17.945  0.00  0.00    +0.000 C 
BRANCH  23  24
ATOM     24  C   UNK A   0       7.792   7.690  18.024  0.00  0.00    +0.000 C 
ATOM     25  O   UNK A   0       8.288   6.877  18.794  0.00  0.00    +0.000 OA
ATOM     26  N   ALA A   1       6.779   7.388  17.153  0.00  0.00    +0.000 N 
ATOM     27  H   ALA A   1       6.401   8.086  16.519  0.00  0.00    +0.000 HD
BRANCH  26  28
ATOM     28  CA  ALA A   1       6.205   6.050  17.079  0.00  0.00    +0.000 C 
ATOM     29  CB  ALA A   1       5.178   5.830  18.181  0.00  0.00    +0.000 C 
BRANCH  28  30
ATOM     30  C   ALA A   1       5.536   5.880  15.713  0.00  0.00    +0.000 C 
ATOM     31  O   ALA A   1       5.229   6.816  14.986  0.00  0.00    +0.000 OA
BRANCH  30  32
ATOM     32  OXT ALA A   1       5.278   4.593  15.383  0.00  0.00    +0.000 OA
ATOM     33  HXT ALA A   1       5.929   3.949  15.724  0.00  0.00    +0.000 HD
ENDBRANCH  30  32
ENDBRANCH  28  30
ENDBRANCH  26  28
ENDBRANCH  23  24
ENDBRANCH   4  22
TORSDOF 9
ENDMDL
MODEL 8
REMARK VINA RESULT:      -7.5      2.578      8.505
REMARK  Name = 
REMARK  11 active torsions:
REMARK  status: ('A' for Active; 'I' for Inactive)
REMARK    1  A    between atoms: C_1  and  O_2
REMARK    2  A    between atoms: O_2  and  C_3
REMARK    3  A    between atoms: C_6  and  C_7
REMARK    4  A    between atoms: C_8  and  C_9
REMARK    5  A    between atoms: N_11  and  CA_12
REMARK    6  A    between atoms: CA_12  and  CB_13
REMARK    7  A    between atoms: CA_12  and  C_14
REMARK    8  A    between atoms: C_14  and  OXT_16
REMARK    9  A    between atoms: C_19  and  C_20
REMARK   10  A    between atoms: C_23  and  O_24
REMARK   11  A    between atoms: C_25  and  O_26
REMARK                            x       y       z     vdW  Elec       q    Type
REMARK                         _______ _______ _______ _____ _____    ______ ____
ROOT
ATOM      1  C   UNK A   0       2.618   3.595  19.908  0.00  0.00    +0.000 A 
ATOM      2  C   UNK A   0       1.752   4.149  20.861  0.00  0.00    +0.000 A 
ATOM      3  C   UNK A   0       1.502   5.524  20.912  0.00  0.00    +0.000 A 
ATOM      4  C   UNK A   0       2.122   6.417  20.022  0.00  0.00    +0.000 A 
ATOM      5  C   UNK A   0       2.991   5.881  19.043  0.00  0.00    +0.000 A 
ATOM      6  C   UNK A   0       3.782   6.406  17.982  0.00  0.00    +0.000 A 
ATOM      7  C   UNK A   0       4.433   5.346  17.383  0.00  0.00    +0.000 A 
ATOM      8  O   UNK A   0       4.086   4.187  18.018  0.00  0.00    +0.000 OA
ATOM      9  C   UNK A   0       3.214   4.505  19.023  0.00  0.00    +0.000 A 
ENDROOT
BRANCH   7  10
ATOM     10  C   UNK A   0       5.370   5.241  16.265  0.00  0.00    +0.000 A 
ATOM     11  C   UNK A   0       6.528   6.036  16.187  0.00  0.00    +0.000 A 
ATOM     12  C   UNK A   0       7.423   5.916  15.115  0.00  0.00    +0.000 A 
ATOM     13  C   UNK A   0       7.160   4.996  14.110  0.00  0.00    +0.000 A 
ATOM     14  C   UNK A   0       6.017   4.205  14.173  0.00  0.00    +0.000 A 
ATOM     15  C   UNK A   0       5.128   4.319  15.232  0.00  0.00    +0.000 A 
BRANCH  13  16
ATOM     16  O   UNK A   0       7.991   4.823  13.038  0.00  0.00    +0.000 OA
ATOM     17  H   UNK A   0       7.448   4.847  12.231  0.00  0.00    +0.000 HD
ENDBRANCH  13  16
BRANCH  14  18
ATOM     18  O   UNK A   0       5.756   3.299  13.184  0.00  0.00    +0.000 OA
ATOM     19  H   UNK A   0       5.682   3.839  12.373  0.00  0.00    +0.000 HD
ENDBRANCH  14  18
ENDBRANCH   7  10
BRANCH   1  21
ATOM     20  C   UNK A   0       2.480   1.590  18.655  0.00  0.00    +0.000 C 
ATOM     21  O   UNK A   0       2.941   2.268  19.817  0.00  0.00    +0.000 OA
ENDBRANCH   1  21
BRANCH   4  22
ATOM     22  C   UNK A   0       1.882   7.865  20.029  0.00  0.00    +0.000 C 
ATOM     23  C   UNK A   0       1.012   8.477  20.850  0.00  0.00    +0.000 C 
BRANCH  23  24
ATOM     24  C   UNK A   0       0.845   9.950  20.782  0.00  0.00    +0.000 C 
ATOM     25  O   UNK A   0       1.177  10.704  21.689  0.00  0.00    +0.000 OA
ATOM     26  N   ALA A   1       0.284  10.380  19.608  0.00  0.00    +0.000 N 
ATOM     27  H   ALA A   1       0.009   9.724  18.883  0.00  0.00    +0.000 HD
BRANCH  26  28
ATOM     28  CA  ALA A   1       0.039  11.793  19.347  0.00  0.00    +0.000 C 
ATOM     29  CB  ALA A   1       1.224  12.436  18.641  0.00  0.00    +0.000 C 
BRANCH  28  30
ATOM     30  C   ALA A   1      -1.210  11.918  18.471  0.00  0.00    +0.000 C 
ATOM     31  O   ALA A   1      -2.243  11.291  18.666  0.00  0.00    +0.000 OA
BRANCH  30  32
ATOM     32  OXT ALA A   1      -1.066  12.770  17.428  0.00  0.00    +0.000 OA
ATOM     33  HXT ALA A   1      -0.485  12.442  16.714  0.00  0.00    +0.000 HD
ENDBRANCH  30  32
ENDBRANCH  28  30
ENDBRANCH  26  28
ENDBRANCH  23  24
ENDBRANCH   4  22
TORSDOF 9
ENDMDL
MODEL 9
REMARK VINA RESULT:      -7.4      3.771      7.053
REMARK  Name = 
REMARK  11 active torsions:
REMARK  status: ('A' for Active; 'I' for Inactive)
REMARK    1  A    between atoms: C_1  and  O_2
REMARK    2  A    between atoms: O_2  and  C_3
REMARK    3  A    between atoms: C_6  and  C_7
REMARK    4  A    between atoms: C_8  and  C_9
REMARK    5  A    between atoms: N_11  and  CA_12
REMARK    6  A    between atoms: CA_12  and  CB_13
REMARK    7  A    between atoms: CA_12  and  C_14
REMARK    8  A    between atoms: C_14  and  OXT_16
REMARK    9  A    between atoms: C_19  and  C_20
REMARK   10  A    between atoms: C_23  and  O_24
REMARK   11  A    between atoms: C_25  and  O_26
REMARK                            x       y       z     vdW  Elec       q    Type
REMARK                         _______ _______ _______ _____ _____    ______ ____
ROOT
ATOM      1  C   UNK A   0      -0.527  11.028  22.591  0.00  0.00    +0.000 A 
ATOM      2  C   UNK A   0      -0.652   9.661  22.872  0.00  0.00    +0.000 A 
ATOM      3  C   UNK A   0      -0.018   8.690  22.089  0.00  0.00    +0.000 A 
ATOM      4  C   UNK A   0       0.759   9.041  20.972  0.00  0.00    +0.000 A 
ATOM      5  C   UNK A   0       0.911  10.415  20.675  0.00  0.00    +0.000 A 
ATOM      6  C   UNK A   0       1.594  11.176  19.684  0.00  0.00    +0.000 A 
ATOM      7  C   UNK A   0       1.334  12.510  19.931  0.00  0.00    +0.000 A 
ATOM      8  O   UNK A   0       0.524  12.616  21.026  0.00  0.00    +0.000 OA
ATOM      9  C   UNK A   0       0.265  11.352  21.479  0.00  0.00    +0.000 A 
ENDROOT
BRANCH   7  10
ATOM     10  C   UNK A   0       1.738  13.754  19.275  0.00  0.00    +0.000 A 
ATOM     11  C   UNK A   0       2.889  13.831  18.471  0.00  0.00    +0.000 A 
ATOM     12  C   UNK A   0       3.258  15.026  17.839  0.00  0.00    +0.000 A 
ATOM     13  C   UNK A   0       2.472  16.156  18.013  0.00  0.00    +0.000 A 
ATOM     14  C   UNK A   0       1.333  16.095  18.809  0.00  0.00    +0.000 A 
ATOM     15  C   UNK A   0       0.962  14.914  19.436  0.00  0.00    +0.000 A 
BRANCH  13  16
ATOM     16  O   UNK A   0       2.769  17.354  17.424  0.00  0.00    +0.000 OA
ATOM     17  H   UNK A   0       1.943  17.728  17.071  0.00  0.00    +0.000 HD
ENDBRANCH  13  16
BRANCH  14  18
ATOM     18  O   UNK A   0       0.558  17.208  18.982  0.00  0.00    +0.000 OA
ATOM     19  H   UNK A   0       1.156  17.954  18.783  0.00  0.00    +0.000 HD
ENDBRANCH  14  18
ENDBRANCH   7  10
BRANCH   1  21
ATOM     20  C   UNK A   0      -2.529  12.217  23.021  0.00  0.00    +0.000 C 
ATOM     21  O   UNK A   0      -1.143  12.033  23.286  0.00  0.00    +0.000 OA
ENDBRANCH   1  21
BRANCH   4  22
ATOM     22  C   UNK A   0       1.452   8.060  20.128  0.00  0.00    +0.000 C 
ATOM     23  C   UNK A   0       1.686   6.788  20.493  0.00  0.00    +0.000 C 
BRANCH  23  24
ATOM     24  C   UNK A   0       2.393   5.872  19.564  0.00  0.00    +0.000 C 
ATOM     25  O   UNK A   0       1.898   4.833  19.144  0.00  0.00    +0.000 OA
ATOM     26  N   ALA A   1       3.648   6.304  19.225  0.00  0.00    +0.000 N 
ATOM     27  H   ALA A   1       4.031   7.165  19.604  0.00  0.00    +0.000 HD
BRANCH  26  28
ATOM     28  CA  ALA A   1       4.503   5.543  18.321  0.00  0.00    +0.000 C 
ATOM     29  CB  ALA A   1       5.188   6.456  17.314  0.00  0.00    +0.000 C 
BRANCH  28  30
ATOM     30  C   ALA A   1       5.560   4.810  19.149  0.00  0.00    +0.000 C 
ATOM     31  O   ALA A   1       6.467   5.374  19.746  0.00  0.00    +0.000 OA
BRANCH  30  32
ATOM     32  OXT ALA A   1       5.426   3.462  19.143  0.00  0.00    +0.000 OA
ATOM     33  HXT ALA A   1       4.569   3.142  18.800  0.00  0.00    +0.000 HD
ENDBRANCH  30  32
ENDBRANCH  28  30
ENDBRANCH  26  28
ENDBRANCH  23  24
ENDBRANCH   4  22
TORSDOF 9
ENDMDL
