MODEL 1
REMARK VINA RESULT:      -8.4      0.000      0.000
REMARK  Name = 
REMARK  12 active torsions:
REMARK  status: ('A' for Active; 'I' for Inactive)
REMARK    1  A    between atoms: C_1  and  C_2
REMARK    2  A    between atoms: C_5  and  C_6
REMARK    3  A    between atoms: C_6  and  C_7
REMARK    4  A    between atoms: C_6  and  C_23
REMARK    5  A    between atoms: C_7  and  C_8
REMARK    6  A    between atoms: C_8  and  C_9
REMARK    7  A    between atoms: C_9  and  C_10
REMARK    8  A    between atoms: C_10  and  C_11
REMARK    9  A    between atoms: C_11  and  C_12
REMARK   10  A    between atoms: C_12  and  C_13
REMARK   11  A    between atoms: C_23  and  C_24
REMARK   12  A    between atoms: C_24  and  O_26
REMARK                            x       y       z     vdW  Elec       q    Type
REMARK                         _______ _______ _______ _____ _____    ______ ____
ROOT
ATOM      1  C   UNL     1       6.636   6.649  17.678  0.00  0.00    +0.000 C 
ENDROOT
BRANCH   1   2
ATOM      2  C   UNL     1       5.298   6.617  16.927  0.00  0.00    +0.000 C 
BRANCH   2   3
ATOM      3  C   UNL     1       4.884   5.209  16.435  0.00  0.00    +0.000 C 
BRANCH   3   8
ATOM      4  C   UNL     1       0.985   3.051  20.048  0.00  0.00    +0.000 C 
ATOM      5  C   UNL     1       2.017   3.595  19.112  0.00  0.00    +0.000 A 
ATOM      6  N   UNL     1       1.850   3.377  17.795  0.00  0.00    +0.000 NA
ATOM      7  C   UNL     1       2.791   3.888  16.974  0.00  0.00    +0.000 A 
ATOM      8  C   UNL     1       3.882   4.616  17.406  0.00  0.00    +0.000 A 
ATOM      9  C   UNL     1       3.959   4.758  18.780  0.00  0.00    +0.000 A 
ATOM     10  N   UNL     1       3.056   4.263  19.647  0.00  0.00    +0.000 NA
ENDBRANCH   3   8
BRANCH   3  11
ATOM     11  C   UNL     1       6.117   4.307  16.247  0.00  0.00    +0.000 C 
BRANCH  11  12
ATOM     12  C   UNL     1       6.741   4.434  14.882  0.00  0.00    +0.000 C 
ATOM     13  O   UNL     1       7.552   5.292  14.565  0.00  0.00    +0.000 OA
BRANCH  12  14
ATOM     14  O   UNL     1       6.368   3.439  14.046  0.00  0.00    +0.000 OA
ATOM     15  H   UNL     1       6.184   3.723  13.132  0.00  0.00    +0.000 HD
ENDBRANCH  12  14
ENDBRANCH  11  12
ENDBRANCH   3  11
ENDBRANCH   2   3
ENDBRANCH   1   2
BRANCH   1  16
ATOM     16  C   UNL     1       7.553   7.779  17.213  0.00  0.00    +0.000 C 
BRANCH  16  17
ATOM     17  C   UNL     1       8.344   8.421  18.359  0.00  0.00    +0.000 C 
BRANCH  17  18
ATOM     18  C   UNL     1       8.575   9.919  18.162  0.00  0.00    +0.000 C 
BRANCH  18  19
ATOM     19  C   UNL     1       9.550  10.488  19.193  0.00  0.00    +0.000 C 
BRANCH  19  20
ATOM     20  C   UNL     1      10.231  11.727  18.690  0.00  0.00    +0.000 A 
ATOM     21  C   UNL     1      11.615  11.786  18.599  0.00  0.00    +0.000 A 
ATOM     22  C   UNL     1      12.195  12.962  18.145  0.00  0.00    +0.000 A 
ATOM     23  C   UNL     1      11.379  14.035  17.785  0.00  0.00    +0.000 A 
ATOM     24  C   UNL     1       9.996  13.886  17.894  0.00  0.00    +0.000 A 
ATOM     25  N   UNL     1       9.423  12.756  18.338  0.00  0.00    +0.000 NA
ATOM     26  N   UNL     1       9.126  14.893  17.503  0.00  0.00    +0.000 N 
ATOM     27  C   UNL     1       9.645  16.242  17.548  0.00  0.00    +0.000 C 
ATOM     28  C   UNL     1      10.946  16.291  16.755  0.00  0.00    +0.000 C 
ATOM     29  C   UNL     1      11.977  15.354  17.380  0.00  0.00    +0.000 C 
ATOM     30  H   UNL     1       8.200  14.707  17.872  0.00  0.00    +0.000 HD
ENDBRANCH  19  20
ENDBRANCH  18  19
ENDBRANCH  17  18
ENDBRANCH  16  17
ENDBRANCH   1  16
TORSDOF 11
ENDMDL
MODEL 2
REMARK VINA RESULT:      -8.2      1.214      1.782
REMARK  Name = 
REMARK  12 active torsions:
REMARK  status: ('A' for Active; 'I' for Inactive)
REMARK    1  A    between atoms: C_1  and  C_2
REMARK    2  A    between atoms: C_5  and  C_6
REMARK    3  A    between atoms: C_6  and  C_7
REMARK    4  A    between atoms: C_6  and  C_23
REMARK    5  A    between atoms: C_7  and  C_8
REMARK    6  A    between atoms: C_8  and  C_9
REMARK    7  A    between atoms: C_9  and  C_10
REMARK    8  A    between atoms: C_10  and  C_11
REMARK    9  A    between atoms: C_11  and  C_12
REMARK   10  A    between atoms: C_12  and  C_13
REMARK   11  A    between atoms: C_23  and  C_24
REMARK   12  A    between atoms: C_24  and  O_26
REMARK                            x       y       z     vdW  Elec       q    Type
REMARK                         _______ _______ _______ _____ _____    ______ ____
ROOT
ATOM      1  C   UNL     1       5.263   6.780  17.476  0.00  0.00    +0.000 C 
ENDROOT
BRANCH   1   2
ATOM      2  C   UNL     1       4.668   6.105  16.233  0.00  0.00    +0.000 C 
BRANCH   2   3
ATOM      3  C   UNL     1       4.706   4.559  16.275  0.00  0.00    +0.000 C 
BRANCH   3   8
ATOM      4  C   UNL     1       2.350   2.890  21.232  0.00  0.00    +0.000 C 
ATOM      5  C   UNL     1       2.965   3.300  19.931  0.00  0.00    +0.000 A 
ATOM      6  N   UNL     1       2.158   3.820  18.990  0.00  0.00    +0.000 NA
ATOM      7  C   UNL     1       2.742   4.192  17.831  0.00  0.00    +0.000 A 
ATOM      8  C   UNL     1       4.095   4.080  17.577  0.00  0.00    +0.000 A 
ATOM      9  C   UNL     1       4.820   3.514  18.609  0.00  0.00    +0.000 A 
ATOM     10  N   UNL     1       4.290   3.117  19.782  0.00  0.00    +0.000 NA
ENDBRANCH   3   8
BRANCH   3  11
ATOM     11  C   UNL     1       6.142   4.038  16.079  0.00  0.00    +0.000 C 
BRANCH  11  12
ATOM     12  C   UNL     1       6.706   4.355  14.718  0.00  0.00    +0.000 C 
ATOM     13  O   UNL     1       6.268   3.916  13.665  0.00  0.00    +0.000 OA
BRANCH  12  14
ATOM     14  O   UNL     1       7.714   5.253  14.771  0.00  0.00    +0.000 OA
ATOM     15  H   UNL     1       7.442   6.179  14.633  0.00  0.00    +0.000 HD
ENDBRANCH  12  14
ENDBRANCH  11  12
ENDBRANCH   3  11
ENDBRANCH   2   3
ENDBRANCH   1   2
BRANCH   1  16
ATOM     16  C   UNL     1       6.615   7.438  17.208  0.00  0.00    +0.000 C 
BRANCH  16  17
ATOM     17  C   UNL     1       7.713   6.971  18.172  0.00  0.00    +0.000 C 
BRANCH  17  18
ATOM     18  C   UNL     1       8.586   8.115  18.686  0.00  0.00    +0.000 C 
BRANCH  18  19
ATOM     19  C   UNL     1       8.274   9.435  17.981  0.00  0.00    +0.000 C 
BRANCH  19  20
ATOM     20  C   UNL     1       9.050  10.577  18.568  0.00  0.00    +0.000 A 
ATOM     21  C   UNL     1       9.567  10.493  19.854  0.00  0.00    +0.000 A 
ATOM     22  C   UNL     1      10.261  11.585  20.356  0.00  0.00    +0.000 A 
ATOM     23  C   UNL     1      10.429  12.717  19.559  0.00  0.00    +0.000 A 
ATOM     24  C   UNL     1       9.890  12.712  18.271  0.00  0.00    +0.000 A 
ATOM     25  N   UNL     1       9.210  11.665  17.777  0.00  0.00    +0.000 NA
ATOM     26  N   UNL     1      10.066  13.782  17.408  0.00  0.00    +0.000 N 
ATOM     27  C   UNL     1      10.281  15.074  18.023  0.00  0.00    +0.000 C 
ATOM     28  C   UNL     1      11.438  14.958  19.009  0.00  0.00    +0.000 C 
ATOM     29  C   UNL     1      11.094  13.951  20.105  0.00  0.00    +0.000 C 
ATOM     30  H   UNL     1       9.418  13.706  16.632  0.00  0.00    +0.000 HD
ENDBRANCH  19  20
ENDBRANCH  18  19
ENDBRANCH  17  18
ENDBRANCH  16  17
ENDBRANCH   1  16
TORSDOF 11
ENDMDL
MODEL 3
REMARK VINA RESULT:      -8.0      4.265      7.760
REMARK  Name = 
REMARK  12 active torsions:
REMARK  status: ('A' for Active; 'I' for Inactive)
REMARK    1  A    between atoms: C_1  and  C_2
REMARK    2  A    between atoms: C_5  and  C_6
REMARK    3  A    between atoms: C_6  and  C_7
REMARK    4  A    between atoms: C_6  and  C_23
REMARK    5  A    between atoms: C_7  and  C_8
REMARK    6  A    between atoms: C_8  and  C_9
REMARK    7  A    between atoms: C_9  and  C_10
REMARK    8  A    between atoms: C_10  and  C_11
REMARK    9  A    between atoms: C_11  and  C_12
REMARK   10  A    between atoms: C_12  and  C_13
REMARK   11  A    between atoms: C_23  and  C_24
REMARK   12  A    between atoms: C_24  and  O_26
REMARK                            x       y       z     vdW  Elec       q    Type
REMARK                         _______ _______ _______ _____ _____    ______ ____
ROOT
ATOM      1  C   UNL     1       4.012   2.678  17.711  0.00  0.00    +0.000 C 
ENDROOT
BRANCH   1   2
ATOM      2  C   UNL     1       4.091   3.970  16.887  0.00  0.00    +0.000 C 
BRANCH   2   3
ATOM      3  C   UNL     1       5.414   4.138  16.102  0.00  0.00    +0.000 C 
BRANCH   3   8
ATOM      4  C   UNL     1       8.447   8.302  18.625  0.00  0.00    +0.000 C 
ATOM      5  C   UNL     1       7.671   7.218  17.947  0.00  0.00    +0.000 A 
ATOM      6  N   UNL     1       7.900   5.948  18.326  0.00  0.00    +0.000 NA
ATOM      7  C   UNL     1       7.179   4.992  17.705  0.00  0.00    +0.000 A 
ATOM      8  C   UNL     1       6.231   5.247  16.733  0.00  0.00    +0.000 A 
ATOM      9  C   UNL     1       6.097   6.585  16.412  0.00  0.00    +0.000 A 
ATOM     10  N   UNL     1       6.795   7.581  16.991  0.00  0.00    +0.000 NA
ENDBRANCH   3   8
BRANCH   3  11
ATOM     11  C   UNL     1       5.139   4.394  14.609  0.00  0.00    +0.000 C 
BRANCH  11  12
ATOM     12  C   UNL     1       6.362   4.227  13.745  0.00  0.00    +0.000 C 
ATOM     13  O   UNL     1       7.266   5.045  13.655  0.00  0.00    +0.000 OA
BRANCH  12  14
ATOM     14  O   UNL     1       6.402   3.025  13.127  0.00  0.00    +0.000 OA
ATOM     15  H   UNL     1       6.881   2.332  13.617  0.00  0.00    +0.000 HD
ENDBRANCH  12  14
ENDBRANCH  11  12
ENDBRANCH   3  11
ENDBRANCH   2   3
ENDBRANCH   1   2
BRANCH   1  16
ATOM     16  C   UNL     1       3.431   2.895  19.107  0.00  0.00    +0.000 C 
BRANCH  16  17
ATOM     17  C   UNL     1       1.908   3.076  19.103  0.00  0.00    +0.000 C 
BRANCH  17  18
ATOM     18  C   UNL     1       1.436   4.208  20.015  0.00  0.00    +0.000 C 
BRANCH  18  19
ATOM     19  C   UNL     1       2.561   5.193  20.335  0.00  0.00    +0.000 C 
BRANCH  19  20
ATOM     20  C   UNL     1       2.325   6.532  19.702  0.00  0.00    +0.000 A 
ATOM     21  C   UNL     1       2.802   6.806  18.427  0.00  0.00    +0.000 A 
ATOM     22  C   UNL     1       2.573   8.067  17.895  0.00  0.00    +0.000 A 
ATOM     23  C   UNL     1       1.865   9.008  18.644  0.00  0.00    +0.000 A 
ATOM     24  C   UNL     1       1.407   8.645  19.911  0.00  0.00    +0.000 A 
ATOM     25  N   UNL     1       1.629   7.431  20.439  0.00  0.00    +0.000 NA
ATOM     26  N   UNL     1       0.652   9.513  20.685  0.00  0.00    +0.000 N 
ATOM     27  C   UNL     1       0.845  10.925  20.438  0.00  0.00    +0.000 C 
ATOM     28  C   UNL     1       0.648  11.192  18.949  0.00  0.00    +0.000 C 
ATOM     29  C   UNL     1       1.680  10.412  18.137  0.00  0.00    +0.000 C 
ATOM     30  H   UNL     1       0.620   9.179  21.641  0.00  0.00    +0.000 HD
ENDBRANCH  19  20
ENDBRANCH  18  19
ENDBRANCH  17  18
ENDBRANCH  16  17
ENDBRANCH   1  16
TORSDOF 11
ENDMDL
MODEL 4
REMARK VINA RESULT:      -8.0      1.355      1.692
REMARK  Name = 
REMARK  12 active torsions:
REMARK  status: ('A' for Active; 'I' for Inactive)
REMARK    1  A    between atoms: C_1  and  C_2
REMARK    2  A    between atoms: C_5  and  C_6
REMARK    3  A    between atoms: C_6  and  C_7
REMARK    4  A    between atoms: C_6  and  C_23
REMARK    5  A    between atoms: C_7  and  C_8
REMARK    6  A    between atoms: C_8  and  C_9
REMARK    7  A    between atoms: C_9  and  C_10
REMARK    8  A    between atoms: C_10  and  C_11
REMARK    9  A    between atoms: C_11  and  C_12
REMARK   10  A    between atoms: C_12  and  C_13
REMARK   11  A    between atoms: C_23  and  C_24
REMARK   12  A    between atoms: C_24  and  O_26
REMARK                            x       y       z     vdW  Elec       q    Type
REMARK                         _______ _______ _______ _____ _____    ______ ____
ROOT
ATOM      1  C   UNL     1       7.844   6.579  18.509  0.00  0.00    +0.000 C 
ENDROOT
BRANCH   1   2
ATOM      2  C   UNL     1       7.504   5.182  17.973  0.00  0.00    +0.000 C 
BRANCH   2   3
ATOM      3  C   UNL     1       6.235   5.136  17.090  0.00  0.00    +0.000 C 
BRANCH   3   8
ATOM      4  C   UNL     1       1.645   4.949  20.527  0.00  0.00    +0.000 C 
ATOM      5  C   UNL     1       2.831   4.980  19.615  0.00  0.00    +0.000 A 
ATOM      6  N   UNL     1       2.938   6.009  18.756  0.00  0.00    +0.000 NA
ATOM      7  C   UNL     1       4.023   6.017  17.954  0.00  0.00    +0.000 A 
ATOM      8  C   UNL     1       5.011   5.052  17.981  0.00  0.00    +0.000 A 
ATOM      9  C   UNL     1       4.783   4.035  18.889  0.00  0.00    +0.000 A 
ATOM     10  N   UNL     1       3.716   3.970  19.707  0.00  0.00    +0.000 NA
ENDBRANCH   3   8
BRANCH   3  11
ATOM     11  C   UNL     1       6.304   3.972  16.085  0.00  0.00    +0.000 C 
BRANCH  11  12
ATOM     12  C   UNL     1       6.600   4.422  14.678  0.00  0.00    +0.000 C 
ATOM     13  O   UNL     1       6.001   4.037  13.685  0.00  0.00    +0.000 OA
BRANCH  12  14
ATOM     14  O   UNL     1       7.559   5.374  14.628  0.00  0.00    +0.000 OA
ATOM     15  H   UNL     1       7.974   5.578  15.486  0.00  0.00    +0.000 HD
ENDBRANCH  12  14
ENDBRANCH  11  12
ENDBRANCH   3  11
ENDBRANCH   2   3
ENDBRANCH   1   2
BRANCH   1  16
ATOM     16  C   UNL     1       7.915   7.638  17.411  0.00  0.00    +0.000 C 
BRANCH  16  17
ATOM     17  C   UNL     1       7.620   9.054  17.920  0.00  0.00    +0.000 C 
BRANCH  17  18
ATOM     18  C   UNL     1       8.844   9.969  17.891  0.00  0.00    +0.000 C 
BRANCH  18  19
ATOM     19  C   UNL     1       9.311  10.345  19.298  0.00  0.00    +0.000 C 
BRANCH  19  20
ATOM     20  C   UNL     1      10.001  11.677  19.317  0.00  0.00    +0.000 A 
ATOM     21  C   UNL     1      10.475  12.210  20.509  0.00  0.00    +0.000 A 
ATOM     22  C   UNL     1      11.089  13.454  20.474  0.00  0.00    +0.000 A 
ATOM     23  C   UNL     1      11.223  14.120  19.255  0.00  0.00    +0.000 A 
ATOM     24  C   UNL     1      10.731  13.505  18.102  0.00  0.00    +0.000 A 
ATOM     25  N   UNL     1      10.129  12.305  18.124  0.00  0.00    +0.000 NA
ATOM     26  N   UNL     1      10.879  14.086  16.853  0.00  0.00    +0.000 N 
ATOM     27  C   UNL     1      11.000  15.527  16.825  0.00  0.00    +0.000 C 
ATOM     28  C   UNL     1      12.124  15.941  17.768  0.00  0.00    +0.000 C 
ATOM     29  C   UNL     1      11.797  15.508  19.196  0.00  0.00    +0.000 C 
ATOM     30  H   UNL     1      10.265  13.630  16.188  0.00  0.00    +0.000 HD
ENDBRANCH  19  20
ENDBRANCH  18  19
ENDBRANCH  17  18
ENDBRANCH  16  17
ENDBRANCH   1  16
TORSDOF 11
ENDMDL
MODEL 5
REMARK VINA RESULT:      -7.8      5.466      8.513
REMARK  Name = 
REMARK  12 active torsions:
REMARK  status: ('A' for Active; 'I' for Inactive)
REMARK    1  A    between atoms: C_1  and  C_2
REMARK    2  A    between atoms: C_5  and  C_6
REMARK    3  A    between atoms: C_6  and  C_7
REMARK    4  A    between atoms: C_6  and  C_23
REMARK    5  A    between atoms: C_7  and  C_8
REMARK    6  A    between atoms: C_8  and  C_9
REMARK    7  A    between atoms: C_9  and  C_10
REMARK    8  A    between atoms: C_10  and  C_11
REMARK    9  A    between atoms: C_11  and  C_12
REMARK   10  A    between atoms: C_12  and  C_13
REMARK   11  A    between atoms: C_23  and  C_24
REMARK   12  A    between atoms: C_24  and  O_26
REMARK                            x       y       z     vdW  Elec       q    Type
REMARK                         _______ _______ _______ _____ _____    ______ ____
ROOT
ATOM      1  C   UNL     1       0.875   4.711  20.133  0.00  0.00    +0.000 C 
ENDROOT
BRANCH   1   2
ATOM      2  C   UNL     1       2.032   5.499  20.761  0.00  0.00    +0.000 C 
BRANCH   2   3
ATOM      3  C   UNL     1       2.204   6.928  20.192  0.00  0.00    +0.000 C 
BRANCH   3   8
ATOM      4  C   UNL     1      -1.080  10.596  23.137  0.00  0.00    +0.000 C 
ATOM      5  C   UNL     1      -0.213   9.631  22.391  0.00  0.00    +0.000 A 
ATOM      6  N   UNL     1      -0.776   8.493  21.946  0.00  0.00    +0.000 NA
ATOM      7  C   UNL     1       0.027   7.647  21.267  0.00  0.00    +0.000 A 
ATOM      8  C   UNL     1       1.360   7.891  21.002  0.00  0.00    +0.000 A 
ATOM      9  C   UNL     1       1.832   9.081  21.526  0.00  0.00    +0.000 A 
ATOM     10  N   UNL     1       1.081   9.959  22.218  0.00  0.00    +0.000 NA
ENDBRANCH   3   8
BRANCH   3  11
ATOM     11  C   UNL     1       1.859   6.969  18.692  0.00  0.00    +0.000 C 
BRANCH  11  12
ATOM     12  C   UNL     1       2.356   8.214  18.005  0.00  0.00    +0.000 C 
ATOM     13  O   UNL     1       3.472   8.343  17.524  0.00  0.00    +0.000 OA
BRANCH  12  14
ATOM     14  O   UNL     1       1.402   9.165  17.899  0.00  0.00    +0.000 OA
ATOM     15  H   UNL     1       1.734  10.050  17.657  0.00  0.00    +0.000 HD
ENDBRANCH  12  14
ENDBRANCH  11  12
ENDBRANCH   3  11
ENDBRANCH   2   3
ENDBRANCH   1   2
BRANCH   1  16
ATOM     16  C   UNL     1       1.042   3.198  20.266  0.00  0.00    +0.000 C 
BRANCH  16  17
ATOM     17  C   UNL     1       2.051   2.798  21.350  0.00  0.00    +0.000 C 
BRANCH  17  18
ATOM     18  C   UNL     1       3.375   2.292  20.779  0.00  0.00    +0.000 C 
BRANCH  18  19
ATOM     19  C   UNL     1       3.353   2.229  19.252  0.00  0.00    +0.000 C 
BRANCH  19  20
ATOM     20  C   UNL     1       4.101   3.374  18.637  0.00  0.00    +0.000 A 
ATOM     21  C   UNL     1       3.681   3.930  17.436  0.00  0.00    +0.000 A 
ATOM     22  C   UNL     1       4.419   4.976  16.901  0.00  0.00    +0.000 A 
ATOM     23  C   UNL     1       5.544   5.442  17.583  0.00  0.00    +0.000 A 
ATOM     24  C   UNL     1       5.888   4.835  18.792  0.00  0.00    +0.000 A 
ATOM     25  N   UNL     1       5.186   3.818  19.317  0.00  0.00    +0.000 NA
ATOM     26  N   UNL     1       6.961   5.283  19.547  0.00  0.00    +0.000 N 
ATOM     27  C   UNL     1       8.021   5.950  18.824  0.00  0.00    +0.000 C 
ATOM     28  C   UNL     1       7.413   7.077  17.996  0.00  0.00    +0.000 C 
ATOM     29  C   UNL     1       6.419   6.508  16.986  0.00  0.00    +0.000 C 
ATOM     30  H   UNL     1       7.201   4.590  20.247  0.00  0.00    +0.000 HD
ENDBRANCH  19  20
ENDBRANCH  18  19
ENDBRANCH  17  18
ENDBRANCH  16  17
ENDBRANCH   1  16
TORSDOF 11
ENDMDL
MODEL 6
REMARK VINA RESULT:      -7.7      5.501      8.782
REMARK  Name = 
REMARK  12 active torsions:
REMARK  status: ('A' for Active; 'I' for Inactive)
REMARK    1  A    between atoms: C_1  and  C_2
REMARK    2  A    between atoms: C_5  and  C_6
REMARK    3  A    between atoms: C_6  and  C_7
REMARK    4  A    between atoms: C_6  and  C_23
REMARK    5  A    between atoms: C_7  and  C_8
REMARK    6  A    between atoms: C_8  and  C_9
REMARK    7  A    between atoms: C_9  and  C_10
REMARK    8  A    between atoms: C_10  and  C_11
REMARK    9  A    between atoms: C_11  and  C_12
REMARK   10  A    between atoms: C_12  and  C_13
REMARK   11  A    between atoms: C_23  and  C_24
REMARK   12  A    between atoms: C_24  and  O_26
REMARK                            x       y       z     vdW  Elec       q    Type
REMARK                         _______ _______ _______ _____ _____    ______ ____
ROOT
ATOM      1  C   UNL     1       1.480   5.540  19.878  0.00  0.00    +0.000 C 
ENDROOT
BRANCH   1   2
ATOM      2  C   UNL     1       1.768   6.691  20.852  0.00  0.00    +0.000 C 
BRANCH   2   3
ATOM      3  C   UNL     1       1.796   8.088  20.187  0.00  0.00    +0.000 C 
BRANCH   3   8
ATOM      4  C   UNL     1      -1.562  11.709  23.106  0.00  0.00    +0.000 C 
ATOM      5  C   UNL     1      -0.708  10.754  22.334  0.00  0.00    +0.000 A 
ATOM      6  N   UNL     1      -0.070  11.219  21.245  0.00  0.00    +0.000 NA
ATOM      7  C   UNL     1       0.702  10.339  20.575  0.00  0.00    +0.000 A 
ATOM      8  C   UNL     1       0.877   9.021  20.950  0.00  0.00    +0.000 A 
ATOM      9  C   UNL     1       0.157   8.653  22.072  0.00  0.00    +0.000 A 
ATOM     10  N   UNL     1      -0.635   9.484  22.775  0.00  0.00    +0.000 NA
ENDBRANCH   3   8
BRANCH   3  11
ATOM     11  C   UNL     1       1.425   7.996  18.696  0.00  0.00    +0.000 C 
BRANCH  11  12
ATOM     12  C   UNL     1       2.395   8.719  17.799  0.00  0.00    +0.000 C 
ATOM     13  O   UNL     1       2.274   9.880  17.437  0.00  0.00    +0.000 OA
BRANCH  12  14
ATOM     14  O   UNL     1       3.477   7.968  17.491  0.00  0.00    +0.000 OA
ATOM     15  H   UNL     1       3.794   8.068  16.575  0.00  0.00    +0.000 HD
ENDBRANCH  12  14
ENDBRANCH  11  12
ENDBRANCH   3  11
ENDBRANCH   2   3
ENDBRANCH   1   2
BRANCH   1  16
ATOM     16  C   UNL     1       1.016   4.266  20.582  0.00  0.00    +0.000 C 
BRANCH  16  17
ATOM     17  C   UNL     1       2.092   3.174  20.620  0.00  0.00    +0.000 C 
BRANCH  17  18
ATOM     18  C   UNL     1       2.100   2.295  19.370  0.00  0.00    +0.000 C 
BRANCH  18  19
ATOM     19  C   UNL     1       3.519   1.926  18.938  0.00  0.00    +0.000 C 
BRANCH  19  20
ATOM     20  C   UNL     1       4.256   3.107  18.381  0.00  0.00    +0.000 A 
ATOM     21  C   UNL     1       3.925   3.624  17.135  0.00  0.00    +0.000 A 
ATOM     22  C   UNL     1       4.651   4.706  16.657  0.00  0.00    +0.000 A 
ATOM     23  C   UNL     1       5.672   5.246  17.440  0.00  0.00    +0.000 A 
ATOM     24  C   UNL     1       5.930   4.675  18.687  0.00  0.00    +0.000 A 
ATOM     25  N   UNL     1       5.239   3.623  19.157  0.00  0.00    +0.000 NA
ATOM     26  N   UNL     1       6.893   5.195  19.537  0.00  0.00    +0.000 N 
ATOM     27  C   UNL     1       7.979   5.916  18.910  0.00  0.00    +0.000 C 
ATOM     28  C   UNL     1       7.392   6.996  18.008  0.00  0.00    +0.000 C 
ATOM     29  C   UNL     1       6.539   6.357  16.914  0.00  0.00    +0.000 C 
ATOM     30  H   UNL     1       7.103   4.525  20.268  0.00  0.00    +0.000 HD
ENDBRANCH  19  20
ENDBRANCH  18  19
ENDBRANCH  17  18
ENDBRANCH  16  17
ENDBRANCH   1  16
TORSDOF 11
ENDMDL
MODEL 7
REMARK VINA RESULT:      -7.6      5.466      8.581
REMARK  Name = 
REMARK  12 active torsions:
REMARK  status: ('A' for Active; 'I' for Inactive)
REMARK    1  A    between atoms: C_1  and  C_2
REMARK    2  A    between atoms: C_5  and  C_6
REMARK    3  A    between atoms: C_6  and  C_7
REMARK    4  A    between atoms: C_6  and  C_23
REMARK    5  A    between atoms: C_7  and  C_8
REMARK    6  A    between atoms: C_8  and  C_9
REMARK    7  A    between atoms: C_9  and  C_10
REMARK    8  A    between atoms: C_10  and  C_11
REMARK    9  A    between atoms: C_11  and  C_12
REMARK   10  A    between atoms: C_12  and  C_13
REMARK   11  A    between atoms: C_23  and  C_24
REMARK   12  A    between atoms: C_24  and  O_26
REMARK                            x       y       z     vdW  Elec       q    Type
REMARK                         _______ _______ _______ _____ _____    ______ ____
ROOT
ATOM      1  C   UNL     1       1.158   5.007  19.730  0.00  0.00    +0.000 C 
ENDROOT
BRANCH   1   2
ATOM      2  C   UNL     1       2.102   5.931  20.510  0.00  0.00    +0.000 C 
BRANCH   2   3
ATOM      3  C   UNL     1       2.183   7.371  19.950  0.00  0.00    +0.000 C 
BRANCH   3   8
ATOM      4  C   UNL     1      -1.068  10.801  23.202  0.00  0.00    +0.000 C 
ATOM      5  C   UNL     1      -0.234   9.914  22.333  0.00  0.00    +0.000 A 
ATOM      6  N   UNL     1       0.989  10.347  21.981  0.00  0.00    +0.000 NA
ATOM      7  C   UNL     1       1.723   9.522  21.206  0.00  0.00    +0.000 A 
ATOM      8  C   UNL     1       1.297   8.279  20.779  0.00  0.00    +0.000 A 
ATOM      9  C   UNL     1       0.017   7.950  21.187  0.00  0.00    +0.000 A 
ATOM     10  N   UNL     1      -0.764   8.736  21.951  0.00  0.00    +0.000 NA
ENDBRANCH   3   8
BRANCH   3  11
ATOM     11  C   UNL     1       1.812   7.402  18.456  0.00  0.00    +0.000 C 
BRANCH  11  12
ATOM     12  C   UNL     1       1.877   8.783  17.858  0.00  0.00    +0.000 C 
ATOM     13  O   UNL     1       2.909   9.352  17.535  0.00  0.00    +0.000 OA
BRANCH  12  14
ATOM     14  O   UNL     1       0.653   9.312  17.637  0.00  0.00    +0.000 OA
ATOM     15  H   UNL     1       0.094   8.800  17.024  0.00  0.00    +0.000 HD
ENDBRANCH  12  14
ENDBRANCH  11  12
ENDBRANCH   3  11
ENDBRANCH   2   3
ENDBRANCH   1   2
BRANCH   1  16
ATOM     16  C   UNL     1       1.286   3.541  20.139  0.00  0.00    +0.000 C 
BRANCH  16  17
ATOM     17  C   UNL     1       0.958   2.568  18.999  0.00  0.00    +0.000 C 
BRANCH  17  18
ATOM     18  C   UNL     1       2.203   2.008  18.312  0.00  0.00    +0.000 C 
BRANCH  18  19
ATOM     19  C   UNL     1       3.476   2.299  19.107  0.00  0.00    +0.000 C 
BRANCH  19  20
ATOM     20  C   UNL     1       4.238   3.457  18.533  0.00  0.00    +0.000 A 
ATOM     21  C   UNL     1       3.864   4.019  17.320  0.00  0.00    +0.000 A 
ATOM     22  C   UNL     1       4.614   5.076  16.825  0.00  0.00    +0.000 A 
ATOM     23  C   UNL     1       5.704   5.546  17.558  0.00  0.00    +0.000 A 
ATOM     24  C   UNL     1       6.003   4.934  18.776  0.00  0.00    +0.000 A 
ATOM     25  N   UNL     1       5.288   3.906  19.262  0.00  0.00    +0.000 NA
ATOM     26  N   UNL     1       7.038   5.386  19.579  0.00  0.00    +0.000 N 
ATOM     27  C   UNL     1       8.121   6.068  18.906  0.00  0.00    +0.000 C 
ATOM     28  C   UNL     1       7.538   7.196  18.062  0.00  0.00    +0.000 C 
ATOM     29  C   UNL     1       6.593   6.626  17.006  0.00  0.00    +0.000 C 
ATOM     30  H   UNL     1       7.255   4.689  20.283  0.00  0.00    +0.000 HD
ENDBRANCH  19  20
ENDBRANCH  18  19
ENDBRANCH  17  18
ENDBRANCH  16  17
ENDBRANCH   1  16
TORSDOF 11
ENDMDL
MODEL 8
REMARK VINA RESULT:      -7.5      1.284      1.495
REMARK  Name = 
REMARK  12 active torsions:
REMARK  status: ('A' for Active; 'I' for Inactive)
REMARK    1  A    between atoms: C_1  and  C_2
REMARK    2  A    between atoms: C_5  and  C_6
REMARK    3  A    between atoms: C_6  and  C_7
REMARK    4  A    between atoms: C_6  and  C_23
REMARK    5  A    between atoms: C_7  and  C_8
REMARK    6  A    between atoms: C_8  and  C_9
REMARK    7  A    between atoms: C_9  and  C_10
REMARK    8  A    between atoms: C_10  and  C_11
REMARK    9  A    between atoms: C_11  and  C_12
REMARK   10  A    between atoms: C_12  and  C_13
REMARK   11  A    between atoms: C_23  and  C_24
REMARK   12  A    between atoms: C_24  and  O_26
REMARK                            x       y       z     vdW  Elec       q    Type
REMARK                         _______ _______ _______ _____ _____    ______ ____
ROOT
ATOM      1  C   UNL     1       8.156   7.403  18.103  0.00  0.00    +0.000 C 
ENDROOT
BRANCH   1   2
ATOM      2  C   UNL     1       7.048   6.386  18.404  0.00  0.00    +0.000 C 
BRANCH   2   3
ATOM      3  C   UNL     1       5.803   6.522  17.496  0.00  0.00    +0.000 C 
BRANCH   3   8
ATOM      4  C   UNL     1       1.210   4.376  20.180  0.00  0.00    +0.000 C 
ATOM      5  C   UNL     1       2.412   4.912  19.470  0.00  0.00    +0.000 A 
ATOM      6  N   UNL     1       2.217   5.598  18.330  0.00  0.00    +0.000 NA
ATOM      7  C   UNL     1       3.319   6.079  17.718  0.00  0.00    +0.000 A 
ATOM      8  C   UNL     1       4.604   5.918  18.199  0.00  0.00    +0.000 A 
ATOM      9  C   UNL     1       4.682   5.180  19.365  0.00  0.00    +0.000 A 
ATOM     10  N   UNL     1       3.619   4.668  20.015  0.00  0.00    +0.000 NA
ENDBRANCH   3   8
BRANCH   3  11
ATOM     11  C   UNL     1       6.054   5.881  16.118  0.00  0.00    +0.000 C 
BRANCH  11  12
ATOM     12  C   UNL     1       6.739   4.542  16.205  0.00  0.00    +0.000 C 
ATOM     13  O   UNL     1       7.950   4.379  16.202  0.00  0.00    +0.000 OA
BRANCH  12  14
ATOM     14  O   UNL     1       5.866   3.522  16.369  0.00  0.00    +0.000 OA
ATOM     15  H   UNL     1       6.269   2.686  16.667  0.00  0.00    +0.000 HD
ENDBRANCH  12  14
ENDBRANCH  11  12
ENDBRANCH   3  11
ENDBRANCH   2   3
ENDBRANCH   1   2
BRANCH   1  16
ATOM     16  C   UNL     1       7.614   8.782  17.730  0.00  0.00    +0.000 C 
BRANCH  16  17
ATOM     17  C   UNL     1       8.644   9.903  17.914  0.00  0.00    +0.000 C 
BRANCH  17  18
ATOM     18  C   UNL     1       8.974  10.179  19.381  0.00  0.00    +0.000 C 
BRANCH  18  19
ATOM     19  C   UNL     1      10.386  10.739  19.555  0.00  0.00    +0.000 C 
BRANCH  19  20
ATOM     20  C   UNL     1      10.583  12.005  18.773  0.00  0.00    +0.000 A 
ATOM     21  C   UNL     1      11.431  12.033  17.675  0.00  0.00    +0.000 A 
ATOM     22  C   UNL     1      11.592  13.234  16.998  0.00  0.00    +0.000 A 
ATOM     23  C   UNL     1      10.895  14.363  17.429  0.00  0.00    +0.000 A 
ATOM     24  C   UNL     1      10.051  14.243  18.534  0.00  0.00    +0.000 A 
ATOM     25  N   UNL     1       9.892  13.089  19.201  0.00  0.00    +0.000 NA
ATOM     26  N   UNL     1       9.289  15.311  18.982  0.00  0.00    +0.000 N 
ATOM     27  C   UNL     1       9.799  16.632  18.688  0.00  0.00    +0.000 C 
ATOM     28  C   UNL     1      10.067  16.729  17.190  0.00  0.00    +0.000 C 
ATOM     29  C   UNL     1      11.118  15.700  16.778  0.00  0.00    +0.000 C 
ATOM     30  H   UNL     1       8.936  15.114  19.912  0.00  0.00    +0.000 HD
ENDBRANCH  19  20
ENDBRANCH  18  19
ENDBRANCH  17  18
ENDBRANCH  16  17
ENDBRANCH   1  16
TORSDOF 11
ENDMDL
MODEL 9
REMARK VINA RESULT:      -7.5      5.040      8.166
REMARK  Name = 
REMARK  12 active torsions:
REMARK  status: ('A' for Active; 'I' for Inactive)
REMARK    1  A    between atoms: C_1  and  C_2
REMARK    2  A    between atoms: C_5  and  C_6
REMARK    3  A    between atoms: C_6  and  C_7
REMARK    4  A    between atoms: C_6  and  C_23
REMARK    5  A    between atoms: C_7  and  C_8
REMARK    6  A    between atoms: C_8  and  C_9
REMARK    7  A    between atoms: C_9  and  C_10
REMARK    8  A    between atoms: C_10  and  C_11
REMARK    9  A    between atoms: C_11  and  C_12
REMARK   10  A    between atoms: C_12  and  C_13
REMARK   11  A    between atoms: C_23  and  C_24
REMARK   12  A    between atoms: C_24  and  O_26
REMARK                            x       y       z     vdW  Elec       q    Type
REMARK                         _______ _______ _______ _____ _____    ______ ____
ROOT
ATOM      1  C   UNL     1       2.263   2.991  17.427  0.00  0.00    +0.000 C 
ENDROOT
BRANCH   1   2
ATOM      2  C   UNL     1       3.751   3.334  17.270  0.00  0.00    +0.000 C 
BRANCH   2   3
ATOM      3  C   UNL     1       4.439   3.773  18.584  0.00  0.00    +0.000 C 
BRANCH   3   8
ATOM      4  C   UNL     1       7.986   8.176  17.615  0.00  0.00    +0.000 C 
ATOM      5  C   UNL     1       7.072   7.015  17.848  0.00  0.00    +0.000 A 
ATOM      6  N   UNL     1       7.366   6.174  18.855  0.00  0.00    +0.000 NA
ATOM      7  C   UNL     1       6.518   5.143  19.049  0.00  0.00    +0.000 A 
ATOM      8  C   UNL     1       5.384   4.921  18.292  0.00  0.00    +0.000 A 
ATOM      9  C   UNL     1       5.196   5.838  17.274  0.00  0.00    +0.000 A 
ATOM     10  N   UNL     1       6.013   6.881  17.028  0.00  0.00    +0.000 NA
ENDBRANCH   3   8
BRANCH   3  11
ATOM     11  C   UNL     1       5.155   2.586  19.254  0.00  0.00    +0.000 C 
BRANCH  11  12
ATOM     12  C   UNL     1       4.559   2.211  20.586  0.00  0.00    +0.000 C 
ATOM     13  O   UNL     1       3.429   2.504  20.948  0.00  0.00    +0.000 OA
BRANCH  12  14
ATOM     14  O   UNL     1       5.384   1.436  21.325  0.00  0.00    +0.000 OA
ATOM     15  H   UNL     1       4.931   0.826  21.935  0.00  0.00    +0.000 HD
ENDBRANCH  12  14
ENDBRANCH  11  12
ENDBRANCH   3  11
ENDBRANCH   2   3
ENDBRANCH   1   2
BRANCH   1  16
ATOM     16  C   UNL     1       1.455   4.122  18.063  0.00  0.00    +0.000 C 
BRANCH  16  17
ATOM     17  C   UNL     1       1.101   3.856  19.531  0.00  0.00    +0.000 C 
BRANCH  17  18
ATOM     18  C   UNL     1       1.150   5.114  20.397  0.00  0.00    +0.000 C 
BRANCH  18  19
ATOM     19  C   UNL     1       2.377   5.973  20.090  0.00  0.00    +0.000 C 
BRANCH  19  20
ATOM     20  C   UNL     1       1.993   7.359  19.662  0.00  0.00    +0.000 A 
ATOM     21  C   UNL     1       2.222   7.787  18.361  0.00  0.00    +0.000 A 
ATOM     22  C   UNL     1       1.865   9.084  18.022  0.00  0.00    +0.000 A 
ATOM     23  C   UNL     1       1.281   9.908  18.985  0.00  0.00    +0.000 A 
ATOM     24  C   UNL     1       1.072   9.393  20.265  0.00  0.00    +0.000 A 
ATOM     25  N   UNL     1       1.420   8.142  20.607  0.00  0.00    +0.000 NA
ATOM     26  N   UNL     1       0.448  10.139  21.253  0.00  0.00    +0.000 N 
ATOM     27  C   UNL     1       0.553  11.577  21.134  0.00  0.00    +0.000 C 
ATOM     28  C   UNL     1       0.082  11.988  19.744  0.00  0.00    +0.000 C 
ATOM     29  C   UNL     1       0.969  11.347  18.679  0.00  0.00    +0.000 C 
ATOM     30  H   UNL     1       0.599   9.706  22.157  0.00  0.00    +0.000 HD
ENDBRANCH  19  20
ENDBRANCH  18  19
ENDBRANCH  17  18
ENDBRANCH  16  17
ENDBRANCH   1  16
TORSDOF 11
ENDMDL
