MODEL 1
REMARK VINA RESULT:      -8.6      0.000      0.000
REMARK  Name = 
REMARK  8 active torsions:
REMARK  status: ('A' for Active; 'I' for Inactive)
REMARK    1  A    between atoms: C_1  and  C_2
REMARK    2  A    between atoms: C_5  and  C_6
REMARK    3  A    between atoms: C_6  and  N_7
REMARK    4  A    between atoms: C_6  and  C_13
REMARK    5  A    between atoms: C_8  and  C_10
REMARK    6  A    between atoms: C_10  and  C_11
REMARK    7  A    between atoms: C_10  and  C_12
REMARK    8  A    between atoms: C_22  and  O_23
REMARK                            x       y       z     vdW  Elec       q    Type
REMARK                         _______ _______ _______ _____ _____    ______ ____
ROOT
ATOM      1  C   UNL     1       3.173   6.066  19.115  0.00  0.00    +0.000 C 
ENDROOT
BRANCH   1   2
ATOM      2  C   UNL     1       2.426   7.404  19.054  0.00  0.00    +0.000 A 
ATOM      3  C   UNL     1       2.371   8.092  17.855  0.00  0.00    +0.000 A 
ATOM      4  C   UNL     1       1.814   9.315  17.703  0.00  0.00    +0.000 A 
ATOM      5  C   UNL     1       1.222   9.905  18.750  0.00  0.00    +0.000 A 
ATOM      6  C   UNL     1       0.703  11.077  18.485  0.00  0.00    +0.000 A 
ATOM      7  C   UNL     1       0.062  11.586  19.584  0.00  0.00    +0.000 A 
ATOM      8  C   UNL     1      -0.519  12.059  20.552  0.00  0.00    +0.000 A 
ATOM      9  N   UNL     1       0.217  10.424  20.763  0.00  0.00    +0.000 NA
ATOM     10  C   UNL     1       1.062   9.365  20.018  0.00  0.00    +0.000 A 
ATOM     11  C   UNL     1       1.757   8.058  20.125  0.00  0.00    +0.000 A 
BRANCH  11  12
ATOM     12  O   UNL     1       1.849   7.432  21.330  0.00  0.00    +0.000 OA
ATOM     13  H   UNL     1       2.280   7.834  22.086  0.00  0.00    +0.000 HD
ENDBRANCH  11  12
ENDBRANCH   1   2
BRANCH   1  18
ATOM     14  C   UNL     1       6.906   4.934  14.807  0.00  0.00    +0.000 C 
ATOM     15  C   UNL     1       5.931   5.249  15.885  0.00  0.00    +0.000 A 
ATOM     16  C   UNL     1       6.065   6.390  16.656  0.00  0.00    +0.000 A 
ATOM     17  C   UNL     1       5.163   6.676  17.659  0.00  0.00    +0.000 A 
ATOM     18  C   UNL     1       4.064   5.865  17.896  0.00  0.00    +0.000 A 
ATOM     19  C   UNL     1       3.894   4.737  17.067  0.00  0.00    +0.000 A 
ATOM     20  C   UNL     1       4.858   4.405  16.119  0.00  0.00    +0.000 A 
ENDBRANCH   1  18
BRANCH   1  21
ATOM     21  N   UNL     1       2.210   4.949  19.292  0.00  0.00    +0.000 N 
ATOM     22  C   UNL     1       1.948   4.333  20.485  0.00  0.00    +0.000 C 
ATOM     23  O   UNL     1       2.479   4.636  21.547  0.00  0.00    +0.000 OA
ATOM     24  H   UNL     1       1.735   4.617  18.474  0.00  0.00    +0.000 HD
BRANCH  22  25
ATOM     25  C   UNL     1       1.015   3.157  20.551  0.00  0.00    +0.000 C 
ATOM     26  C   UNL     1       1.192   2.320  19.313  0.00  0.00    +0.000 C 
ATOM     27  C   UNL     1       1.365   2.302  21.777  0.00  0.00    +0.000 C 
ENDBRANCH  22  25
ENDBRANCH   1  21
TORSDOF 5
ENDMDL
MODEL 2
REMARK VINA RESULT:      -8.4      4.296      6.512
REMARK  Name = 
REMARK  8 active torsions:
REMARK  status: ('A' for Active; 'I' for Inactive)
REMARK    1  A    between atoms: C_1  and  C_2
REMARK    2  A    between atoms: C_5  and  C_6
REMARK    3  A    between atoms: C_6  and  N_7
REMARK    4  A    between atoms: C_6  and  C_13
REMARK    5  A    between atoms: C_8  and  C_10
REMARK    6  A    between atoms: C_10  and  C_11
REMARK    7  A    between atoms: C_10  and  C_12
REMARK    8  A    between atoms: C_22  and  O_23
REMARK                            x       y       z     vdW  Elec       q    Type
REMARK                         _______ _______ _______ _____ _____    ______ ____
ROOT
ATOM      1  C   UNL     1       5.982   4.513  17.050  0.00  0.00    +0.000 C 
ENDROOT
BRANCH   1   2
ATOM      2  C   UNL     1       4.694   4.181  17.812  0.00  0.00    +0.000 A 
ATOM      3  C   UNL     1       3.473   4.491  17.240  0.00  0.00    +0.000 A 
ATOM      4  C   UNL     1       2.279   4.322  17.853  0.00  0.00    +0.000 A 
ATOM      5  C   UNL     1       2.237   3.771  19.074  0.00  0.00    +0.000 A 
ATOM      6  C   UNL     1       1.031   3.639  19.563  0.00  0.00    +0.000 A 
ATOM      7  C   UNL     1       1.065   3.012  20.782  0.00  0.00    +0.000 A 
ATOM      8  C   UNL     1       1.071   2.451  21.869  0.00  0.00    +0.000 A 
ATOM      9  N   UNL     1       2.668   2.670  21.057  0.00  0.00    +0.000 NA
ATOM     10  C   UNL     1       3.318   3.288  19.798  0.00  0.00    +0.000 A 
ATOM     11  C   UNL     1       4.593   3.573  19.093  0.00  0.00    +0.000 A 
BRANCH  11  12
ATOM     12  O   UNL     1       5.782   3.314  19.703  0.00  0.00    +0.000 OA
ATOM     13  H   UNL     1       6.254   3.977  20.209  0.00  0.00    +0.000 HD
ENDBRANCH  11  12
ENDBRANCH   1   2
BRANCH   1  18
ATOM     14  C   UNL     1       8.634   9.525  18.325  0.00  0.00    +0.000 C 
ATOM     15  C   UNL     1       7.934   8.246  18.032  0.00  0.00    +0.000 A 
ATOM     16  C   UNL     1       8.320   7.066  18.642  0.00  0.00    +0.000 A 
ATOM     17  C   UNL     1       7.672   5.881  18.363  0.00  0.00    +0.000 A 
ATOM     18  C   UNL     1       6.582   5.836  17.509  0.00  0.00    +0.000 A 
ATOM     19  C   UNL     1       6.150   7.051  16.938  0.00  0.00    +0.000 A 
ATOM     20  C   UNL     1       6.865   8.226  17.151  0.00  0.00    +0.000 A 
ENDBRANCH   1  18
BRANCH   1  21
ATOM     21  N   UNL     1       5.732   4.493  15.586  0.00  0.00    +0.000 N 
ATOM     22  C   UNL     1       6.699   4.647  14.631  0.00  0.00    +0.000 C 
ATOM     23  O   UNL     1       7.887   4.820  14.877  0.00  0.00    +0.000 OA
ATOM     24  H   UNL     1       4.784   4.373  15.283  0.00  0.00    +0.000 HD
BRANCH  22  25
ATOM     25  C   UNL     1       6.337   4.692  13.173  0.00  0.00    +0.000 C 
ATOM     26  C   UNL     1       7.569   5.011  12.370  0.00  0.00    +0.000 C 
ATOM     27  C   UNL     1       5.810   3.316  12.740  0.00  0.00    +0.000 C 
ENDBRANCH  22  25
ENDBRANCH   1  21
TORSDOF 5
ENDMDL
MODEL 3
REMARK VINA RESULT:      -8.4      2.198      4.379
REMARK  Name = 
REMARK  8 active torsions:
REMARK  status: ('A' for Active; 'I' for Inactive)
REMARK    1  A    between atoms: C_1  and  C_2
REMARK    2  A    between atoms: C_5  and  C_6
REMARK    3  A    between atoms: C_6  and  N_7
REMARK    4  A    between atoms: C_6  and  C_13
REMARK    5  A    between atoms: C_8  and  C_10
REMARK    6  A    between atoms: C_10  and  C_11
REMARK    7  A    between atoms: C_10  and  C_12
REMARK    8  A    between atoms: C_22  and  O_23
REMARK                            x       y       z     vdW  Elec       q    Type
REMARK                         _______ _______ _______ _____ _____    ______ ____
ROOT
ATOM      1  C   UNL     1       3.553   6.478  17.535  0.00  0.00    +0.000 C 
ENDROOT
BRANCH   1   2
ATOM      2  C   UNL     1       2.671   7.465  18.311  0.00  0.00    +0.000 A 
ATOM      3  C   UNL     1       2.122   8.545  17.644  0.00  0.00    +0.000 A 
ATOM      4  C   UNL     1       1.399   9.521  18.240  0.00  0.00    +0.000 A 
ATOM      5  C   UNL     1       1.136   9.439  19.551  0.00  0.00    +0.000 A 
ATOM      6  C   UNL     1       0.417  10.427  20.018  0.00  0.00    +0.000 A 
ATOM      7  C   UNL     1       0.136  10.240  21.347  0.00  0.00    +0.000 A 
ATOM      8  C   UNL     1      -0.130  10.093  22.532  0.00  0.00    +0.000 A 
ATOM      9  N   UNL     1       0.831   8.784  21.744  0.00  0.00    +0.000 NA
ATOM     10  C   UNL     1       1.492   8.401  20.400  0.00  0.00    +0.000 A 
ATOM     11  C   UNL     1       2.338   7.408  19.691  0.00  0.00    +0.000 A 
BRANCH  11  12
ATOM     12  O   UNL     1       2.916   6.389  20.382  0.00  0.00    +0.000 OA
ATOM     13  H   UNL     1       3.079   6.435  21.326  0.00  0.00    +0.000 HD
ENDBRANCH  11  12
ENDBRANCH   1   2
BRANCH   1  18
ATOM     14  C   UNL     1       1.744   1.135  18.935  0.00  0.00    +0.000 C 
ATOM     15  C   UNL     1       2.216   2.490  18.540  0.00  0.00    +0.000 A 
ATOM     16  C   UNL     1       3.563   2.803  18.538  0.00  0.00    +0.000 A 
ATOM     17  C   UNL     1       3.996   4.061  18.177  0.00  0.00    +0.000 A 
ATOM     18  C   UNL     1       3.109   5.037  17.753  0.00  0.00    +0.000 A 
ATOM     19  C   UNL     1       1.742   4.696  17.694  0.00  0.00    +0.000 A 
ATOM     20  C   UNL     1       1.303   3.455  18.147  0.00  0.00    +0.000 A 
ENDBRANCH   1  18
BRANCH   1  21
ATOM     21  N   UNL     1       4.982   6.681  17.887  0.00  0.00    +0.000 N 
ATOM     22  C   UNL     1       5.994   6.816  16.977  0.00  0.00    +0.000 C 
ATOM     23  O   UNL     1       5.835   6.786  15.762  0.00  0.00    +0.000 OA
ATOM     24  H   UNL     1       5.217   6.704  18.862  0.00  0.00    +0.000 HD
BRANCH  22  25
ATOM     25  C   UNL     1       7.421   6.938  17.430  0.00  0.00    +0.000 C 
ATOM     26  C   UNL     1       7.729   8.386  17.699  0.00  0.00    +0.000 C 
ATOM     27  C   UNL     1       7.608   6.145  18.732  0.00  0.00    +0.000 C 
ENDBRANCH  22  25
ENDBRANCH   1  21
TORSDOF 5
ENDMDL
MODEL 4
REMARK VINA RESULT:      -8.1      0.908      1.482
REMARK  Name = 
REMARK  8 active torsions:
REMARK  status: ('A' for Active; 'I' for Inactive)
REMARK    1  A    between atoms: C_1  and  C_2
REMARK    2  A    between atoms: C_5  and  C_6
REMARK    3  A    between atoms: C_6  and  N_7
REMARK    4  A    between atoms: C_6  and  C_13
REMARK    5  A    between atoms: C_8  and  C_10
REMARK    6  A    between atoms: C_10  and  C_11
REMARK    7  A    between atoms: C_10  and  C_12
REMARK    8  A    between atoms: C_22  and  O_23
REMARK                            x       y       z     vdW  Elec       q    Type
REMARK                         _______ _______ _______ _____ _____    ______ ____
ROOT
ATOM      1  C   UNL     1       3.644   5.656  19.291  0.00  0.00    +0.000 C 
ENDROOT
BRANCH   1   2
ATOM      2  C   UNL     1       2.853   6.953  19.083  0.00  0.00    +0.000 A 
ATOM      3  C   UNL     1       2.965   7.625  17.879  0.00  0.00    +0.000 A 
ATOM      4  C   UNL     1       2.382   8.816  17.614  0.00  0.00    +0.000 A 
ATOM      5  C   UNL     1       1.595   9.385  18.537  0.00  0.00    +0.000 A 
ATOM      6  C   UNL     1       1.071  10.526  18.168  0.00  0.00    +0.000 A 
ATOM      7  C   UNL     1       0.231  11.013  19.137  0.00  0.00    +0.000 A 
ATOM      8  C   UNL     1      -0.525  11.465  19.986  0.00  0.00    +0.000 A 
ATOM      9  N   UNL     1       0.246   9.873  20.346  0.00  0.00    +0.000 NA
ATOM     10  C   UNL     1       1.253   8.851  19.771  0.00  0.00    +0.000 A 
ATOM     11  C   UNL     1       1.985   7.582  20.016  0.00  0.00    +0.000 A 
BRANCH  11  12
ATOM     12  O   UNL     1       1.905   6.974  21.231  0.00  0.00    +0.000 OA
ATOM     13  H   UNL     1       1.372   7.323  21.946  0.00  0.00    +0.000 HD
ENDBRANCH  11  12
ENDBRANCH   1   2
BRANCH   1  18
ATOM     14  C   UNL     1       6.752   4.915  14.436  0.00  0.00    +0.000 C 
ATOM     15  C   UNL     1       5.972   5.071  15.693  0.00  0.00    +0.000 A 
ATOM     16  C   UNL     1       4.780   4.394  15.880  0.00  0.00    +0.000 A 
ATOM     17  C   UNL     1       4.056   4.546  17.044  0.00  0.00    +0.000 A 
ATOM     18  C   UNL     1       4.519   5.333  18.086  0.00  0.00    +0.000 A 
ATOM     19  C   UNL     1       5.765   5.971  17.918  0.00  0.00    +0.000 A 
ATOM     20  C   UNL     1       6.444   5.888  16.706  0.00  0.00    +0.000 A 
ENDBRANCH   1  18
BRANCH   1  21
ATOM     21  N   UNL     1       2.722   4.541  19.626  0.00  0.00    +0.000 N 
ATOM     22  C   UNL     1       3.123   3.305  20.055  0.00  0.00    +0.000 C 
ATOM     23  O   UNL     1       4.294   2.978  20.211  0.00  0.00    +0.000 OA
ATOM     24  H   UNL     1       1.740   4.706  19.514  0.00  0.00    +0.000 HD
BRANCH  22  25
ATOM     25  C   UNL     1       2.119   2.214  20.294  0.00  0.00    +0.000 C 
ATOM     26  C   UNL     1       1.334   2.532  21.538  0.00  0.00    +0.000 C 
ATOM     27  C   UNL     1       1.149   2.149  19.104  0.00  0.00    +0.000 C 
ENDBRANCH  22  25
ENDBRANCH   1  21
TORSDOF 5
ENDMDL
MODEL 5
REMARK VINA RESULT:      -8.0      4.273      6.457
REMARK  Name = 
REMARK  8 active torsions:
REMARK  status: ('A' for Active; 'I' for Inactive)
REMARK    1  A    between atoms: C_1  and  C_2
REMARK    2  A    between atoms: C_5  and  C_6
REMARK    3  A    between atoms: C_6  and  N_7
REMARK    4  A    between atoms: C_6  and  C_13
REMARK    5  A    between atoms: C_8  and  C_10
REMARK    6  A    between atoms: C_10  and  C_11
REMARK    7  A    between atoms: C_10  and  C_12
REMARK    8  A    between atoms: C_22  and  O_23
REMARK                            x       y       z     vdW  Elec       q    Type
REMARK                         _______ _______ _______ _____ _____    ______ ____
ROOT
ATOM      1  C   UNL     1       5.915   4.130  16.739  0.00  0.00    +0.000 C 
ENDROOT
BRANCH   1   2
ATOM      2  C   UNL     1       4.654   3.966  17.595  0.00  0.00    +0.000 A 
ATOM      3  C   UNL     1       3.443   4.424  17.107  0.00  0.00    +0.000 A 
ATOM      4  C   UNL     1       2.285   4.409  17.805  0.00  0.00    +0.000 A 
ATOM      5  C   UNL     1       2.263   3.873  19.033  0.00  0.00    +0.000 A 
ATOM      6  C   UNL     1       1.088   3.897  19.609  0.00  0.00    +0.000 A 
ATOM      7  C   UNL     1       1.132   3.276  20.831  0.00  0.00    +0.000 A 
ATOM      8  C   UNL     1       1.146   2.724  21.923  0.00  0.00    +0.000 A 
ATOM      9  N   UNL     1       2.695   2.737  20.996  0.00  0.00    +0.000 NA
ATOM     10  C   UNL     1       3.324   3.262  19.686  0.00  0.00    +0.000 A 
ATOM     11  C   UNL     1       4.570   3.381  18.888  0.00  0.00    +0.000 A 
BRANCH  11  12
ATOM     12  O   UNL     1       5.758   2.978  19.416  0.00  0.00    +0.000 OA
ATOM     13  H   UNL     1       6.570   2.968  18.906  0.00  0.00    +0.000 HD
ENDBRANCH  11  12
ENDBRANCH   1   2
BRANCH   1  18
ATOM     14  C   UNL     1       8.433   9.040  18.564  0.00  0.00    +0.000 C 
ATOM     15  C   UNL     1       7.814   7.783  18.066  0.00  0.00    +0.000 A 
ATOM     16  C   UNL     1       6.880   7.803  17.046  0.00  0.00    +0.000 A 
ATOM     17  C   UNL     1       6.304   6.636  16.591  0.00  0.00    +0.000 A 
ATOM     18  C   UNL     1       6.676   5.401  17.097  0.00  0.00    +0.000 A 
ATOM     19  C   UNL     1       7.675   5.377  18.092  0.00  0.00    +0.000 A 
ATOM     20  C   UNL     1       8.184   6.564  18.611  0.00  0.00    +0.000 A 
ENDBRANCH   1  18
BRANCH   1  21
ATOM     21  N   UNL     1       5.566   4.078  15.296  0.00  0.00    +0.000 N 
ATOM     22  C   UNL     1       6.457   4.265  14.275  0.00  0.00    +0.000 C 
ATOM     23  O   UNL     1       7.649   4.499  14.436  0.00  0.00    +0.000 OA
ATOM     24  H   UNL     1       4.607   3.907  15.061  0.00  0.00    +0.000 HD
BRANCH  22  25
ATOM     25  C   UNL     1       5.993   4.272  12.845  0.00  0.00    +0.000 C 
ATOM     26  C   UNL     1       7.119   3.805  11.962  0.00  0.00    +0.000 C 
ATOM     27  C   UNL     1       4.813   3.302  12.692  0.00  0.00    +0.000 C 
ENDBRANCH  22  25
ENDBRANCH   1  21
TORSDOF 5
ENDMDL
MODEL 6
REMARK VINA RESULT:      -7.9      3.808      6.408
REMARK  Name = 
REMARK  8 active torsions:
REMARK  status: ('A' for Active; 'I' for Inactive)
REMARK    1  A    between atoms: C_1  and  C_2
REMARK    2  A    between atoms: C_5  and  C_6
REMARK    3  A    between atoms: C_6  and  N_7
REMARK    4  A    between atoms: C_6  and  C_13
REMARK    5  A    between atoms: C_8  and  C_10
REMARK    6  A    between atoms: C_10  and  C_11
REMARK    7  A    between atoms: C_10  and  C_12
REMARK    8  A    between atoms: C_22  and  O_23
REMARK                            x       y       z     vdW  Elec       q    Type
REMARK                         _______ _______ _______ _____ _____    ______ ____
ROOT
ATOM      1  C   UNL     1       6.469   5.433  17.061  0.00  0.00    +0.000 C 
ENDROOT
BRANCH   1   2
ATOM      2  C   UNL     1       5.125   5.095  17.717  0.00  0.00    +0.000 A 
ATOM      3  C   UNL     1       3.984   5.754  17.293  0.00  0.00    +0.000 A 
ATOM      4  C   UNL     1       2.763   5.598  17.852  0.00  0.00    +0.000 A 
ATOM      5  C   UNL     1       2.601   4.718  18.849  0.00  0.00    +0.000 A 
ATOM      6  C   UNL     1       1.377   4.638  19.303  0.00  0.00    +0.000 A 
ATOM      7  C   UNL     1       1.278   3.674  20.274  0.00  0.00    +0.000 A 
ATOM      8  C   UNL     1       1.166   2.816  21.139  0.00  0.00    +0.000 A 
ATOM      9  N   UNL     1       2.799   3.015  20.396  0.00  0.00    +0.000 NA
ATOM     10  C   UNL     1       3.572   3.873  19.369  0.00  0.00    +0.000 A 
ATOM     11  C   UNL     1       4.894   4.152  18.754  0.00  0.00    +0.000 A 
BRANCH  11  12
ATOM     12  O   UNL     1       6.010   3.535  19.231  0.00  0.00    +0.000 OA
ATOM     13  H   UNL     1       6.200   2.611  19.058  0.00  0.00    +0.000 HD
ENDBRANCH  11  12
ENDBRANCH   1   2
BRANCH   1  18
ATOM     14  C   UNL     1       9.299  10.126  18.998  0.00  0.00    +0.000 C 
ATOM     15  C   UNL     1       8.547   8.931  18.530  0.00  0.00    +0.000 A 
ATOM     16  C   UNL     1       8.663   7.717  19.182  0.00  0.00    +0.000 A 
ATOM     17  C   UNL     1       7.969   6.609  18.741  0.00  0.00    +0.000 A 
ATOM     18  C   UNL     1       7.092   6.683  17.671  0.00  0.00    +0.000 A 
ATOM     19  C   UNL     1       6.927   7.938  17.048  0.00  0.00    +0.000 A 
ATOM     20  C   UNL     1       7.700   9.028  17.439  0.00  0.00    +0.000 A 
ENDBRANCH   1  18
BRANCH   1  21
ATOM     21  N   UNL     1       6.308   5.552  15.590  0.00  0.00    +0.000 N 
ATOM     22  C   UNL     1       6.319   4.496  14.721  0.00  0.00    +0.000 C 
ATOM     23  O   UNL     1       6.464   3.328  15.060  0.00  0.00    +0.000 OA
ATOM     24  H   UNL     1       6.198   6.474  15.212  0.00  0.00    +0.000 HD
BRANCH  22  25
ATOM     25  C   UNL     1       6.227   4.723  13.238  0.00  0.00    +0.000 C 
ATOM     26  C   UNL     1       7.581   5.126  12.718  0.00  0.00    +0.000 C 
ATOM     27  C   UNL     1       5.805   3.416  12.551  0.00  0.00    +0.000 C 
ENDBRANCH  22  25
ENDBRANCH   1  21
TORSDOF 5
ENDMDL
MODEL 7
REMARK VINA RESULT:      -7.9      2.333      4.499
REMARK  Name = 
REMARK  8 active torsions:
REMARK  status: ('A' for Active; 'I' for Inactive)
REMARK    1  A    between atoms: C_1  and  C_2
REMARK    2  A    between atoms: C_5  and  C_6
REMARK    3  A    between atoms: C_6  and  N_7
REMARK    4  A    between atoms: C_6  and  C_13
REMARK    5  A    between atoms: C_8  and  C_10
REMARK    6  A    between atoms: C_10  and  C_11
REMARK    7  A    between atoms: C_10  and  C_12
REMARK    8  A    between atoms: C_22  and  O_23
REMARK                            x       y       z     vdW  Elec       q    Type
REMARK                         _______ _______ _______ _____ _____    ______ ____
ROOT
ATOM      1  C   UNL     1       3.421   6.719  17.740  0.00  0.00    +0.000 C 
ENDROOT
BRANCH   1   2
ATOM      2  C   UNL     1       2.584   7.616  18.660  0.00  0.00    +0.000 A 
ATOM      3  C   UNL     1       2.334   7.205  19.957  0.00  0.00    +0.000 A 
ATOM      4  C   UNL     1       1.542   7.871  20.828  0.00  0.00    +0.000 A 
ATOM      5  C   UNL     1       0.991   9.036  20.460  0.00  0.00    +0.000 A 
ATOM      6  C   UNL     1       0.259   9.601  21.386  0.00  0.00    +0.000 A 
ATOM      7  C   UNL     1      -0.216  10.814  20.959  0.00  0.00    +0.000 A 
ATOM      8  C   UNL     1      -0.648  11.901  20.601  0.00  0.00    +0.000 A 
ATOM      9  N   UNL     1       0.410  11.021  19.434  0.00  0.00    +0.000 NA
ATOM     10  C   UNL     1       1.183   9.694  19.254  0.00  0.00    +0.000 A 
ATOM     11  C   UNL     1       2.002   8.870  18.330  0.00  0.00    +0.000 A 
BRANCH  11  12
ATOM     12  O   UNL     1       2.182   9.268  17.041  0.00  0.00    +0.000 OA
ATOM     13  H   UNL     1       1.698  10.001  16.657  0.00  0.00    +0.000 HD
ENDBRANCH  11  12
ENDBRANCH   1   2
BRANCH   1  18
ATOM     14  C   UNL     1       1.795   1.254  18.865  0.00  0.00    +0.000 C 
ATOM     15  C   UNL     1       2.223   2.641  18.541  0.00  0.00    +0.000 A 
ATOM     16  C   UNL     1       3.548   3.022  18.653  0.00  0.00    +0.000 A 
ATOM     17  C   UNL     1       3.941   4.311  18.358  0.00  0.00    +0.000 A 
ATOM     18  C   UNL     1       3.039   5.252  17.888  0.00  0.00    +0.000 A 
ATOM     19  C   UNL     1       1.701   4.843  17.712  0.00  0.00    +0.000 A 
ATOM     20  C   UNL     1       1.294   3.569  18.100  0.00  0.00    +0.000 A 
ENDBRANCH   1  18
BRANCH   1  21
ATOM     21  N   UNL     1       4.869   6.945  17.983  0.00  0.00    +0.000 N 
ATOM     22  C   UNL     1       5.834   6.901  17.014  0.00  0.00    +0.000 C 
ATOM     23  O   UNL     1       5.611   6.668  15.832  0.00  0.00    +0.000 OA
ATOM     24  H   UNL     1       5.155   7.127  18.926  0.00  0.00    +0.000 HD
BRANCH  22  25
ATOM     25  C   UNL     1       7.285   7.064  17.370  0.00  0.00    +0.000 C 
ATOM     26  C   UNL     1       7.555   8.512  17.677  0.00  0.00    +0.000 C 
ATOM     27  C   UNL     1       7.597   6.229  18.620  0.00  0.00    +0.000 C 
ENDBRANCH  22  25
ENDBRANCH   1  21
TORSDOF 5
ENDMDL
MODEL 8
REMARK VINA RESULT:      -7.7      3.547      6.307
REMARK  Name = 
REMARK  8 active torsions:
REMARK  status: ('A' for Active; 'I' for Inactive)
REMARK    1  A    between atoms: C_1  and  C_2
REMARK    2  A    between atoms: C_5  and  C_6
REMARK    3  A    between atoms: C_6  and  N_7
REMARK    4  A    between atoms: C_6  and  C_13
REMARK    5  A    between atoms: C_8  and  C_10
REMARK    6  A    between atoms: C_10  and  C_11
REMARK    7  A    between atoms: C_10  and  C_12
REMARK    8  A    between atoms: C_22  and  O_23
REMARK                            x       y       z     vdW  Elec       q    Type
REMARK                         _______ _______ _______ _____ _____    ______ ____
ROOT
ATOM      1  C   UNL     1       6.651   5.487  16.940  0.00  0.00    +0.000 C 
ENDROOT
BRANCH   1   2
ATOM      2  C   UNL     1       5.300   5.334  17.650  0.00  0.00    +0.000 A 
ATOM      3  C   UNL     1       4.305   6.265  17.411  0.00  0.00    +0.000 A 
ATOM      4  C   UNL     1       3.108   6.278  18.041  0.00  0.00    +0.000 A 
ATOM      5  C   UNL     1       2.814   5.310  18.920  0.00  0.00    +0.000 A 
ATOM      6  C   UNL     1       1.625   5.412  19.456  0.00  0.00    +0.000 A 
ATOM      7  C   UNL     1       1.375   4.355  20.293  0.00  0.00    +0.000 A 
ATOM      8  C   UNL     1       1.128   3.420  21.041  0.00  0.00    +0.000 A 
ATOM      9  N   UNL     1       2.726   3.392  20.202  0.00  0.00    +0.000 NA
ATOM     10  C   UNL     1       3.610   4.219  19.241  0.00  0.00    +0.000 A 
ATOM     11  C   UNL     1       4.929   4.313  18.566  0.00  0.00    +0.000 A 
BRANCH  11  12
ATOM     12  O   UNL     1       5.911   3.420  18.864  0.00  0.00    +0.000 OA
ATOM     13  H   UNL     1       6.842   3.643  18.808  0.00  0.00    +0.000 HD
ENDBRANCH  11  12
ENDBRANCH   1   2
BRANCH   1  18
ATOM     14  C   UNL     1       9.173  10.136  19.349  0.00  0.00    +0.000 C 
ATOM     15  C   UNL     1       8.559   8.943  18.709  0.00  0.00    +0.000 A 
ATOM     16  C   UNL     1       7.892   9.046  17.501  0.00  0.00    +0.000 A 
ATOM     17  C   UNL     1       7.319   7.938  16.913  0.00  0.00    +0.000 A 
ATOM     18  C   UNL     1       7.436   6.678  17.477  0.00  0.00    +0.000 A 
ATOM     19  C   UNL     1       8.171   6.564  18.675  0.00  0.00    +0.000 A 
ATOM     20  C   UNL     1       8.667   7.700  19.310  0.00  0.00    +0.000 A 
ENDBRANCH   1  18
BRANCH   1  21
ATOM     21  N   UNL     1       6.453   5.568  15.470  0.00  0.00    +0.000 N 
ATOM     22  C   UNL     1       6.325   4.486  14.644  0.00  0.00    +0.000 C 
ATOM     23  O   UNL     1       6.361   3.322  15.025  0.00  0.00    +0.000 OA
ATOM     24  H   UNL     1       6.426   6.482  15.059  0.00  0.00    +0.000 HD
BRANCH  22  25
ATOM     25  C   UNL     1       6.207   4.667  13.157  0.00  0.00    +0.000 C 
ATOM     26  C   UNL     1       7.548   5.065  12.602  0.00  0.00    +0.000 C 
ATOM     27  C   UNL     1       5.785   3.336  12.517  0.00  0.00    +0.000 C 
ENDBRANCH  22  25
ENDBRANCH   1  21
TORSDOF 5
ENDMDL
MODEL 9
REMARK VINA RESULT:      -7.6      1.016      1.347
REMARK  Name = 
REMARK  8 active torsions:
REMARK  status: ('A' for Active; 'I' for Inactive)
REMARK    1  A    between atoms: C_1  and  C_2
REMARK    2  A    between atoms: C_5  and  C_6
REMARK    3  A    between atoms: C_6  and  N_7
REMARK    4  A    between atoms: C_6  and  C_13
REMARK    5  A    between atoms: C_8  and  C_10
REMARK    6  A    between atoms: C_10  and  C_11
REMARK    7  A    between atoms: C_10  and  C_12
REMARK    8  A    between atoms: C_22  and  O_23
REMARK                            x       y       z     vdW  Elec       q    Type
REMARK                         _______ _______ _______ _____ _____    ______ ____
ROOT
ATOM      1  C   UNL     1       3.592   5.836  19.355  0.00  0.00    +0.000 C 
ENDROOT
BRANCH   1   2
ATOM      2  C   UNL     1       2.732   7.089  19.153  0.00  0.00    +0.000 A 
ATOM      3  C   UNL     1       2.771   7.744  17.935  0.00  0.00    +0.000 A 
ATOM      4  C   UNL     1       2.122   8.901  17.671  0.00  0.00    +0.000 A 
ATOM      5  C   UNL     1       1.339   9.447  18.612  0.00  0.00    +0.000 A 
ATOM      6  C   UNL     1       0.748  10.555  18.243  0.00  0.00    +0.000 A 
ATOM      7  C   UNL     1      -0.082  11.017  19.232  0.00  0.00    +0.000 A 
ATOM      8  C   UNL     1      -0.831  11.446  20.098  0.00  0.00    +0.000 A 
ATOM      9  N   UNL     1       0.028   9.900  20.457  0.00  0.00    +0.000 NA
ATOM     10  C   UNL     1       1.065   8.919  19.865  0.00  0.00    +0.000 A 
ATOM     11  C   UNL     1       1.865   7.691  20.105  0.00  0.00    +0.000 A 
BRANCH  11  12
ATOM     12  O   UNL     1       1.856   7.101  21.331  0.00  0.00    +0.000 OA
ATOM     13  H   UNL     1       2.499   6.437  21.586  0.00  0.00    +0.000 HD
ENDBRANCH  11  12
ENDBRANCH   1   2
BRANCH   1  18
ATOM     14  C   UNL     1       6.132   4.621  14.270  0.00  0.00    +0.000 C 
ATOM     15  C   UNL     1       5.517   4.924  15.590  0.00  0.00    +0.000 A 
ATOM     16  C   UNL     1       5.068   3.910  16.417  0.00  0.00    +0.000 A 
ATOM     17  C   UNL     1       4.492   4.195  17.637  0.00  0.00    +0.000 A 
ATOM     18  C   UNL     1       4.392   5.496  18.103  0.00  0.00    +0.000 A 
ATOM     19  C   UNL     1       4.908   6.524  17.287  0.00  0.00    +0.000 A 
ATOM     20  C   UNL     1       5.403   6.237  16.017  0.00  0.00    +0.000 A 
ENDBRANCH   1  18
BRANCH   1  21
ATOM     21  N   UNL     1       2.747   4.699  19.801  0.00  0.00    +0.000 N 
ATOM     22  C   UNL     1       1.676   4.209  19.106  0.00  0.00    +0.000 C 
ATOM     23  O   UNL     1       1.292   4.654  18.031  0.00  0.00    +0.000 OA
ATOM     24  H   UNL     1       2.973   4.276  20.682  0.00  0.00    +0.000 HD
BRANCH  22  25
ATOM     25  C   UNL     1       0.832   3.105  19.678  0.00  0.00    +0.000 C 
ATOM     26  C   UNL     1       1.051   1.852  18.873  0.00  0.00    +0.000 C 
ATOM     27  C   UNL     1       1.260   2.839  21.128  0.00  0.00    +0.000 C 
ENDBRANCH  22  25
ENDBRANCH   1  21
TORSDOF 5
ENDMDL
