MODEL 1
REMARK VINA RESULT:      -7.3      0.000      0.000
REMARK  Name = 
REMARK  5 active torsions:
REMARK  status: ('A' for Active; 'I' for Inactive)
REMARK    1  A    between atoms: C_1  and  C_2
REMARK    2  A    between atoms: C_2  and  C_3
REMARK    3  A    between atoms: C_2  and  C_4
REMARK    4  A    between atoms: N_6  and  C_7
REMARK    5  A    between atoms: C_10  and  C_11
REMARK                            x       y       z     vdW  Elec       q    Type
REMARK                         _______ _______ _______ _____ _____    ______ ____
ROOT
ATOM      1  C   UNL     1       4.817   4.925  16.056  0.00  0.00    +0.000 A 
ATOM      2  C   UNL     1       4.770   6.290  16.353  0.00  0.00    +0.000 A 
ATOM      3  C   UNL     1       4.053   6.758  17.453  0.00  0.00    +0.000 A 
ATOM      4  C   UNL     1       3.371   5.870  18.289  0.00  0.00    +0.000 A 
ATOM      5  C   UNL     1       3.400   4.501  18.003  0.00  0.00    +0.000 A 
ATOM      6  C   UNL     1       4.112   4.035  16.881  0.00  0.00    +0.000 A 
ENDROOT
BRANCH   4   7
ATOM      7  C   UNL     1       2.595   6.462  19.410  0.00  0.00    +0.000 C 
ATOM      8  O   UNL     1       2.285   5.714  20.330  0.00  0.00    +0.000 OA
ATOM      9  N   UNL     1       2.238   7.783  19.260  0.00  0.00    +0.000 N 
ATOM     10  C   UNL     1       1.439   8.398  20.189  0.00  0.00    +0.000 A 
ATOM     11  N   UNL     1       1.096   7.988  21.383  0.00  0.00    +0.000 NA
ATOM     12  C   UNL     1       0.214   8.886  21.946  0.00  0.00    +0.000 A 
ATOM     13  C   UNL     1      -0.094   9.978  21.164  0.00  0.00    +0.000 A 
ATOM     14  S   UNL     1       0.790   9.899  19.693  0.00  0.00    +0.000 S 
ATOM     15  H   UNL     1       2.390   8.272  18.392  0.00  0.00    +0.000 HD
ENDBRANCH   4   7
BRANCH   1  18
ATOM     16  C   UNL     1       6.791   4.790  14.544  0.00  0.00    +0.000 C 
ATOM     17  O   UNL     1       7.548   5.502  15.199  0.00  0.00    +0.000 OA
ATOM     18  N   UNL     1       5.513   4.417  14.935  0.00  0.00    +0.000 N 
ATOM     19  H   UNL     1       5.076   3.656  14.430  0.00  0.00    +0.000 HD
BRANCH  16  21
ATOM     20  C   UNL     1       6.073   3.535  12.477  0.00  0.00    +0.000 C 
ATOM     21  C   UNL     1       7.238   4.199  13.205  0.00  0.00    +0.000 C 
ATOM     22  C   UNL     1       7.840   5.297  12.321  0.00  0.00    +0.000 C 
ENDBRANCH  16  21
ENDBRANCH   1  18
TORSDOF 3
ENDMDL
MODEL 2
REMARK VINA RESULT:      -6.9      0.292      1.114
REMARK  Name = 
REMARK  5 active torsions:
REMARK  status: ('A' for Active; 'I' for Inactive)
REMARK    1  A    between atoms: C_1  and  C_2
REMARK    2  A    between atoms: C_2  and  C_3
REMARK    3  A    between atoms: C_2  and  C_4
REMARK    4  A    between atoms: N_6  and  C_7
REMARK    5  A    between atoms: C_10  and  C_11
REMARK                            x       y       z     vdW  Elec       q    Type
REMARK                         _______ _______ _______ _____ _____    ______ ____
ROOT
ATOM      1  C   UNL     1       4.757   5.132  16.075  0.00  0.00    +0.000 A 
ATOM      2  C   UNL     1       3.971   4.346  16.921  0.00  0.00    +0.000 A 
ATOM      3  C   UNL     1       3.267   4.918  17.981  0.00  0.00    +0.000 A 
ATOM      4  C   UNL     1       3.326   6.294  18.213  0.00  0.00    +0.000 A 
ATOM      5  C   UNL     1       4.114   7.097  17.382  0.00  0.00    +0.000 A 
ATOM      6  C   UNL     1       4.836   6.511  16.324  0.00  0.00    +0.000 A 
ENDROOT
BRANCH   4   7
ATOM      7  C   UNL     1       2.582   6.810  19.392  0.00  0.00    +0.000 C 
ATOM      8  O   UNL     1       2.412   6.036  20.327  0.00  0.00    +0.000 OA
ATOM      9  N   UNL     1       2.095   8.092  19.279  0.00  0.00    +0.000 N 
ATOM     10  C   UNL     1       1.313   8.630  20.269  0.00  0.00    +0.000 A 
ATOM     11  N   UNL     1       1.098   8.189  21.482  0.00  0.00    +0.000 NA
ATOM     12  C   UNL     1       0.181   9.000  22.115  0.00  0.00    +0.000 A 
ATOM     13  C   UNL     1      -0.284  10.060  21.367  0.00  0.00    +0.000 A 
ATOM     14  S   UNL     1       0.493  10.065  19.834  0.00  0.00    +0.000 S 
ATOM     15  H   UNL     1       2.136   8.595  18.407  0.00  0.00    +0.000 HD
ENDBRANCH   4   7
BRANCH   1  18
ATOM     16  C   UNL     1       6.804   4.934  14.671  0.00  0.00    +0.000 C 
ATOM     17  O   UNL     1       7.534   5.657  15.343  0.00  0.00    +0.000 OA
ATOM     18  N   UNL     1       5.504   4.584  15.007  0.00  0.00    +0.000 N 
ATOM     19  H   UNL     1       5.085   3.813  14.503  0.00  0.00    +0.000 HD
BRANCH  16  21
ATOM     20  C   UNL     1       6.202   3.533  12.662  0.00  0.00    +0.000 C 
ATOM     21  C   UNL     1       7.313   4.299  13.375  0.00  0.00    +0.000 C 
ATOM     22  C   UNL     1       7.872   5.381  12.444  0.00  0.00    +0.000 C 
ENDBRANCH  16  21
ENDBRANCH   1  18
TORSDOF 3
ENDMDL
MODEL 3
REMARK VINA RESULT:      -6.7      3.085      8.769
REMARK  Name = 
REMARK  5 active torsions:
REMARK  status: ('A' for Active; 'I' for Inactive)
REMARK    1  A    between atoms: C_1  and  C_2
REMARK    2  A    between atoms: C_2  and  C_3
REMARK    3  A    between atoms: C_2  and  C_4
REMARK    4  A    between atoms: N_6  and  C_7
REMARK    5  A    between atoms: C_10  and  C_11
REMARK                            x       y       z     vdW  Elec       q    Type
REMARK                         _______ _______ _______ _____ _____    ______ ____
ROOT
ATOM      1  C   UNL     1       0.737   9.735  19.795  0.00  0.00    +0.000 A 
ATOM      2  C   UNL     1       1.214   8.637  20.516  0.00  0.00    +0.000 A 
ATOM      3  C   UNL     1       1.970   7.645  19.892  0.00  0.00    +0.000 A 
ATOM      4  C   UNL     1       2.276   7.734  18.531  0.00  0.00    +0.000 A 
ATOM      5  C   UNL     1       1.801   8.822  17.792  0.00  0.00    +0.000 A 
ATOM      6  C   UNL     1       1.023   9.812  18.423  0.00  0.00    +0.000 A 
ENDROOT
BRANCH   4   7
ATOM      7  C   UNL     1       3.047   6.609  17.940  0.00  0.00    +0.000 C 
ATOM      8  O   UNL     1       2.488   5.520  17.881  0.00  0.00    +0.000 OA
ATOM      9  N   UNL     1       4.345   6.895  17.583  0.00  0.00    +0.000 N 
ATOM     10  C   UNL     1       5.173   5.906  17.118  0.00  0.00    +0.000 A 
ATOM     11  N   UNL     1       4.873   4.693  16.731  0.00  0.00    +0.000 NA
ATOM     12  C   UNL     1       6.026   4.008  16.413  0.00  0.00    +0.000 A 
ATOM     13  C   UNL     1       7.195   4.724  16.558  0.00  0.00    +0.000 A 
ATOM     14  S   UNL     1       6.829   6.324  17.065  0.00  0.00    +0.000 S 
ATOM     15  H   UNL     1       4.775   7.774  17.824  0.00  0.00    +0.000 HD
ENDBRANCH   4   7
BRANCH   1  18
ATOM     16  C   UNL     1       0.433  11.847  21.080  0.00  0.00    +0.000 C 
ATOM     17  O   UNL     1       1.616  12.171  21.144  0.00  0.00    +0.000 OA
ATOM     18  N   UNL     1      -0.053  10.746  20.389  0.00  0.00    +0.000 N 
ATOM     19  H   UNL     1      -1.050  10.708  20.219  0.00  0.00    +0.000 HD
BRANCH  16  21
ATOM     20  C   UNL     1      -1.257  11.970  22.948  0.00  0.00    +0.000 C 
ATOM     21  C   UNL     1      -0.647  12.696  21.753  0.00  0.00    +0.000 C 
ATOM     22  C   UNL     1      -0.054  14.033  22.211  0.00  0.00    +0.000 C 
ENDBRANCH  16  21
ENDBRANCH   1  18
TORSDOF 3
ENDMDL
MODEL 4
REMARK VINA RESULT:      -6.7      3.282      4.875
REMARK  Name = 
REMARK  5 active torsions:
REMARK  status: ('A' for Active; 'I' for Inactive)
REMARK    1  A    between atoms: C_1  and  C_2
REMARK    2  A    between atoms: C_2  and  C_3
REMARK    3  A    between atoms: C_2  and  C_4
REMARK    4  A    between atoms: N_6  and  C_7
REMARK    5  A    between atoms: C_10  and  C_11
REMARK                            x       y       z     vdW  Elec       q    Type
REMARK                         _______ _______ _______ _____ _____    ______ ____
ROOT
ATOM      1  C   UNL     1       2.415   6.413  19.067  0.00  0.00    +0.000 A 
ATOM      2  C   UNL     1       1.992   6.249  20.389  0.00  0.00    +0.000 A 
ATOM      3  C   UNL     1       1.447   7.316  21.102  0.00  0.00    +0.000 A 
ATOM      4  C   UNL     1       1.301   8.571  20.506  0.00  0.00    +0.000 A 
ATOM      5  C   UNL     1       1.725   8.756  19.186  0.00  0.00    +0.000 A 
ATOM      6  C   UNL     1       2.292   7.679  18.475  0.00  0.00    +0.000 A 
ENDROOT
BRANCH   4   7
ATOM      7  C   UNL     1       0.754   9.661  21.356  0.00  0.00    +0.000 C 
ATOM      8  O   UNL     1       1.012   9.618  22.553  0.00  0.00    +0.000 OA
ATOM      9  N   UNL     1      -0.054  10.572  20.714  0.00  0.00    +0.000 N 
ATOM     10  C   UNL     1      -0.687  11.561  21.422  0.00  0.00    +0.000 A 
ATOM     11  N   UNL     1      -0.489  11.948  22.656  0.00  0.00    +0.000 NA
ATOM     12  C   UNL     1      -1.403  12.925  22.988  0.00  0.00    +0.000 A 
ATOM     13  C   UNL     1      -2.285  13.272  21.987  0.00  0.00    +0.000 A 
ATOM     14  S   UNL     1      -1.922  12.376  20.567  0.00  0.00    +0.000 S 
ATOM     15  H   UNL     1      -0.349  10.433  19.761  0.00  0.00    +0.000 HD
ENDBRANCH   4   7
BRANCH   1  18
ATOM     16  C   UNL     1       2.295   4.375  17.638  0.00  0.00    +0.000 C 
ATOM     17  O   UNL     1       1.079   4.367  17.467  0.00  0.00    +0.000 OA
ATOM     18  N   UNL     1       2.995   5.361  18.321  0.00  0.00    +0.000 N 
ATOM     19  H   UNL     1       4.000   5.381  18.205  0.00  0.00    +0.000 HD
BRANCH  16  21
ATOM     20  C   UNL     1       4.618   3.742  16.887  0.00  0.00    +0.000 C 
ATOM     21  C   UNL     1       3.175   3.272  17.048  0.00  0.00    +0.000 C 
ATOM     22  C   UNL     1       3.135   2.031  17.946  0.00  0.00    +0.000 C 
ENDBRANCH  16  21
ENDBRANCH   1  18
TORSDOF 3
ENDMDL
MODEL 5
REMARK VINA RESULT:      -6.7      2.118      3.154
REMARK  Name = 
REMARK  5 active torsions:
REMARK  status: ('A' for Active; 'I' for Inactive)
REMARK    1  A    between atoms: C_1  and  C_2
REMARK    2  A    between atoms: C_2  and  C_3
REMARK    3  A    between atoms: C_2  and  C_4
REMARK    4  A    between atoms: N_6  and  C_7
REMARK    5  A    between atoms: C_10  and  C_11
REMARK                            x       y       z     vdW  Elec       q    Type
REMARK                         _______ _______ _______ _____ _____    ______ ____
ROOT
ATOM      1  C   UNL     1       3.745   6.364  18.022  0.00  0.00    +0.000 A 
ATOM      2  C   UNL     1       3.406   5.828  19.267  0.00  0.00    +0.000 A 
ATOM      3  C   UNL     1       2.532   6.500  20.121  0.00  0.00    +0.000 A 
ATOM      4  C   UNL     1       1.969   7.722  19.745  0.00  0.00    +0.000 A 
ATOM      5  C   UNL     1       2.303   8.278  18.506  0.00  0.00    +0.000 A 
ATOM      6  C   UNL     1       3.200   7.603  17.654  0.00  0.00    +0.000 A 
ENDROOT
BRANCH   4   7
ATOM      7  C   UNL     1       1.087   8.390  20.737  0.00  0.00    +0.000 C 
ATOM      8  O   UNL     1       0.380   7.668  21.431  0.00  0.00    +0.000 OA
ATOM      9  N   UNL     1       1.102   9.766  20.721  0.00  0.00    +0.000 N 
ATOM     10  C   UNL     1       0.255  10.481  21.529  0.00  0.00    +0.000 A 
ATOM     11  N   UNL     1      -0.476  10.066  22.531  0.00  0.00    +0.000 NA
ATOM     12  C   UNL     1      -1.239  11.109  23.012  0.00  0.00    +0.000 A 
ATOM     13  C   UNL     1      -1.066  12.313  22.364  0.00  0.00    +0.000 A 
ATOM     14  S   UNL     1       0.130  12.141  21.142  0.00  0.00    +0.000 S 
ATOM     15  H   UNL     1       1.587  10.278  20.002  0.00  0.00    +0.000 HD
ENDBRANCH   4   7
BRANCH   1  18
ATOM     16  C   UNL     1       4.532   4.419  16.679  0.00  0.00    +0.000 C 
ATOM     17  O   UNL     1       3.557   3.694  16.855  0.00  0.00    +0.000 OA
ATOM     18  N   UNL     1       4.647   5.723  17.141  0.00  0.00    +0.000 N 
ATOM     19  H   UNL     1       5.387   6.291  16.748  0.00  0.00    +0.000 HD
BRANCH  16  21
ATOM     20  C   UNL     1       5.606   4.341  14.399  0.00  0.00    +0.000 C 
ATOM     21  C   UNL     1       5.731   3.932  15.863  0.00  0.00    +0.000 C 
ATOM     22  C   UNL     1       7.029   4.499  16.448  0.00  0.00    +0.000 C 
ENDBRANCH  16  21
ENDBRANCH   1  18
TORSDOF 3
ENDMDL
MODEL 6
REMARK VINA RESULT:      -6.7      3.256      4.799
REMARK  Name = 
REMARK  5 active torsions:
REMARK  status: ('A' for Active; 'I' for Inactive)
REMARK    1  A    between atoms: C_1  and  C_2
REMARK    2  A    between atoms: C_2  and  C_3
REMARK    3  A    between atoms: C_2  and  C_4
REMARK    4  A    between atoms: N_6  and  C_7
REMARK    5  A    between atoms: C_10  and  C_11
REMARK                            x       y       z     vdW  Elec       q    Type
REMARK                         _______ _______ _______ _____ _____    ______ ____
ROOT
ATOM      1  C   UNL     1       2.544   6.687  18.684  0.00  0.00    +0.000 A 
ATOM      2  C   UNL     1       2.282   7.875  17.995  0.00  0.00    +0.000 A 
ATOM      3  C   UNL     1       1.689   8.959  18.640  0.00  0.00    +0.000 A 
ATOM      4  C   UNL     1       1.352   8.885  19.993  0.00  0.00    +0.000 A 
ATOM      5  C   UNL     1       1.599   7.703  20.698  0.00  0.00    +0.000 A 
ATOM      6  C   UNL     1       2.183   6.604  20.038  0.00  0.00    +0.000 A 
ENDROOT
BRANCH   4   7
ATOM      7  C   UNL     1       0.680  10.072  20.586  0.00  0.00    +0.000 C 
ATOM      8  O   UNL     1       1.003  10.385  21.726  0.00  0.00    +0.000 OA
ATOM      9  N   UNL     1      -0.296  10.656  19.812  0.00  0.00    +0.000 N 
ATOM     10  C   UNL     1      -1.043  11.697  20.302  0.00  0.00    +0.000 A 
ATOM     11  N   UNL     1      -0.847  12.420  21.373  0.00  0.00    +0.000 NA
ATOM     12  C   UNL     1      -1.889  13.310  21.530  0.00  0.00    +0.000 A 
ATOM     13  C   UNL     1      -2.866  13.250  20.559  0.00  0.00    +0.000 A 
ATOM     14  S   UNL     1      -2.436  12.071  19.385  0.00  0.00    +0.000 S 
ATOM     15  H   UNL     1      -0.614  10.229  18.957  0.00  0.00    +0.000 HD
ENDBRANCH   4   7
BRANCH   1  18
ATOM     16  C   UNL     1       2.425   4.454  17.587  0.00  0.00    +0.000 C 
ATOM     17  O   UNL     1       1.201   4.372  17.517  0.00  0.00    +0.000 OA
ATOM     18  N   UNL     1       3.122   5.559  18.057  0.00  0.00    +0.000 N 
ATOM     19  H   UNL     1       4.113   5.601  17.859  0.00  0.00    +0.000 HD
BRANCH  16  21
ATOM     20  C   UNL     1       4.737   3.792  16.827  0.00  0.00    +0.000 C 
ATOM     21  C   UNL     1       3.314   3.310  17.097  0.00  0.00    +0.000 C 
ATOM     22  C   UNL     1       3.340   2.184  18.136  0.00  0.00    +0.000 C 
ENDBRANCH  16  21
ENDBRANCH   1  18
TORSDOF 3
ENDMDL
MODEL 7
REMARK VINA RESULT:      -6.6      4.872      6.101
REMARK  Name = 
REMARK  5 active torsions:
REMARK  status: ('A' for Active; 'I' for Inactive)
REMARK    1  A    between atoms: C_1  and  C_2
REMARK    2  A    between atoms: C_2  and  C_3
REMARK    3  A    between atoms: C_2  and  C_4
REMARK    4  A    between atoms: N_6  and  C_7
REMARK    5  A    between atoms: C_10  and  C_11
REMARK                            x       y       z     vdW  Elec       q    Type
REMARK                         _______ _______ _______ _____ _____    ______ ____
ROOT
ATOM      1  C   UNL     1       7.719   8.021  17.811  0.00  0.00    +0.000 A 
ATOM      2  C   UNL     1       6.441   7.979  17.247  0.00  0.00    +0.000 A 
ATOM      3  C   UNL     1       5.595   6.893  17.472  0.00  0.00    +0.000 A 
ATOM      4  C   UNL     1       6.005   5.827  18.277  0.00  0.00    +0.000 A 
ATOM      5  C   UNL     1       7.284   5.848  18.843  0.00  0.00    +0.000 A 
ATOM      6  C   UNL     1       8.141   6.939  18.598  0.00  0.00    +0.000 A 
ENDROOT
BRANCH   4   7
ATOM      7  C   UNL     1       5.058   4.691  18.424  0.00  0.00    +0.000 C 
ATOM      8  O   UNL     1       5.083   3.827  17.555  0.00  0.00    +0.000 OA
ATOM      9  N   UNL     1       4.193   4.767  19.492  0.00  0.00    +0.000 N 
ATOM     10  C   UNL     1       3.215   3.821  19.665  0.00  0.00    +0.000 A 
ATOM     11  N   UNL     1       3.072   2.664  19.071  0.00  0.00    +0.000 NA
ATOM     12  C   UNL     1       1.903   2.068  19.492  0.00  0.00    +0.000 A 
ATOM     13  C   UNL     1       1.173   2.787  20.414  0.00  0.00    +0.000 A 
ATOM     14  S   UNL     1       2.009   4.238  20.801  0.00  0.00    +0.000 S 
ATOM     15  H   UNL     1       4.129   5.598  20.058  0.00  0.00    +0.000 HD
ENDBRANCH   4   7
BRANCH   1  18
ATOM     16  C   UNL     1       9.050   9.994  18.545  0.00  0.00    +0.000 C 
ATOM     17  O   UNL     1       8.839   9.894  19.751  0.00  0.00    +0.000 OA
ATOM     18  N   UNL     1       8.612   9.094  17.584  0.00  0.00    +0.000 N 
ATOM     19  H   UNL     1       9.032   9.154  16.665  0.00  0.00    +0.000 HD
BRANCH  16  21
ATOM     20  C   UNL     1       9.032  12.387  17.749  0.00  0.00    +0.000 C 
ATOM     21  C   UNL     1       9.889  11.148  17.992  0.00  0.00    +0.000 C 
ATOM     22  C   UNL     1      11.022  11.488  18.966  0.00  0.00    +0.000 C 
ENDBRANCH  16  21
ENDBRANCH   1  18
TORSDOF 3
ENDMDL
MODEL 8
REMARK VINA RESULT:      -6.6      3.041      8.672
REMARK  Name = 
REMARK  5 active torsions:
REMARK  status: ('A' for Active; 'I' for Inactive)
REMARK    1  A    between atoms: C_1  and  C_2
REMARK    2  A    between atoms: C_2  and  C_3
REMARK    3  A    between atoms: C_2  and  C_4
REMARK    4  A    between atoms: N_6  and  C_7
REMARK    5  A    between atoms: C_10  and  C_11
REMARK                            x       y       z     vdW  Elec       q    Type
REMARK                         _______ _______ _______ _____ _____    ______ ____
ROOT
ATOM      1  C   UNL     1       0.709   9.741  19.814  0.00  0.00    +0.000 A 
ATOM      2  C   UNL     1       1.014   9.725  18.451  0.00  0.00    +0.000 A 
ATOM      3  C   UNL     1       1.748   8.678  17.894  0.00  0.00    +0.000 A 
ATOM      4  C   UNL     1       2.186   7.615  18.688  0.00  0.00    +0.000 A 
ATOM      5  C   UNL     1       1.896   7.617  20.056  0.00  0.00    +0.000 A 
ATOM      6  C   UNL     1       1.169   8.686  20.617  0.00  0.00    +0.000 A 
ENDROOT
BRANCH   4   7
ATOM      7  C   UNL     1       3.001   6.567  18.020  0.00  0.00    +0.000 C 
ATOM      8  O   UNL     1       2.477   5.471  17.858  0.00  0.00    +0.000 OA
ATOM      9  N   UNL     1       4.297   6.919  17.717  0.00  0.00    +0.000 N 
ATOM     10  C   UNL     1       5.163   5.997  17.187  0.00  0.00    +0.000 A 
ATOM     11  N   UNL     1       4.907   4.814  16.693  0.00  0.00    +0.000 NA
ATOM     12  C   UNL     1       6.086   4.191  16.343  0.00  0.00    +0.000 A 
ATOM     13  C   UNL     1       7.230   4.926  16.573  0.00  0.00    +0.000 A 
ATOM     14  S   UNL     1       6.806   6.466  17.205  0.00  0.00    +0.000 S 
ATOM     15  H   UNL     1       4.695   7.786  18.040  0.00  0.00    +0.000 HD
ENDBRANCH   4   7
BRANCH   1  18
ATOM     16  C   UNL     1       0.552  11.895  21.055  0.00  0.00    +0.000 C 
ATOM     17  O   UNL     1       1.748  12.172  21.053  0.00  0.00    +0.000 OA
ATOM     18  N   UNL     1      -0.011  10.798  20.418  0.00  0.00    +0.000 N 
ATOM     19  H   UNL     1      -1.016  10.796  20.298  0.00  0.00    +0.000 HD
BRANCH  16  21
ATOM     20  C   UNL     1      -1.478  13.364  20.767  0.00  0.00    +0.000 C 
ATOM     21  C   UNL     1      -0.459  12.804  21.756  0.00  0.00    +0.000 C 
ATOM     22  C   UNL     1      -1.186  12.028  22.860  0.00  0.00    +0.000 C 
ENDBRANCH  16  21
ENDBRANCH   1  18
TORSDOF 3
ENDMDL
MODEL 9
REMARK VINA RESULT:      -6.6      4.847      6.078
REMARK  Name = 
REMARK  5 active torsions:
REMARK  status: ('A' for Active; 'I' for Inactive)
REMARK    1  A    between atoms: C_1  and  C_2
REMARK    2  A    between atoms: C_2  and  C_3
REMARK    3  A    between atoms: C_2  and  C_4
REMARK    4  A    between atoms: N_6  and  C_7
REMARK    5  A    between atoms: C_10  and  C_11
REMARK                            x       y       z     vdW  Elec       q    Type
REMARK                         _______ _______ _______ _____ _____    ______ ____
ROOT
ATOM      1  C   UNL     1       7.735   7.983  17.771  0.00  0.00    +0.000 A 
ATOM      2  C   UNL     1       8.063   6.905  18.597  0.00  0.00    +0.000 A 
ATOM      3  C   UNL     1       7.170   5.852  18.789  0.00  0.00    +0.000 A 
ATOM      4  C   UNL     1       5.929   5.846  18.149  0.00  0.00    +0.000 A 
ATOM      5  C   UNL     1       5.578   6.920  17.323  0.00  0.00    +0.000 A 
ATOM      6  C   UNL     1       6.477   7.990  17.147  0.00  0.00    +0.000 A 
ENDROOT
BRANCH   4   7
ATOM      7  C   UNL     1       5.022   4.707  18.447  0.00  0.00    +0.000 C 
ATOM      8  O   UNL     1       5.062   3.747  17.686  0.00  0.00    +0.000 OA
ATOM      9  N   UNL     1       4.172   4.882  19.516  0.00  0.00    +0.000 N 
ATOM     10  C   UNL     1       3.230   3.933  19.819  0.00  0.00    +0.000 A 
ATOM     11  N   UNL     1       3.116   2.710  19.369  0.00  0.00    +0.000 NA
ATOM     12  C   UNL     1       1.974   2.131  19.880  0.00  0.00    +0.000 A 
ATOM     13  C   UNL     1       1.236   2.932  20.725  0.00  0.00    +0.000 A 
ATOM     14  S   UNL     1       2.029   4.444  20.922  0.00  0.00    +0.000 S 
ATOM     15  H   UNL     1       4.090   5.771  19.982  0.00  0.00    +0.000 HD
ENDBRANCH   4   7
BRANCH   1  18
ATOM     16  C   UNL     1       9.036   9.954  18.562  0.00  0.00    +0.000 C 
ATOM     17  O   UNL     1       8.840   9.806  19.765  0.00  0.00    +0.000 OA
ATOM     18  N   UNL     1       8.605   9.080  17.573  0.00  0.00    +0.000 N 
ATOM     19  H   UNL     1       9.012   9.182  16.653  0.00  0.00    +0.000 HD
BRANCH  16  21
ATOM     20  C   UNL     1       8.948  12.350  17.781  0.00  0.00    +0.000 C 
ATOM     21  C   UNL     1       9.845  11.143  18.041  0.00  0.00    +0.000 C 
ATOM     22  C   UNL     1      10.934  11.520  19.052  0.00  0.00    +0.000 C 
ENDBRANCH  16  21
ENDBRANCH   1  18
TORSDOF 3
ENDMDL
