MODEL 1
REMARK VINA RESULT:      -6.9      0.000      0.000
REMARK  Name = 
REMARK  2 active torsions:
REMARK  status: ('A' for Active; 'I' for Inactive)
REMARK    1  A    between atoms: C_1  and  C_2
REMARK    2  A    between atoms: C_12  and  C_14
REMARK                            x       y       z     vdW  Elec       q    Type
REMARK                         _______ _______ _______ _____ _____    ______ ____
ROOT
ATOM      1  C   UNL     1       2.505   5.943  20.150  0.00  0.00    +0.000 C 
ATOM      2  C   UNL     1       3.327   5.296  19.077  0.00  0.00    +0.000 A 
ATOM      3  N   UNL     1       2.672   4.861  17.987  0.00  0.00    +0.000 NA
ATOM      4  C   UNL     1       3.425   4.351  16.999  0.00  0.00    +0.000 A 
ATOM      5  C   UNL     1       4.804   4.277  17.044  0.00  0.00    +0.000 A 
ATOM      6  C   UNL     1       5.407   4.800  18.191  0.00  0.00    +0.000 A 
ATOM      7  N   UNL     1       4.670   5.280  19.227  0.00  0.00    +0.000 NA
ATOM      8  C   UNL     1       6.818   5.405  17.972  0.00  0.00    +0.000 C 
ATOM      9  C   UNL     1       6.411   6.648  17.196  0.00  0.00    +0.000 C 
ATOM     10  C   UNL     1       7.462   7.685  17.074  0.00  0.00    +0.000 C 
ATOM     11  N   UNL     1       8.124   8.075  18.301  0.00  0.00    +0.000 N 
ATOM     12  C   UNL     1       8.302   9.445  18.314  0.00  0.00    +0.000 C 
ATOM     13  O   UNL     1       7.731  10.140  17.469  0.00  0.00    +0.000 OA
ATOM     14  C   UNL     1       8.676   6.969  19.093  0.00  0.00    +0.000 C 
ATOM     15  C   UNL     1       7.645   5.796  19.249  0.00  0.00    +0.000 C 
ATOM     16  O   UNL     1       7.614   4.485  17.188  0.00  0.00    +0.000 OA
ATOM     17  C   UNL     1       7.094   4.185  15.889  0.00  0.00    +0.000 C 
ATOM     18  C   UNL     1       5.597   3.838  15.850  0.00  0.00    +0.000 C 
ENDROOT
BRANCH  12  19
ATOM     19  C   UNL     1       9.186  10.209  19.237  0.00  0.00    +0.000 C 
ATOM     20  C   UNL     1      10.389  10.889  18.481  0.00  0.00    +0.000 C 
ATOM     21  C   UNL     1       9.304  11.720  19.092  0.00  0.00    +0.000 C 
ENDBRANCH  12  19
TORSDOF 1
ENDMDL
MODEL 2
REMARK VINA RESULT:      -6.8      3.584      6.086
REMARK  Name = 
REMARK  2 active torsions:
REMARK  status: ('A' for Active; 'I' for Inactive)
REMARK    1  A    between atoms: C_1  and  C_2
REMARK    2  A    between atoms: C_12  and  C_14
REMARK                            x       y       z     vdW  Elec       q    Type
REMARK                         _______ _______ _______ _____ _____    ______ ____
ROOT
ATOM      1  C   UNL     1       7.457   6.533  18.727  0.00  0.00    +0.000 C 
ATOM      2  C   UNL     1       6.256   5.665  18.507  0.00  0.00    +0.000 A 
ATOM      3  N   UNL     1       6.365   4.373  18.860  0.00  0.00    +0.000 NA
ATOM      4  C   UNL     1       5.260   3.621  18.730  0.00  0.00    +0.000 A 
ATOM      5  C   UNL     1       4.047   4.108  18.283  0.00  0.00    +0.000 A 
ATOM      6  C   UNL     1       4.009   5.474  17.988  0.00  0.00    +0.000 A 
ATOM      7  N   UNL     1       5.120   6.251  18.065  0.00  0.00    +0.000 NA
ATOM      8  C   UNL     1       2.637   6.158  18.225  0.00  0.00    +0.000 C 
ATOM      9  C   UNL     1       2.632   6.131  19.745  0.00  0.00    +0.000 C 
ATOM     10  C   UNL     1       1.619   6.999  20.386  0.00  0.00    +0.000 C 
ATOM     11  N   UNL     1       1.565   8.371  19.926  0.00  0.00    +0.000 N 
ATOM     12  C   UNL     1       1.386   9.213  21.007  0.00  0.00    +0.000 C 
ATOM     13  O   UNL     1       1.509   8.768  22.151  0.00  0.00    +0.000 OA
ATOM     14  C   UNL     1       1.444   8.539  18.473  0.00  0.00    +0.000 C 
ATOM     15  C   UNL     1       2.458   7.626  17.697  0.00  0.00    +0.000 C 
ATOM     16  O   UNL     1       1.591   5.342  17.642  0.00  0.00    +0.000 OA
ATOM     17  C   UNL     1       1.484   4.019  18.175  0.00  0.00    +0.000 C 
ATOM     18  C   UNL     1       2.814   3.257  18.303  0.00  0.00    +0.000 C 
ENDROOT
BRANCH  12  19
ATOM     19  C   UNL     1       0.992  10.648  20.947  0.00  0.00    +0.000 C 
ATOM     20  C   UNL     1      -0.503  10.835  20.490  0.00  0.00    +0.000 C 
ATOM     21  C   UNL     1      -0.086  11.174  21.887  0.00  0.00    +0.000 C 
ENDBRANCH  12  19
TORSDOF 1
ENDMDL
MODEL 3
REMARK VINA RESULT:      -6.5      5.662      8.486
REMARK  Name = 
REMARK  2 active torsions:
REMARK  status: ('A' for Active; 'I' for Inactive)
REMARK    1  A    between atoms: C_1  and  C_2
REMARK    2  A    between atoms: C_12  and  C_14
REMARK                            x       y       z     vdW  Elec       q    Type
REMARK                         _______ _______ _______ _____ _____    ______ ____
ROOT
ATOM      1  C   UNL     1      -3.566   9.809  17.260  0.00  0.00    +0.000 C 
ATOM      2  C   UNL     1      -2.606  10.667  18.027  0.00  0.00    +0.000 A 
ATOM      3  N   UNL     1      -3.127  11.470  18.970  0.00  0.00    +0.000 NA
ATOM      4  C   UNL     1      -2.253  12.178  19.704  0.00  0.00    +0.000 A 
ATOM      5  C   UNL     1      -0.883  12.102  19.550  0.00  0.00    +0.000 A 
ATOM      6  C   UNL     1      -0.425  11.204  18.583  0.00  0.00    +0.000 A 
ATOM      7  N   UNL     1      -1.284  10.508  17.794  0.00  0.00    +0.000 NA
ATOM      8  C   UNL     1       0.953  10.560  18.886  0.00  0.00    +0.000 C 
ATOM      9  C   UNL     1       0.530   9.653  20.030  0.00  0.00    +0.000 C 
ATOM     10  C   UNL     1       1.510   8.604  20.397  0.00  0.00    +0.000 C 
ATOM     11  N   UNL     1       2.029   7.802  19.310  0.00  0.00    +0.000 N 
ATOM     12  C   UNL     1       2.106   6.481  19.707  0.00  0.00    +0.000 C 
ATOM     13  O   UNL     1       1.565   6.130  20.759  0.00  0.00    +0.000 OA
ATOM     14  C   UNL     1       2.585   8.561  18.183  0.00  0.00    +0.000 C 
ATOM     15  C   UNL     1       1.631   9.726  17.740  0.00  0.00    +0.000 C 
ATOM     16  O   UNL     1       1.881  11.593  19.297  0.00  0.00    +0.000 OA
ATOM     17  C   UNL     1       1.503  12.317  20.472  0.00  0.00    +0.000 C 
ATOM     18  C   UNL     1       0.044  12.802  20.499  0.00  0.00    +0.000 C 
ENDROOT
BRANCH  12  19
ATOM     19  C   UNL     1       2.846   5.394  19.009  0.00  0.00    +0.000 C 
ATOM     20  C   UNL     1       4.370   5.363  19.405  0.00  0.00    +0.000 C 
ATOM     21  C   UNL     1       3.453   4.253  19.816  0.00  0.00    +0.000 C 
ENDBRANCH  12  19
TORSDOF 1
ENDMDL
MODEL 4
REMARK VINA RESULT:      -6.3      3.290      5.945
REMARK  Name = 
REMARK  2 active torsions:
REMARK  status: ('A' for Active; 'I' for Inactive)
REMARK    1  A    between atoms: C_1  and  C_2
REMARK    2  A    between atoms: C_12  and  C_14
REMARK                            x       y       z     vdW  Elec       q    Type
REMARK                         _______ _______ _______ _____ _____    ______ ____
ROOT
ATOM      1  C   UNL     1       8.028   7.820  18.120  0.00  0.00    +0.000 C 
ATOM      2  C   UNL     1       7.089   6.662  17.971  0.00  0.00    +0.000 A 
ATOM      3  N   UNL     1       7.543   5.456  18.356  0.00  0.00    +0.000 NA
ATOM      4  C   UNL     1       6.669   4.438  18.289  0.00  0.00    +0.000 A 
ATOM      5  C   UNL     1       5.358   4.576  17.878  0.00  0.00    +0.000 A 
ATOM      6  C   UNL     1       4.955   5.873  17.547  0.00  0.00    +0.000 A 
ATOM      7  N   UNL     1       5.827   6.915  17.559  0.00  0.00    +0.000 NA
ATOM      8  C   UNL     1       3.460   6.185  17.818  0.00  0.00    +0.000 C 
ATOM      9  C   UNL     1       3.510   6.213  19.338  0.00  0.00    +0.000 C 
ATOM     10  C   UNL     1       2.325   6.811  19.995  0.00  0.00    +0.000 C 
ATOM     11  N   UNL     1       1.900   8.103  19.499  0.00  0.00    +0.000 N 
ATOM     12  C   UNL     1       1.541   8.909  20.562  0.00  0.00    +0.000 C 
ATOM     13  O   UNL     1       1.810   8.554  21.712  0.00  0.00    +0.000 OA
ATOM     14  C   UNL     1       1.695   8.181  18.048  0.00  0.00    +0.000 C 
ATOM     15  C   UNL     1       2.888   7.536  17.258  0.00  0.00    +0.000 C 
ATOM     16  O   UNL     1       2.647   5.104  17.300  0.00  0.00    +0.000 OA
ATOM     17  C   UNL     1       2.906   3.819  17.873  0.00  0.00    +0.000 C 
ATOM     18  C   UNL     1       4.391   3.434  17.969  0.00  0.00    +0.000 C 
ENDROOT
BRANCH  12  19
ATOM     19  C   UNL     1       0.783  10.189  20.479  0.00  0.00    +0.000 C 
ATOM     20  C   UNL     1      -0.735   9.959  20.131  0.00  0.00    +0.000 C 
ATOM     21  C   UNL     1      -0.332  10.473  21.478  0.00  0.00    +0.000 C 
ENDBRANCH  12  19
TORSDOF 1
ENDMDL
MODEL 5
REMARK VINA RESULT:      -6.1      2.874      6.453
REMARK  Name = 
REMARK  2 active torsions:
REMARK  status: ('A' for Active; 'I' for Inactive)
REMARK    1  A    between atoms: C_1  and  C_2
REMARK    2  A    between atoms: C_12  and  C_14
REMARK                            x       y       z     vdW  Elec       q    Type
REMARK                         _______ _______ _______ _____ _____    ______ ____
ROOT
ATOM      1  C   UNL     1       5.224   3.846  13.733  0.00  0.00    +0.000 C 
ATOM      2  C   UNL     1       6.028   4.456  14.840  0.00  0.00    +0.000 A 
ATOM      3  N   UNL     1       6.751   5.547  14.538  0.00  0.00    +0.000 NA
ATOM      4  C   UNL     1       7.408   6.132  15.553  0.00  0.00    +0.000 A 
ATOM      5  C   UNL     1       7.357   5.685  16.859  0.00  0.00    +0.000 A 
ATOM      6  C   UNL     1       6.540   4.576  17.094  0.00  0.00    +0.000 A 
ATOM      7  N   UNL     1       5.899   3.935  16.081  0.00  0.00    +0.000 NA
ATOM      8  C   UNL     1       5.887   4.528  18.500  0.00  0.00    +0.000 C 
ATOM      9  C   UNL     1       4.890   5.662  18.323  0.00  0.00    +0.000 C 
ATOM     10  C   UNL     1       3.825   5.730  19.350  0.00  0.00    +0.000 C 
ATOM     11  N   UNL     1       3.114   4.498  19.620  0.00  0.00    +0.000 N 
ATOM     12  C   UNL     1       1.767   4.767  19.770  0.00  0.00    +0.000 C 
ATOM     13  O   UNL     1       1.331   5.878  19.462  0.00  0.00    +0.000 OA
ATOM     14  C   UNL     1       3.963   3.341  19.930  0.00  0.00    +0.000 C 
ATOM     15  C   UNL     1       5.150   3.203  18.913  0.00  0.00    +0.000 C 
ATOM     16  O   UNL     1       6.893   4.811  19.503  0.00  0.00    +0.000 OA
ATOM     17  C   UNL     1       7.521   6.092  19.388  0.00  0.00    +0.000 C 
ATOM     18  C   UNL     1       7.989   6.466  17.972  0.00  0.00    +0.000 C 
ENDROOT
BRANCH  12  19
ATOM     19  C   UNL     1       0.745   3.844  20.336  0.00  0.00    +0.000 C 
ATOM     20  C   UNL     1       0.580   2.538  19.474  0.00  0.00    +0.000 C 
ATOM     21  C   UNL     1       1.165   2.473  20.850  0.00  0.00    +0.000 C 
ENDBRANCH  12  19
TORSDOF 1
ENDMDL
MODEL 6
REMARK VINA RESULT:      -6.0      5.871      8.529
REMARK  Name = 
REMARK  2 active torsions:
REMARK  status: ('A' for Active; 'I' for Inactive)
REMARK    1  A    between atoms: C_1  and  C_2
REMARK    2  A    between atoms: C_12  and  C_14
REMARK                            x       y       z     vdW  Elec       q    Type
REMARK                         _______ _______ _______ _____ _____    ______ ____
ROOT
ATOM      1  C   UNL     1       3.482  13.881  21.072  0.00  0.00    +0.000 C 
ATOM      2  C   UNL     1       2.179  13.527  20.422  0.00  0.00    +0.000 A 
ATOM      3  N   UNL     1       1.690  14.400  19.524  0.00  0.00    +0.000 NA
ATOM      4  C   UNL     1       0.561  14.039  18.891  0.00  0.00    +0.000 A 
ATOM      5  C   UNL     1      -0.086  12.837  19.101  0.00  0.00    +0.000 A 
ATOM      6  C   UNL     1       0.519  11.967  20.011  0.00  0.00    +0.000 A 
ATOM      7  N   UNL     1       1.635  12.322  20.702  0.00  0.00    +0.000 NA
ATOM      8  C   UNL     1       0.304  10.459  19.720  0.00  0.00    +0.000 C 
ATOM      9  C   UNL     1       1.187  10.341  18.488  0.00  0.00    +0.000 C 
ATOM     10  C   UNL     1       1.518   8.956  18.082  0.00  0.00    +0.000 C 
ATOM     11  N   UNL     1       2.020   8.085  19.122  0.00  0.00    +0.000 N 
ATOM     12  C   UNL     1       3.056   7.319  18.623  0.00  0.00    +0.000 C 
ATOM     13  O   UNL     1       3.541   7.596  17.523  0.00  0.00    +0.000 OA
ATOM     14  C   UNL     1       1.191   8.011  20.332  0.00  0.00    +0.000 C 
ATOM     15  C   UNL     1       0.755   9.436  20.824  0.00  0.00    +0.000 C 
ATOM     16  O   UNL     1      -1.096  10.224  19.437  0.00  0.00    +0.000 OA
ATOM     17  C   UNL     1      -1.616  10.934  18.310  0.00  0.00    +0.000 C 
ATOM     18  C   UNL     1      -1.255  12.428  18.256  0.00  0.00    +0.000 C 
ENDROOT
BRANCH  12  19
ATOM     19  C   UNL     1       3.646   6.111  19.264  0.00  0.00    +0.000 C 
ATOM     20  C   UNL     1       2.764   4.827  19.035  0.00  0.00    +0.000 C 
ATOM     21  C   UNL     1       4.114   4.948  18.398  0.00  0.00    +0.000 C 
ENDBRANCH  12  19
TORSDOF 1
ENDMDL
MODEL 7
REMARK VINA RESULT:      -6.0      3.743      5.154
REMARK  Name = 
REMARK  2 active torsions:
REMARK  status: ('A' for Active; 'I' for Inactive)
REMARK    1  A    between atoms: C_1  and  C_2
REMARK    2  A    between atoms: C_12  and  C_14
REMARK                            x       y       z     vdW  Elec       q    Type
REMARK                         _______ _______ _______ _____ _____    ______ ____
ROOT
ATOM      1  C   UNL     1       2.213   8.280  18.808  0.00  0.00    +0.000 C 
ATOM      2  C   UNL     1       2.495   6.896  19.306  0.00  0.00    +0.000 A 
ATOM      3  N   UNL     1       1.452   6.198  19.788  0.00  0.00    +0.000 NA
ATOM      4  C   UNL     1       1.700   4.932  20.163  0.00  0.00    +0.000 A 
ATOM      5  C   UNL     1       2.937   4.328  20.056  0.00  0.00    +0.000 A 
ATOM      6  C   UNL     1       3.952   5.108  19.496  0.00  0.00    +0.000 A 
ATOM      7  N   UNL     1       3.745   6.406  19.151  0.00  0.00    +0.000 NA
ATOM      8  C   UNL     1       5.027   4.318  18.704  0.00  0.00    +0.000 C 
ATOM      9  C   UNL     1       4.180   3.933  17.501  0.00  0.00    +0.000 C 
ATOM     10  C   UNL     1       4.939   3.434  16.332  0.00  0.00    +0.000 C 
ATOM     11  N   UNL     1       6.057   4.245  15.898  0.00  0.00    +0.000 N 
ATOM     12  C   UNL     1       6.081   4.297  14.517  0.00  0.00    +0.000 C 
ATOM     13  O   UNL     1       5.113   3.879  13.877  0.00  0.00    +0.000 OA
ATOM     14  C   UNL     1       7.025   4.589  16.947  0.00  0.00    +0.000 C 
ATOM     15  C   UNL     1       6.312   5.097  18.250  0.00  0.00    +0.000 C 
ATOM     16  O   UNL     1       5.449   3.174  19.486  0.00  0.00    +0.000 OA
ATOM     17  C   UNL     1       4.413   2.242  19.809  0.00  0.00    +0.000 C 
ATOM     18  C   UNL     1       3.116   2.868  20.348  0.00  0.00    +0.000 C 
ENDROOT
BRANCH  12  19
ATOM     19  C   UNL     1       7.213   4.772  13.675  0.00  0.00    +0.000 C 
ATOM     20  C   UNL     1       7.543   3.771  12.504  0.00  0.00    +0.000 C 
ATOM     21  C   UNL     1       6.971   5.124  12.212  0.00  0.00    +0.000 C 
ENDBRANCH  12  19
TORSDOF 1
ENDMDL
MODEL 8
REMARK VINA RESULT:      -6.0      3.379      5.532
REMARK  Name = 
REMARK  2 active torsions:
REMARK  status: ('A' for Active; 'I' for Inactive)
REMARK    1  A    between atoms: C_1  and  C_2
REMARK    2  A    between atoms: C_12  and  C_14
REMARK                            x       y       z     vdW  Elec       q    Type
REMARK                         _______ _______ _______ _____ _____    ______ ____
ROOT
ATOM      1  C   UNL     1       4.889   4.107  13.270  0.00  0.00    +0.000 C 
ATOM      2  C   UNL     1       5.605   4.258  14.578  0.00  0.00    +0.000 A 
ATOM      3  N   UNL     1       6.936   4.435  14.527  0.00  0.00    +0.000 NA
ATOM      4  C   UNL     1       7.558   4.644  15.699  0.00  0.00    +0.000 A 
ATOM      5  C   UNL     1       6.905   4.706  16.915  0.00  0.00    +0.000 A 
ATOM      6  C   UNL     1       5.516   4.564  16.870  0.00  0.00    +0.000 A 
ATOM      7  N   UNL     1       4.863   4.305  15.707  0.00  0.00    +0.000 NA
ATOM      8  C   UNL     1       4.742   5.335  17.972  0.00  0.00    +0.000 C 
ATOM      9  C   UNL     1       4.964   6.747  17.454  0.00  0.00    +0.000 C 
ATOM     10  C   UNL     1       4.093   7.782  18.058  0.00  0.00    +0.000 C 
ATOM     11  N   UNL     1       2.676   7.493  18.084  0.00  0.00    +0.000 N 
ATOM     12  C   UNL     1       1.966   8.634  17.765  0.00  0.00    +0.000 C 
ATOM     13  O   UNL     1       2.563   9.615  17.315  0.00  0.00    +0.000 OA
ATOM     14  C   UNL     1       2.311   6.199  18.676  0.00  0.00    +0.000 C 
ATOM     15  C   UNL     1       3.208   5.036  18.124  0.00  0.00    +0.000 C 
ATOM     16  O   UNL     1       5.374   5.097  19.253  0.00  0.00    +0.000 OA
ATOM     17  C   UNL     1       6.739   5.516  19.344  0.00  0.00    +0.000 C 
ATOM     18  C   UNL     1       7.633   5.092  18.167  0.00  0.00    +0.000 C 
ENDROOT
BRANCH  12  19
ATOM     19  C   UNL     1       0.505   8.845  17.960  0.00  0.00    +0.000 C 
ATOM     20  C   UNL     1       0.181   9.507  19.351  0.00  0.00    +0.000 C 
ATOM     21  C   UNL     1      -0.045  10.261  18.078  0.00  0.00    +0.000 C 
ENDBRANCH  12  19
TORSDOF 1
ENDMDL
MODEL 9
REMARK VINA RESULT:      -5.9      6.309      9.415
REMARK  Name = 
REMARK  2 active torsions:
REMARK  status: ('A' for Active; 'I' for Inactive)
REMARK    1  A    between atoms: C_1  and  C_2
REMARK    2  A    between atoms: C_12  and  C_14
REMARK                            x       y       z     vdW  Elec       q    Type
REMARK                         _______ _______ _______ _____ _____    ______ ____
ROOT
ATOM      1  C   UNL     1       9.199   9.992  19.149  0.00  0.00    +0.000 C 
ATOM      2  C   UNL     1       9.646  11.374  18.781  0.00  0.00    +0.000 A 
ATOM      3  N   UNL     1      10.446  11.489  17.707  0.00  0.00    +0.000 NA
ATOM      4  C   UNL     1      10.780  12.737  17.339  0.00  0.00    +0.000 A 
ATOM      5  C   UNL     1      10.333  13.873  17.984  0.00  0.00    +0.000 A 
ATOM      6  C   UNL     1       9.463  13.664  19.057  0.00  0.00    +0.000 A 
ATOM      7  N   UNL     1       9.143  12.414  19.482  0.00  0.00    +0.000 NA
ATOM      8  C   UNL     1       8.418  14.789  19.284  0.00  0.00    +0.000 C 
ATOM      9  C   UNL     1       7.541  14.527  18.070  0.00  0.00    +0.000 C 
ATOM     10  C   UNL     1       6.219  15.195  18.094  0.00  0.00    +0.000 C 
ATOM     11  N   UNL     1       5.438  15.029  19.301  0.00  0.00    +0.000 N 
ATOM     12  C   UNL     1       4.113  14.824  18.968  0.00  0.00    +0.000 C 
ATOM     13  O   UNL     1       3.809  14.599  17.793  0.00  0.00    +0.000 OA
ATOM     14  C   UNL     1       6.134  15.368  20.549  0.00  0.00    +0.000 C 
ATOM     15  C   UNL     1       7.568  14.733  20.604  0.00  0.00    +0.000 C 
ATOM     16  O   UNL     1       9.084  16.074  19.234  0.00  0.00    +0.000 OA
ATOM     17  C   UNL     1       9.740  16.371  17.998  0.00  0.00    +0.000 C 
ATOM     18  C   UNL     1      10.617  15.239  17.436  0.00  0.00    +0.000 C 
ENDROOT
BRANCH  12  19
ATOM     19  C   UNL     1       2.951  14.899  19.896  0.00  0.00    +0.000 C 
ATOM     20  C   UNL     1       2.468  16.380  20.125  0.00  0.00    +0.000 C 
ATOM     21  C   UNL     1       1.607  15.404  19.385  0.00  0.00    +0.000 C 
ENDBRANCH  12  19
TORSDOF 1
ENDMDL
