MODEL 1
REMARK VINA RESULT:      -5.8      0.000      0.000
REMARK  Name = 
REMARK  9 active torsions:
REMARK  status: ('A' for Active; 'I' for Inactive)
REMARK    1  A    between atoms: C_1  and  O_2
REMARK    2  A    between atoms: O_2  and  C_3
REMARK    3  A    between atoms: C_13  and  N_14
REMARK    4  A    between atoms: C_15  and  C_16
REMARK    5  A    between atoms: C_19  and  C_20
REMARK    6  A    between atoms: C_20  and  O_21
REMARK    7  A    between atoms: O_21  and  C_22
REMARK    8  A    between atoms: C_25  and  O_26
REMARK    9  A    between atoms: O_26  and  C_27
REMARK                            x       y       z     vdW  Elec       q    Type
REMARK                         _______ _______ _______ _____ _____    ______ ____
ROOT
ATOM      1  C   UNL     1      -4.134  13.265  23.088  0.00  0.00    +0.000 C 
ATOM      2  O   UNL     1      -4.129  13.762  24.198  0.00  0.00    +0.000 OA
ATOM      3  N   UNL     1      -3.299  12.256  22.659  0.00  0.00    +0.000 N 
ATOM      4  C   UNL     1      -2.096  11.884  23.188  0.00  0.00    +0.000 C 
ATOM      5  C   UNL     1      -1.166  10.780  22.966  0.00  0.00    +0.000 C 
ATOM      6  N   UNL     1      -0.561  11.186  21.699  0.00  0.00    +0.000 N 
ATOM      7  C   UNL     1       0.702  10.749  21.155  0.00  0.00    +0.000 C 
ATOM      8  C   UNL     1       1.089  11.840  20.497  0.00  0.00    +0.000 C 
ATOM      9  C   UNL     1       0.472  11.870  19.107  0.00  0.00    +0.000 C 
ATOM     10  O   UNL     1       0.225  12.929  18.558  0.00  0.00    +0.000 OA
ATOM     11  C   UNL     1      -0.027  10.529  18.561  0.00  0.00    +0.000 C 
ATOM     12  C   UNL     1       0.927   9.644  18.876  0.00  0.00    +0.000 C 
ATOM     13  C   UNL     1       1.527   8.793  17.819  0.00  0.00    +0.000 C 
ATOM     14  C   UNL     1       1.058   9.495  20.363  0.00  0.00    +0.000 C 
ATOM     15  O   UNL     1       1.558   8.506  20.880  0.00  0.00    +0.000 OA
ATOM     16  C   UNL     1       0.634  12.945  21.408  0.00  0.00    +0.000 C 
ATOM     17  C   UNL     1      -0.939  12.836  21.268  0.00  0.00    +0.000 C 
ATOM     18  C   UNL     1      -2.330  12.324  21.647  0.00  0.00    +0.000 C 
ENDROOT
BRANCH  11  19
ATOM     19  N   UNL     1      -1.365  10.181  18.871  0.00  0.00    +0.000 N 
ATOM     20  H   UNL     1      -1.825  10.993  19.308  0.00  0.00    +0.000 HD
ATOM     21  H   UNL     1      -1.368   9.478  19.618  0.00  0.00    +0.000 HD
ENDBRANCH  11  19
BRANCH   1  23
ATOM     22  C   UNL     1      -6.315  12.980  22.200  0.00  0.00    +0.000 C 
ATOM     23  O   UNL     1      -5.016  13.576  22.092  0.00  0.00    +0.000 OA
ENDBRANCH   1  23
BRANCH  17  24
ATOM     24  O   UNL     1      -1.084  14.053  22.066  0.00  0.00    +0.000 OA
ATOM     25  C   UNL     1      -1.669  15.095  21.244  0.00  0.00    +0.000 C 
ENDBRANCH  17  24
BRANCH  16  26
ATOM     26  C   UNL     1       1.584  14.136  21.227  0.00  0.00    +0.000 C 
BRANCH  26  27
ATOM     27  O   UNL     1       2.986  13.643  21.240  0.00  0.00    +0.000 OA
BRANCH  27  28
ATOM     28  C   UNL     1       3.923  14.398  21.854  0.00  0.00    +0.000 C 
ATOM     29  N   UNL     1       4.731  15.030  20.958  0.00  0.00    +0.000 N 
ATOM     30  O   UNL     1       4.084  14.503  23.064  0.00  0.00    +0.000 OA
ATOM     31  H   UNL     1       4.630  14.877  19.968  0.00  0.00    +0.000 HD
ATOM     32  H   UNL     1       5.500  15.588  21.306  0.00  0.00    +0.000 HD
ENDBRANCH  27  28
ENDBRANCH  26  27
ENDBRANCH  16  26
TORSDOF 6
ENDMDL
MODEL 2
REMARK VINA RESULT:      -5.6      2.493      5.602
REMARK  Name = 
REMARK  9 active torsions:
REMARK  status: ('A' for Active; 'I' for Inactive)
REMARK    1  A    between atoms: C_1  and  O_2
REMARK    2  A    between atoms: O_2  and  C_3
REMARK    3  A    between atoms: C_13  and  N_14
REMARK    4  A    between atoms: C_15  and  C_16
REMARK    5  A    between atoms: C_19  and  C_20
REMARK    6  A    between atoms: C_20  and  O_21
REMARK    7  A    between atoms: O_21  and  C_22
REMARK    8  A    between atoms: C_25  and  O_26
REMARK    9  A    between atoms: O_26  and  C_27
REMARK                            x       y       z     vdW  Elec       q    Type
REMARK                         _______ _______ _______ _____ _____    ______ ____
ROOT
ATOM      1  C   UNL     1      -2.858  10.344  17.498  0.00  0.00    +0.000 C 
ATOM      2  O   UNL     1      -3.373   9.303  17.862  0.00  0.00    +0.000 OA
ATOM      3  N   UNL     1      -1.700  10.887  18.012  0.00  0.00    +0.000 N 
ATOM      4  C   UNL     1      -1.123  10.632  19.223  0.00  0.00    +0.000 C 
ATOM      5  C   UNL     1       0.141  10.990  19.861  0.00  0.00    +0.000 C 
ATOM      6  N   UNL     1      -0.112  12.389  20.200  0.00  0.00    +0.000 N 
ATOM      7  C   UNL     1       0.568  13.183  21.194  0.00  0.00    +0.000 C 
ATOM      8  C   UNL     1      -0.416  13.989  21.594  0.00  0.00    +0.000 C 
ATOM      9  C   UNL     1      -0.526  15.192  20.671  0.00  0.00    +0.000 C 
ATOM     10  O   UNL     1      -1.598  15.739  20.487  0.00  0.00    +0.000 OA
ATOM     11  C   UNL     1       0.711  15.510  19.826  0.00  0.00    +0.000 C 
ATOM     12  C   UNL     1       1.751  15.369  20.657  0.00  0.00    +0.000 C 
ATOM     13  C   UNL     1       2.725  16.476  20.821  0.00  0.00    +0.000 C 
ATOM     14  C   UNL     1       1.885  13.948  21.119  0.00  0.00    +0.000 C 
ATOM     15  O   UNL     1       2.937  13.497  21.548  0.00  0.00    +0.000 OA
ATOM     16  C   UNL     1      -1.608  13.075  21.577  0.00  0.00    +0.000 C 
ATOM     17  C   UNL     1      -1.793  12.832  20.024  0.00  0.00    +0.000 C 
ATOM     18  C   UNL     1      -1.560  12.101  18.701  0.00  0.00    +0.000 C 
ENDROOT
BRANCH  11  19
ATOM     19  N   UNL     1       0.794  14.870  18.565  0.00  0.00    +0.000 N 
ATOM     20  H   UNL     1      -0.067  15.069  18.035  0.00  0.00    +0.000 HD
ATOM     21  H   UNL     1       0.759  13.854  18.698  0.00  0.00    +0.000 HD
ENDBRANCH  11  19
BRANCH   1  23
ATOM     22  C   UNL     1      -3.074  10.607  15.151  0.00  0.00    +0.000 C 
ATOM     23  O   UNL     1      -3.304  11.123  16.468  0.00  0.00    +0.000 OA
ENDBRANCH   1  23
BRANCH  17  24
ATOM     24  O   UNL     1      -3.034  12.109  20.295  0.00  0.00    +0.000 OA
ATOM     25  C   UNL     1      -4.152  12.864  19.761  0.00  0.00    +0.000 C 
ENDBRANCH  17  24
BRANCH  16  26
ATOM     26  C   UNL     1      -2.595  13.557  22.649  0.00  0.00    +0.000 C 
BRANCH  26  27
ATOM     27  O   UNL     1      -3.012  12.398  23.480  0.00  0.00    +0.000 OA
BRANCH  27  28
ATOM     28  C   UNL     1      -4.013  12.577  24.370  0.00  0.00    +0.000 C 
ATOM     29  N   UNL     1      -3.927  13.785  24.992  0.00  0.00    +0.000 N 
ATOM     30  O   UNL     1      -4.891  11.766  24.638  0.00  0.00    +0.000 OA
ATOM     31  H   UNL     1      -3.160  14.410  24.810  0.00  0.00    +0.000 HD
ATOM     32  H   UNL     1      -4.600  14.009  25.713  0.00  0.00    +0.000 HD
ENDBRANCH  27  28
ENDBRANCH  26  27
ENDBRANCH  16  26
TORSDOF 6
ENDMDL
MODEL 3
REMARK VINA RESULT:      -5.6      5.987     10.415
REMARK  Name = 
REMARK  9 active torsions:
REMARK  status: ('A' for Active; 'I' for Inactive)
REMARK    1  A    between atoms: C_1  and  O_2
REMARK    2  A    between atoms: O_2  and  C_3
REMARK    3  A    between atoms: C_13  and  N_14
REMARK    4  A    between atoms: C_15  and  C_16
REMARK    5  A    between atoms: C_19  and  C_20
REMARK    6  A    between atoms: C_20  and  O_21
REMARK    7  A    between atoms: O_21  and  C_22
REMARK    8  A    between atoms: C_25  and  O_26
REMARK    9  A    between atoms: O_26  and  C_27
REMARK                            x       y       z     vdW  Elec       q    Type
REMARK                         _______ _______ _______ _____ _____    ______ ____
ROOT
ATOM      1  C   UNL     1       6.897   4.617  15.333  0.00  0.00    +0.000 C 
ATOM      2  O   UNL     1       6.874   5.123  14.227  0.00  0.00    +0.000 OA
ATOM      3  N   UNL     1       5.834   3.995  15.951  0.00  0.00    +0.000 N 
ATOM      4  C   UNL     1       4.505   4.142  15.678  0.00  0.00    +0.000 C 
ATOM      5  C   UNL     1       3.279   3.479  16.115  0.00  0.00    +0.000 C 
ATOM      6  N   UNL     1       3.134   4.033  17.459  0.00  0.00    +0.000 N 
ATOM      7  C   UNL     1       1.930   4.100  18.251  0.00  0.00    +0.000 C 
ATOM      8  C   UNL     1       2.133   5.227  18.932  0.00  0.00    +0.000 C 
ATOM      9  C   UNL     1       2.966   4.956  20.174  0.00  0.00    +0.000 C 
ATOM     10  O   UNL     1       3.706   5.811  20.626  0.00  0.00    +0.000 OA
ATOM     11  C   UNL     1       2.997   3.504  20.662  0.00  0.00    +0.000 C 
ATOM     12  C   UNL     1       1.733   3.074  20.570  0.00  0.00    +0.000 C 
ATOM     13  C   UNL     1       1.064   2.480  21.753  0.00  0.00    +0.000 C 
ATOM     14  C   UNL     1       1.273   3.050  19.142  0.00  0.00    +0.000 C 
ATOM     15  O   UNL     1       0.338   2.357  18.768  0.00  0.00    +0.000 OA
ATOM     16  C   UNL     1       2.799   6.105  17.910  0.00  0.00    +0.000 C 
ATOM     17  C   UNL     1       4.200   5.388  17.749  0.00  0.00    +0.000 C 
ATOM     18  C   UNL     1       5.181   4.392  17.128  0.00  0.00    +0.000 C 
ENDROOT
BRANCH  11  19
ATOM     19  N   UNL     1       4.009   2.677  20.114  0.00  0.00    +0.000 N 
ATOM     20  H   UNL     1       4.590   3.242  19.477  0.00  0.00    +0.000 HD
ATOM     21  H   UNL     1       3.579   1.986  19.489  0.00  0.00    +0.000 HD
ENDBRANCH  11  19
BRANCH   1  23
ATOM     22  C   UNL     1       7.754   4.451  17.538  0.00  0.00    +0.000 C 
ATOM     23  O   UNL     1       8.004   4.518  16.128  0.00  0.00    +0.000 OA
ENDBRANCH   1  23
BRANCH  17  24
ATOM     24  O   UNL     1       4.652   6.484  16.894  0.00  0.00    +0.000 OA
ATOM     25  C   UNL     1       5.757   7.167  17.539  0.00  0.00    +0.000 C 
ENDBRANCH  17  24
BRANCH  16  26
ATOM     26  C   UNL     1       2.441   7.563  18.227  0.00  0.00    +0.000 C 
BRANCH  26  27
ATOM     27  O   UNL     1       1.363   7.586  19.250  0.00  0.00    +0.000 OA
BRANCH  27  28
ATOM     28  C   UNL     1       1.380   8.570  20.175  0.00  0.00    +0.000 C 
ATOM     29  N   UNL     1       1.783   8.114  21.393  0.00  0.00    +0.000 N 
ATOM     30  O   UNL     1       1.050   9.736  19.992  0.00  0.00    +0.000 OA
ATOM     31  H   UNL     1       1.983   7.139  21.543  0.00  0.00    +0.000 HD
ATOM     32  H   UNL     1       1.791   8.757  22.175  0.00  0.00    +0.000 HD
ENDBRANCH  27  28
ENDBRANCH  26  27
ENDBRANCH  16  26
TORSDOF 6
ENDMDL
MODEL 4
REMARK VINA RESULT:      -5.6      2.761      4.487
REMARK  Name = 
REMARK  9 active torsions:
REMARK  status: ('A' for Active; 'I' for Inactive)
REMARK    1  A    between atoms: C_1  and  O_2
REMARK    2  A    between atoms: O_2  and  C_3
REMARK    3  A    between atoms: C_13  and  N_14
REMARK    4  A    between atoms: C_15  and  C_16
REMARK    5  A    between atoms: C_19  and  C_20
REMARK    6  A    between atoms: C_20  and  O_21
REMARK    7  A    between atoms: O_21  and  C_22
REMARK    8  A    between atoms: C_25  and  O_26
REMARK    9  A    between atoms: O_26  and  C_27
REMARK                            x       y       z     vdW  Elec       q    Type
REMARK                         _______ _______ _______ _____ _____    ______ ____
ROOT
ATOM      1  C   UNL     1      -6.811  13.093  22.459  0.00  0.00    +0.000 C 
ATOM      2  O   UNL     1      -7.434  12.064  22.634  0.00  0.00    +0.000 OA
ATOM      3  N   UNL     1      -5.828  13.284  21.511  0.00  0.00    +0.000 N 
ATOM      4  C   UNL     1      -5.090  12.331  20.869  0.00  0.00    +0.000 C 
ATOM      5  C   UNL     1      -4.137  12.334  19.763  0.00  0.00    +0.000 C 
ATOM      6  N   UNL     1      -2.960  12.900  20.420  0.00  0.00    +0.000 N 
ATOM      7  C   UNL     1      -1.585  12.786  19.998  0.00  0.00    +0.000 C 
ATOM      8  C   UNL     1      -0.956  12.785  21.172  0.00  0.00    +0.000 C 
ATOM      9  C   UNL     1      -0.718  14.209  21.650  0.00  0.00    +0.000 C 
ATOM     10  O   UNL     1      -0.679  14.468  22.840  0.00  0.00    +0.000 OA
ATOM     11  C   UNL     1      -0.774  15.299  20.576  0.00  0.00    +0.000 C 
ATOM     12  C   UNL     1      -0.103  14.799  19.532  0.00  0.00    +0.000 C 
ATOM     13  C   UNL     1       1.016  15.568  18.933  0.00  0.00    +0.000 C 
ATOM     14  C   UNL     1      -0.795  13.592  18.971  0.00  0.00    +0.000 C 
ATOM     15  O   UNL     1      -0.609  13.204  17.827  0.00  0.00    +0.000 OA
ATOM     16  C   UNL     1      -1.887  11.981  22.036  0.00  0.00    +0.000 C 
ATOM     17  C   UNL     1      -3.123  12.962  22.158  0.00  0.00    +0.000 C 
ATOM     18  C   UNL     1      -4.469  13.551  21.734  0.00  0.00    +0.000 C 
ENDROOT
BRANCH  11  19
ATOM     19  N   UNL     1      -2.046  15.868  20.321  0.00  0.00    +0.000 N 
ATOM     20  H   UNL     1      -2.287  16.503  21.096  0.00  0.00    +0.000 HD
ATOM     21  H   UNL     1      -2.763  15.136  20.386  0.00  0.00    +0.000 HD
ENDBRANCH  11  19
BRANCH   1  23
ATOM     22  C   UNL     1      -7.744  15.273  22.414  0.00  0.00    +0.000 C 
ATOM     23  O   UNL     1      -7.023  14.264  23.132  0.00  0.00    +0.000 OA
ENDBRANCH   1  23
BRANCH  17  24
ATOM     24  O   UNL     1      -3.738  12.051  23.122  0.00  0.00    +0.000 OA
ATOM     25  C   UNL     1      -3.880  12.729  24.396  0.00  0.00    +0.000 C 
ENDBRANCH  17  24
BRANCH  16  26
ATOM     26  C   UNL     1      -1.050  11.271  23.108  0.00  0.00    +0.000 C 
BRANCH  26  27
ATOM     27  O   UNL     1      -0.834   9.859  22.697  0.00  0.00    +0.000 OA
BRANCH  27  28
ATOM     28  C   UNL     1       0.381   9.511  22.221  0.00  0.00    +0.000 C 
ATOM     29  N   UNL     1       0.323   9.129  20.916  0.00  0.00    +0.000 N 
ATOM     30  O   UNL     1       1.427   9.495  22.859  0.00  0.00    +0.000 OA
ATOM     31  H   UNL     1      -0.555   9.081  20.426  0.00  0.00    +0.000 HD
ATOM     32  H   UNL     1       1.169   8.803  20.466  0.00  0.00    +0.000 HD
ENDBRANCH  27  28
ENDBRANCH  26  27
ENDBRANCH  16  26
TORSDOF 6
ENDMDL
MODEL 5
REMARK VINA RESULT:      -5.5      1.190      1.217
REMARK  Name = 
REMARK  9 active torsions:
REMARK  status: ('A' for Active; 'I' for Inactive)
REMARK    1  A    between atoms: C_1  and  O_2
REMARK    2  A    between atoms: O_2  and  C_3
REMARK    3  A    between atoms: C_13  and  N_14
REMARK    4  A    between atoms: C_15  and  C_16
REMARK    5  A    between atoms: C_19  and  C_20
REMARK    6  A    between atoms: C_20  and  O_21
REMARK    7  A    between atoms: O_21  and  C_22
REMARK    8  A    between atoms: C_25  and  O_26
REMARK    9  A    between atoms: O_26  and  C_27
REMARK                            x       y       z     vdW  Elec       q    Type
REMARK                         _______ _______ _______ _____ _____    ______ ____
ROOT
ATOM      1  C   UNL     1      -4.242  13.497  22.842  0.00  0.00    +0.000 C 
ATOM      2  O   UNL     1      -4.260  14.048  23.926  0.00  0.00    +0.000 OA
ATOM      3  N   UNL     1      -3.393  12.474  22.477  0.00  0.00    +0.000 N 
ATOM      4  C   UNL     1      -2.199  12.137  23.045  0.00  0.00    +0.000 C 
ATOM      5  C   UNL     1      -1.258  11.029  22.894  0.00  0.00    +0.000 C 
ATOM      6  N   UNL     1      -0.633  11.376  21.619  0.00  0.00    +0.000 N 
ATOM      7  C   UNL     1       0.643  10.921  21.120  0.00  0.00    +0.000 C 
ATOM      8  C   UNL     1       1.035  11.982  20.416  0.00  0.00    +0.000 C 
ATOM      9  C   UNL     1       0.443  11.940  19.016  0.00  0.00    +0.000 C 
ATOM     10  O   UNL     1       0.199  12.969  18.411  0.00  0.00    +0.000 OA
ATOM     11  C   UNL     1      -0.038  10.570  18.527  0.00  0.00    +0.000 C 
ATOM     12  C   UNL     1       0.915   9.708  18.902  0.00  0.00    +0.000 C 
ATOM     13  C   UNL     1       1.539   8.811  17.898  0.00  0.00    +0.000 C 
ATOM     14  C   UNL     1       1.019   9.632  20.396  0.00  0.00    +0.000 C 
ATOM     15  O   UNL     1       1.516   8.674  20.969  0.00  0.00    +0.000 OA
ATOM     16  C   UNL     1       0.557  13.127  21.264  0.00  0.00    +0.000 C 
ATOM     17  C   UNL     1      -1.012  13.001  21.101  0.00  0.00    +0.000 C 
ATOM     18  C   UNL     1      -2.407  12.499  21.480  0.00  0.00    +0.000 C 
ENDROOT
BRANCH  11  19
ATOM     19  N   UNL     1      -1.380  10.229  18.830  0.00  0.00    +0.000 N 
ATOM     20  H   UNL     1      -1.884  10.052  17.949  0.00  0.00    +0.000 HD
ATOM     21  H   UNL     1      -1.860  11.051  19.214  0.00  0.00    +0.000 HD
ENDBRANCH  11  19
BRANCH   1  23
ATOM     22  C   UNL     1      -5.405  15.135  21.580  0.00  0.00    +0.000 C 
ATOM     23  O   UNL     1      -5.108  13.753  21.816  0.00  0.00    +0.000 OA
ENDBRANCH   1  23
BRANCH  17  24
ATOM     24  O   UNL     1      -1.179  14.254  21.836  0.00  0.00    +0.000 OA
ATOM     25  C   UNL     1      -1.712  15.264  20.941  0.00  0.00    +0.000 C 
ENDBRANCH  17  24
BRANCH  16  26
ATOM     26  C   UNL     1       1.503  14.314  21.041  0.00  0.00    +0.000 C 
BRANCH  26  27
ATOM     27  O   UNL     1       2.001  14.790  22.358  0.00  0.00    +0.000 OA
BRANCH  27  28
ATOM     28  C   UNL     1       1.859  16.099  22.660  0.00  0.00    +0.000 C 
ATOM     29  N   UNL     1       1.567  16.844  21.558  0.00  0.00    +0.000 N 
ATOM     30  O   UNL     1       1.999  16.602  23.768  0.00  0.00    +0.000 OA
ATOM     31  H   UNL     1       1.523  16.425  20.644  0.00  0.00    +0.000 HD
ATOM     32  H   UNL     1       1.482  17.847  21.658  0.00  0.00    +0.000 HD
ENDBRANCH  27  28
ENDBRANCH  26  27
ENDBRANCH  16  26
TORSDOF 6
ENDMDL
MODEL 6
REMARK VINA RESULT:      -5.4      6.016     10.413
REMARK  Name = 
REMARK  9 active torsions:
REMARK  status: ('A' for Active; 'I' for Inactive)
REMARK    1  A    between atoms: C_1  and  O_2
REMARK    2  A    between atoms: O_2  and  C_3
REMARK    3  A    between atoms: C_13  and  N_14
REMARK    4  A    between atoms: C_15  and  C_16
REMARK    5  A    between atoms: C_19  and  C_20
REMARK    6  A    between atoms: C_20  and  O_21
REMARK    7  A    between atoms: O_21  and  C_22
REMARK    8  A    between atoms: C_25  and  O_26
REMARK    9  A    between atoms: O_26  and  C_27
REMARK                            x       y       z     vdW  Elec       q    Type
REMARK                         _______ _______ _______ _____ _____    ______ ____
ROOT
ATOM      1  C   UNL     1       6.837   4.651  15.390  0.00  0.00    +0.000 C 
ATOM      2  O   UNL     1       6.816   5.212  14.311  0.00  0.00    +0.000 OA
ATOM      3  N   UNL     1       5.763   4.031  15.991  0.00  0.00    +0.000 N 
ATOM      4  C   UNL     1       4.435   4.231  15.742  0.00  0.00    +0.000 C 
ATOM      5  C   UNL     1       3.196   3.582  16.162  0.00  0.00    +0.000 C 
ATOM      6  N   UNL     1       3.083   4.073  17.534  0.00  0.00    +0.000 N 
ATOM      7  C   UNL     1       1.891   4.135  18.344  0.00  0.00    +0.000 C 
ATOM      8  C   UNL     1       2.135   5.221  19.077  0.00  0.00    +0.000 C 
ATOM      9  C   UNL     1       2.974   4.864  20.294  0.00  0.00    +0.000 C 
ATOM     10  O   UNL     1       3.745   5.674  20.777  0.00  0.00    +0.000 OA
ATOM     11  C   UNL     1       2.968   3.390  20.709  0.00  0.00    +0.000 C 
ATOM     12  C   UNL     1       1.691   3.002  20.612  0.00  0.00    +0.000 C 
ATOM     13  C   UNL     1       1.018   2.370  21.773  0.00  0.00    +0.000 C 
ATOM     14  C   UNL     1       1.213   3.062  19.191  0.00  0.00    +0.000 C 
ATOM     15  O   UNL     1       0.254   2.416  18.795  0.00  0.00    +0.000 OA
ATOM     16  C   UNL     1       2.815   6.129  18.091  0.00  0.00    +0.000 C 
ATOM     17  C   UNL     1       4.192   5.380  17.876  0.00  0.00    +0.000 C 
ATOM     18  C   UNL     1       5.136   4.388  17.194  0.00  0.00    +0.000 C 
ENDROOT
BRANCH  11  19
ATOM     19  N   UNL     1       3.948   2.562  20.107  0.00  0.00    +0.000 N 
ATOM     20  H   UNL     1       4.132   1.761  20.728  0.00  0.00    +0.000 HD
ATOM     21  H   UNL     1       4.846   3.058  20.089  0.00  0.00    +0.000 HD
ENDBRANCH  11  19
BRANCH   1  23
ATOM     22  C   UNL     1       7.728   4.478  17.581  0.00  0.00    +0.000 C 
ATOM     23  O   UNL     1       7.949   4.481  16.165  0.00  0.00    +0.000 OA
ENDBRANCH   1  23
BRANCH  17  24
ATOM     24  O   UNL     1       4.666   6.504  17.070  0.00  0.00    +0.000 OA
ATOM     25  C   UNL     1       5.798   7.122  17.735  0.00  0.00    +0.000 C 
ENDBRANCH  17  24
BRANCH  16  26
ATOM     26  C   UNL     1       2.504   7.579  18.484  0.00  0.00    +0.000 C 
BRANCH  26  27
ATOM     27  O   UNL     1       1.618   8.181  17.454  0.00  0.00    +0.000 OA
BRANCH  27  28
ATOM     28  C   UNL     1       1.081   9.395  17.704  0.00  0.00    +0.000 C 
ATOM     29  N   UNL     1       2.030  10.371  17.743  0.00  0.00    +0.000 N 
ATOM     30  O   UNL     1      -0.104   9.629  17.911  0.00  0.00    +0.000 OA
ATOM     31  H   UNL     1       3.006  10.151  17.640  0.00  0.00    +0.000 HD
ATOM     32  H   UNL     1       1.746  11.316  17.967  0.00  0.00    +0.000 HD
ENDBRANCH  27  28
ENDBRANCH  26  27
ENDBRANCH  16  26
TORSDOF 6
ENDMDL
MODEL 7
REMARK VINA RESULT:      -5.4      2.323      5.720
REMARK  Name = 
REMARK  9 active torsions:
REMARK  status: ('A' for Active; 'I' for Inactive)
REMARK    1  A    between atoms: C_1  and  O_2
REMARK    2  A    between atoms: O_2  and  C_3
REMARK    3  A    between atoms: C_13  and  N_14
REMARK    4  A    between atoms: C_15  and  C_16
REMARK    5  A    between atoms: C_19  and  C_20
REMARK    6  A    between atoms: C_20  and  O_21
REMARK    7  A    between atoms: O_21  and  C_22
REMARK    8  A    between atoms: C_25  and  O_26
REMARK    9  A    between atoms: O_26  and  C_27
REMARK                            x       y       z     vdW  Elec       q    Type
REMARK                         _______ _______ _______ _____ _____    ______ ____
ROOT
ATOM      1  C   UNL     1       2.169  16.043  19.972  0.00  0.00    +0.000 C 
ATOM      2  O   UNL     1       3.309  15.895  20.368  0.00  0.00    +0.000 OA
ATOM      3  N   UNL     1       1.028  15.740  20.683  0.00  0.00    +0.000 N 
ATOM      4  C   UNL     1       0.906  14.893  21.747  0.00  0.00    +0.000 C 
ATOM      5  C   UNL     1      -0.158  14.567  22.693  0.00  0.00    +0.000 C 
ATOM      6  N   UNL     1      -1.027  13.746  21.851  0.00  0.00    +0.000 N 
ATOM      7  C   UNL     1      -2.016  12.791  22.288  0.00  0.00    +0.000 C 
ATOM      8  C   UNL     1      -1.955  11.892  21.307  0.00  0.00    +0.000 C 
ATOM      9  C   UNL     1      -2.838  12.313  20.143  0.00  0.00    +0.000 C 
ATOM     10  O   UNL     1      -2.556  11.998  19.001  0.00  0.00    +0.000 OA
ATOM     11  C   UNL     1      -3.935  13.333  20.463  0.00  0.00    +0.000 C 
ATOM     12  C   UNL     1      -4.467  12.926  21.622  0.00  0.00    +0.000 C 
ATOM     13  C   UNL     1      -5.930  12.708  21.731  0.00  0.00    +0.000 C 
ATOM     14  C   UNL     1      -3.461  12.997  22.733  0.00  0.00    +0.000 C 
ATOM     15  O   UNL     1      -3.789  13.055  23.909  0.00  0.00    +0.000 OA
ATOM     16  C   UNL     1      -0.485  11.852  20.996  0.00  0.00    +0.000 C 
ATOM     17  C   UNL     1      -0.266  13.280  20.349  0.00  0.00    +0.000 C 
ATOM     18  C   UNL     1       0.060  14.774  20.371  0.00  0.00    +0.000 C 
ENDROOT
BRANCH  11  19
ATOM     19  N   UNL     1      -3.577  14.699  20.355  0.00  0.00    +0.000 N 
ATOM     20  H   UNL     1      -3.904  15.196  21.196  0.00  0.00    +0.000 HD
ATOM     21  H   UNL     1      -4.118  15.133  19.599  0.00  0.00    +0.000 HD
ENDBRANCH  11  19
BRANCH   1  23
ATOM     22  C   UNL     1       1.309  17.937  18.831  0.00  0.00    +0.000 C 
ATOM     23  O   UNL     1       1.820  16.599  18.773  0.00  0.00    +0.000 OA
ENDBRANCH   1  23
BRANCH  17  24
ATOM     24  O   UNL     1       1.108  12.906  20.016  0.00  0.00    +0.000 OA
ATOM     25  C   UNL     1       1.257  12.872  18.574  0.00  0.00    +0.000 C 
ENDBRANCH  17  24
BRANCH  16  26
ATOM     26  C   UNL     1      -0.142  10.447  20.485  0.00  0.00    +0.000 C 
BRANCH  26  27
ATOM     27  O   UNL     1      -0.381   9.464  21.574  0.00  0.00    +0.000 OA
BRANCH  27  28
ATOM     28  C   UNL     1       0.525   9.385  22.573  0.00  0.00    +0.000 C 
ATOM     29  N   UNL     1       1.701   8.844  22.149  0.00  0.00    +0.000 N 
ATOM     30  O   UNL     1       0.343   9.718  23.738  0.00  0.00    +0.000 OA
ATOM     31  H   UNL     1       1.810   8.512  21.206  0.00  0.00    +0.000 HD
ATOM     32  H   UNL     1       2.439   8.695  22.825  0.00  0.00    +0.000 HD
ENDBRANCH  27  28
ENDBRANCH  26  27
ENDBRANCH  16  26
TORSDOF 6
ENDMDL
MODEL 8
REMARK VINA RESULT:      -5.3      3.192      7.024
REMARK  Name = 
REMARK  9 active torsions:
REMARK  status: ('A' for Active; 'I' for Inactive)
REMARK    1  A    between atoms: C_1  and  O_2
REMARK    2  A    between atoms: O_2  and  C_3
REMARK    3  A    between atoms: C_13  and  N_14
REMARK    4  A    between atoms: C_15  and  C_16
REMARK    5  A    between atoms: C_19  and  C_20
REMARK    6  A    between atoms: C_20  and  O_21
REMARK    7  A    between atoms: O_21  and  C_22
REMARK    8  A    between atoms: C_25  and  O_26
REMARK    9  A    between atoms: O_26  and  C_27
REMARK                            x       y       z     vdW  Elec       q    Type
REMARK                         _______ _______ _______ _____ _____    ______ ____
ROOT
ATOM      1  C   UNL     1      -2.650  10.544  17.307  0.00  0.00    +0.000 C 
ATOM      2  O   UNL     1      -2.932   9.365  17.408  0.00  0.00    +0.000 OA
ATOM      3  N   UNL     1      -2.074  11.318  18.292  0.00  0.00    +0.000 N 
ATOM      4  C   UNL     1      -2.058  11.083  19.637  0.00  0.00    +0.000 C 
ATOM      5  C   UNL     1      -1.393  11.694  20.785  0.00  0.00    +0.000 C 
ATOM      6  N   UNL     1      -2.181  12.915  20.938  0.00  0.00    +0.000 N 
ATOM      7  C   UNL     1      -2.299  13.736  22.119  0.00  0.00    +0.000 C 
ATOM      8  C   UNL     1      -3.549  14.182  21.996  0.00  0.00    +0.000 C 
ATOM      9  C   UNL     1      -3.589  15.413  21.105  0.00  0.00    +0.000 C 
ATOM     10  O   UNL     1      -4.572  15.661  20.430  0.00  0.00    +0.000 OA
ATOM     11  C   UNL     1      -2.265  16.164  20.930  0.00  0.00    +0.000 C 
ATOM     12  C   UNL     1      -1.724  16.212  22.153  0.00  0.00    +0.000 C 
ATOM     13  C   UNL     1      -1.315  17.516  22.732  0.00  0.00    +0.000 C 
ATOM     14  C   UNL     1      -1.390  14.838  22.653  0.00  0.00    +0.000 C 
ATOM     15  O   UNL     1      -0.564  14.645  23.533  0.00  0.00    +0.000 OA
ATOM     16  C   UNL     1      -4.267  12.983  21.442  0.00  0.00    +0.000 C 
ATOM     17  C   UNL     1      -3.647  12.895  19.988  0.00  0.00    +0.000 C 
ATOM     18  C   UNL     1      -2.634  12.428  18.941  0.00  0.00    +0.000 C 
ENDROOT
BRANCH  11  19
ATOM     19  N   UNL     1      -1.434  15.734  19.867  0.00  0.00    +0.000 N 
ATOM     20  H   UNL     1      -1.957  15.063  19.286  0.00  0.00    +0.000 HD
ATOM     21  H   UNL     1      -0.665  15.168  20.245  0.00  0.00    +0.000 HD
ENDBRANCH  11  19
BRANCH   1  23
ATOM     22  C   UNL     1      -3.003  10.555  14.961  0.00  0.00    +0.000 C 
ATOM     23  O   UNL     1      -2.796  11.292  16.172  0.00  0.00    +0.000 OA
ENDBRANCH   1  23
BRANCH  17  24
ATOM     24  O   UNL     1      -4.593  11.829  19.661  0.00  0.00    +0.000 OA
ATOM     25  C   UNL     1      -5.484  12.287  18.612  0.00  0.00    +0.000 C 
ENDBRANCH  17  24
BRANCH  16  26
ATOM     26  C   UNL     1      -5.724  13.037  21.918  0.00  0.00    +0.000 C 
BRANCH  26  27
ATOM     27  O   UNL     1      -5.756  12.888  23.396  0.00  0.00    +0.000 OA
BRANCH  27  28
ATOM     28  C   UNL     1      -6.935  12.584  23.982  0.00  0.00    +0.000 C 
ATOM     29  N   UNL     1      -7.454  13.646  24.657  0.00  0.00    +0.000 N 
ATOM     30  O   UNL     1      -7.488  11.491  23.962  0.00  0.00    +0.000 OA
ATOM     31  H   UNL     1      -6.953  14.517  24.722  0.00  0.00    +0.000 HD
ATOM     32  H   UNL     1      -8.315  13.520  25.173  0.00  0.00    +0.000 HD
ENDBRANCH  27  28
ENDBRANCH  26  27
ENDBRANCH  16  26
TORSDOF 6
ENDMDL
MODEL 9
REMARK VINA RESULT:      -5.3      2.316      6.040
REMARK  Name = 
REMARK  9 active torsions:
REMARK  status: ('A' for Active; 'I' for Inactive)
REMARK    1  A    between atoms: C_1  and  O_2
REMARK    2  A    between atoms: O_2  and  C_3
REMARK    3  A    between atoms: C_13  and  N_14
REMARK    4  A    between atoms: C_15  and  C_16
REMARK    5  A    between atoms: C_19  and  C_20
REMARK    6  A    between atoms: C_20  and  O_21
REMARK    7  A    between atoms: O_21  and  C_22
REMARK    8  A    between atoms: C_25  and  O_26
REMARK    9  A    between atoms: O_26  and  C_27
REMARK                            x       y       z     vdW  Elec       q    Type
REMARK                         _______ _______ _______ _____ _____    ______ ____
ROOT
ATOM      1  C   UNL     1       1.361   9.423  18.468  0.00  0.00    +0.000 C 
ATOM      2  O   UNL     1       1.599   9.479  17.276  0.00  0.00    +0.000 OA
ATOM      3  N   UNL     1       0.189   9.826  19.071  0.00  0.00    +0.000 N 
ATOM      4  C   UNL     1      -0.748  10.690  18.582  0.00  0.00    +0.000 C 
ATOM      5  C   UNL     1      -2.082  11.113  18.999  0.00  0.00    +0.000 C 
ATOM      6  N   UNL     1      -1.751  11.996  20.116  0.00  0.00    +0.000 N 
ATOM      7  C   UNL     1      -2.577  13.034  20.684  0.00  0.00    +0.000 C 
ATOM      8  C   UNL     1      -1.654  13.915  21.066  0.00  0.00    +0.000 C 
ATOM      9  C   UNL     1      -1.113  13.558  22.441  0.00  0.00    +0.000 C 
ATOM     10  O   UNL     1       0.030  13.838  22.753  0.00  0.00    +0.000 OA
ATOM     11  C   UNL     1      -1.992  12.636  23.293  0.00  0.00    +0.000 C 
ATOM     12  C   UNL     1      -3.239  13.097  23.138  0.00  0.00    +0.000 C 
ATOM     13  C   UNL     1      -4.057  13.437  24.329  0.00  0.00    +0.000 C 
ATOM     14  C   UNL     1      -3.696  12.953  21.717  0.00  0.00    +0.000 C 
ATOM     15  O   UNL     1      -4.879  12.934  21.409  0.00  0.00    +0.000 OA
ATOM     16  C   UNL     1      -0.646  13.829  19.954  0.00  0.00    +0.000 C 
ATOM     17  C   UNL     1      -0.048  12.383  20.188  0.00  0.00    +0.000 C 
ATOM     18  C   UNL     1       0.021  10.866  19.996  0.00  0.00    +0.000 C 
ENDROOT
BRANCH  11  19
ATOM     19  N   UNL     1      -1.787  11.244  23.130  0.00  0.00    +0.000 N 
ATOM     20  H   UNL     1      -1.077  10.932  23.809  0.00  0.00    +0.000 HD
ATOM     21  H   UNL     1      -1.337  11.071  22.224  0.00  0.00    +0.000 HD
ENDBRANCH  11  19
BRANCH   1  23
ATOM     22  C   UNL     1       2.198   7.456  19.496  0.00  0.00    +0.000 C 
ATOM     23  O   UNL     1       2.193   8.886  19.410  0.00  0.00    +0.000 OA
ENDBRANCH   1  23
BRANCH  17  24
ATOM     24  O   UNL     1       0.947  12.637  19.148  0.00  0.00    +0.000 OA
ATOM     25  C   UNL     1       2.253  12.782  19.763  0.00  0.00    +0.000 C 
ENDBRANCH  17  24
BRANCH  16  26
ATOM     26  C   UNL     1       0.038  15.196  19.823  0.00  0.00    +0.000 C 
BRANCH  26  27
ATOM     27  O   UNL     1      -0.115  15.682  18.427  0.00  0.00    +0.000 OA
BRANCH  27  28
ATOM     28  C   UNL     1      -0.680  16.893  18.230  0.00  0.00    +0.000 C 
ATOM     29  N   UNL     1      -1.739  17.099  19.061  0.00  0.00    +0.000 N 
ATOM     30  O   UNL     1      -0.335  17.722  17.397  0.00  0.00    +0.000 OA
ATOM     31  H   UNL     1      -2.052  16.380  19.692  0.00  0.00    +0.000 HD
ATOM     32  H   UNL     1      -2.268  17.957  18.971  0.00  0.00    +0.000 HD
ENDBRANCH  27  28
ENDBRANCH  26  27
ENDBRANCH  16  26
TORSDOF 6
ENDMDL
