MODEL 1
REMARK VINA RESULT:      -6.8      0.000      0.000
REMARK  Name = 
REMARK  11 active torsions:
REMARK  status: ('A' for Active; 'I' for Inactive)
REMARK    1  A    between atoms: C_1  and  O_2
REMARK    2  A    between atoms: O_2  and  C_3
REMARK    3  A    between atoms: C_5  and  C_6
REMARK    4  A    between atoms: C_7  and  C_8
REMARK    5  A    between atoms: C_7  and  C_17
REMARK    6  A    between atoms: C_20  and  S_21
REMARK    7  A    between atoms: S_21  and  C_22
REMARK    8  A    between atoms: C_26  and  O_27
REMARK    9  A    between atoms: O_27  and  C_28
REMARK   10  A    between atoms: C_29  and  O_30
REMARK   11  A    between atoms: O_30  and  C_31
REMARK                            x       y       z     vdW  Elec       q    Type
REMARK                         _______ _______ _______ _____ _____    ______ ____
ROOT
ATOM      1  C   UNL     1      -0.424  12.625  18.498  0.00  0.00    +0.000 C 
ATOM      2  C   UNL     1       0.774  12.111  18.834  0.00  0.00    +0.000 C 
ENDROOT
BRANCH   2   3
ATOM      3  C   UNL     1       2.025  12.979  18.801  0.00  0.00    +0.000 C 
ATOM      4  O   UNL     1       2.916  12.694  17.993  0.00  0.00    +0.000 OA
ATOM      5  N   UNL     1       2.164  14.080  19.648  0.00  0.00    +0.000 N 
ATOM      6  C   UNL     1       3.246  15.005  19.309  0.00  0.00    +0.000 C 
ATOM      7  C   UNL     1       2.906  16.450  19.657  0.00  0.00    +0.000 C 
ATOM      8  C   UNL     1       2.297  16.533  21.019  0.00  0.00    +0.000 C 
ATOM      9  C   UNL     1       1.789  15.454  21.631  0.00  0.00    +0.000 C 
ATOM     10  C   UNL     1       1.722  14.112  20.969  0.00  0.00    +0.000 C 
ATOM     11  O   UNL     1       1.266  13.174  21.605  0.00  0.00    +0.000 OA
ENDBRANCH   2   3
BRANCH   1  14
ATOM     12  C   UNL     1      -4.028  12.068  19.405  0.00  0.00    +0.000 A 
ATOM     13  C   UNL     1      -2.641  12.258  19.560  0.00  0.00    +0.000 A 
ATOM     14  C   UNL     1      -1.766  12.026  18.497  0.00  0.00    +0.000 A 
ATOM     15  C   UNL     1      -2.261  11.478  17.318  0.00  0.00    +0.000 A 
ATOM     16  C   UNL     1      -3.634  11.253  17.156  0.00  0.00    +0.000 A 
ATOM     17  C   UNL     1      -4.543  11.555  18.194  0.00  0.00    +0.000 A 
BRANCH  12  19
ATOM     18  C   UNL     1      -4.298  12.786  21.655  0.00  0.00    +0.000 C 
ATOM     19  O   UNL     1      -4.891  12.346  20.434  0.00  0.00    +0.000 OA
ENDBRANCH  12  19
BRANCH  16  20
ATOM     20  O   UNL     1      -3.944  10.731  15.922  0.00  0.00    +0.000 OA
ATOM     21  C   UNL     1      -2.839  10.402  15.087  0.00  0.00    +0.000 C 
ENDBRANCH  16  20
BRANCH  17  22
ATOM     22  O   UNL     1      -5.860  11.272  17.933  0.00  0.00    +0.000 OA
ATOM     23  C   UNL     1      -6.717  12.296  17.448  0.00  0.00    +0.000 C 
ENDBRANCH  17  22
ENDBRANCH   1  14
BRANCH   2  24
ATOM     24  C   UNL     1       0.980  10.664  19.038  0.00  0.00    +0.000 A 
ATOM     25  C   UNL     1       1.503   9.886  17.996  0.00  0.00    +0.000 A 
ATOM     26  C   UNL     1       1.895   8.562  18.226  0.00  0.00    +0.000 A 
ATOM     27  C   UNL     1       1.773   7.994  19.499  0.00  0.00    +0.000 A 
ATOM     28  C   UNL     1       1.201   8.757  20.523  0.00  0.00    +0.000 A 
ATOM     29  C   UNL     1       0.811  10.085  20.299  0.00  0.00    +0.000 A 
BRANCH  27  30
ATOM     30  S   UNL     1       2.335   6.311  19.714  0.00  0.00    +0.000 S 
ATOM     31  C   UNL     1       3.143   5.970  18.126  0.00  0.00    +0.000 C 
ENDBRANCH  27  30
ENDBRANCH   2  24
TORSDOF 7
ENDMDL
MODEL 2
REMARK VINA RESULT:      -6.7      2.610      5.861
REMARK  Name = 
REMARK  11 active torsions:
REMARK  status: ('A' for Active; 'I' for Inactive)
REMARK    1  A    between atoms: C_1  and  O_2
REMARK    2  A    between atoms: O_2  and  C_3
REMARK    3  A    between atoms: C_5  and  C_6
REMARK    4  A    between atoms: C_7  and  C_8
REMARK    5  A    between atoms: C_7  and  C_17
REMARK    6  A    between atoms: C_20  and  S_21
REMARK    7  A    between atoms: S_21  and  C_22
REMARK    8  A    between atoms: C_26  and  O_27
REMARK    9  A    between atoms: O_27  and  C_28
REMARK   10  A    between atoms: C_29  and  O_30
REMARK   11  A    between atoms: O_30  and  C_31
REMARK                            x       y       z     vdW  Elec       q    Type
REMARK                         _______ _______ _______ _____ _____    ______ ____
ROOT
ATOM      1  C   UNL     1      -0.758   9.674  19.384  0.00  0.00    +0.000 C 
ATOM      2  C   UNL     1       0.515   9.912  19.750  0.00  0.00    +0.000 C 
ENDROOT
BRANCH   2   3
ATOM      3  C   UNL     1       1.336   8.831  20.440  0.00  0.00    +0.000 C 
ATOM      4  O   UNL     1       1.583   8.960  21.644  0.00  0.00    +0.000 OA
ATOM      5  N   UNL     1       1.792   7.711  19.741  0.00  0.00    +0.000 N 
ATOM      6  C   UNL     1       2.287   6.610  20.566  0.00  0.00    +0.000 C 
ATOM      7  C   UNL     1       2.013   5.246  19.942  0.00  0.00    +0.000 C 
ATOM      8  C   UNL     1       2.354   5.256  18.488  0.00  0.00    +0.000 C 
ATOM      9  C   UNL     1       2.495   6.401  17.805  0.00  0.00    +0.000 C 
ATOM     10  C   UNL     1       2.246   7.742  18.424  0.00  0.00    +0.000 C 
ATOM     11  O   UNL     1       2.422   8.738  17.739  0.00  0.00    +0.000 OA
ENDBRANCH   2   3
BRANCH   1  14
ATOM     12  C   UNL     1      -3.385  10.665  16.887  0.00  0.00    +0.000 A 
ATOM     13  C   UNL     1      -2.183  10.144  17.402  0.00  0.00    +0.000 A 
ATOM     14  C   UNL     1      -1.732  10.513  18.671  0.00  0.00    +0.000 A 
ATOM     15  C   UNL     1      -2.413  11.504  19.371  0.00  0.00    +0.000 A 
ATOM     16  C   UNL     1      -3.595  12.056  18.861  0.00  0.00    +0.000 A 
ATOM     17  C   UNL     1      -4.107  11.638  17.613  0.00  0.00    +0.000 A 
BRANCH  12  19
ATOM     18  C   UNL     1      -2.887  10.160  14.618  0.00  0.00    +0.000 C 
ATOM     19  O   UNL     1      -3.853  10.262  15.662  0.00  0.00    +0.000 OA
ENDBRANCH  12  19
BRANCH  16  20
ATOM     20  O   UNL     1      -4.142  13.000  19.697  0.00  0.00    +0.000 OA
ATOM     21  C   UNL     1      -3.537  13.128  20.978  0.00  0.00    +0.000 C 
ENDBRANCH  16  20
BRANCH  17  22
ATOM     22  O   UNL     1      -5.256  12.264  17.202  0.00  0.00    +0.000 OA
ATOM     23  C   UNL     1      -6.514  11.825  17.700  0.00  0.00    +0.000 C 
ENDBRANCH  17  22
ENDBRANCH   1  14
BRANCH   2  24
ATOM     24  C   UNL     1       1.108  11.263  19.703  0.00  0.00    +0.000 A 
ATOM     25  C   UNL     1       1.739  11.700  18.530  0.00  0.00    +0.000 A 
ATOM     26  C   UNL     1       2.128  13.037  18.390  0.00  0.00    +0.000 A 
ATOM     27  C   UNL     1       1.893  13.958  19.416  0.00  0.00    +0.000 A 
ATOM     28  C   UNL     1       1.312  13.506  20.605  0.00  0.00    +0.000 A 
ATOM     29  C   UNL     1       0.916  12.169  20.749  0.00  0.00    +0.000 A 
BRANCH  27  30
ATOM     30  S   UNL     1       2.386  15.654  19.138  0.00  0.00    +0.000 S 
ATOM     31  C   UNL     1       3.348  15.528  17.605  0.00  0.00    +0.000 C 
ENDBRANCH  27  30
ENDBRANCH   2  24
TORSDOF 7
ENDMDL
MODEL 3
REMARK VINA RESULT:      -6.4      2.629      5.851
REMARK  Name = 
REMARK  11 active torsions:
REMARK  status: ('A' for Active; 'I' for Inactive)
REMARK    1  A    between atoms: C_1  and  O_2
REMARK    2  A    between atoms: O_2  and  C_3
REMARK    3  A    between atoms: C_5  and  C_6
REMARK    4  A    between atoms: C_7  and  C_8
REMARK    5  A    between atoms: C_7  and  C_17
REMARK    6  A    between atoms: C_20  and  S_21
REMARK    7  A    between atoms: S_21  and  C_22
REMARK    8  A    between atoms: C_26  and  O_27
REMARK    9  A    between atoms: O_27  and  C_28
REMARK   10  A    between atoms: C_29  and  O_30
REMARK   11  A    between atoms: O_30  and  C_31
REMARK                            x       y       z     vdW  Elec       q    Type
REMARK                         _______ _______ _______ _____ _____    ______ ____
ROOT
ATOM      1  C   UNL     1      -1.229  10.209  19.207  0.00  0.00    +0.000 C 
ATOM      2  C   UNL     1      -0.042  10.647  19.667  0.00  0.00    +0.000 C 
ENDROOT
BRANCH   2   3
ATOM      3  C   UNL     1       0.938   9.682  20.319  0.00  0.00    +0.000 C 
ATOM      4  O   UNL     1       1.187   9.821  21.522  0.00  0.00    +0.000 OA
ATOM      5  N   UNL     1       1.536   8.654  19.588  0.00  0.00    +0.000 N 
ATOM      6  C   UNL     1       2.199   7.618  20.381  0.00  0.00    +0.000 C 
ATOM      7  C   UNL     1       2.111   6.242  19.730  0.00  0.00    +0.000 C 
ATOM      8  C   UNL     1       2.419   6.330  18.271  0.00  0.00    +0.000 C 
ATOM      9  C   UNL     1       2.382   7.497  17.612  0.00  0.00    +0.000 C 
ATOM     10  C   UNL     1       1.955   8.775  18.265  0.00  0.00    +0.000 C 
ATOM     11  O   UNL     1       1.974   9.800  17.600  0.00  0.00    +0.000 OA
ENDBRANCH   2   3
BRANCH   1  14
ATOM     12  C   UNL     1      -3.851  10.932  16.614  0.00  0.00    +0.000 A 
ATOM     13  C   UNL     1      -2.600  10.607  17.172  0.00  0.00    +0.000 A 
ATOM     14  C   UNL     1      -2.311  10.912  18.504  0.00  0.00    +0.000 A 
ATOM     15  C   UNL     1      -3.224  11.660  19.241  0.00  0.00    +0.000 A 
ATOM     16  C   UNL     1      -4.462  12.018  18.693  0.00  0.00    +0.000 A 
ATOM     17  C   UNL     1      -4.802  11.650  17.373  0.00  0.00    +0.000 A 
BRANCH  12  19
ATOM     18  C   UNL     1      -3.057  10.167  14.508  0.00  0.00    +0.000 C 
ATOM     19  O   UNL     1      -4.152  10.584  15.322  0.00  0.00    +0.000 OA
ENDBRANCH  12  19
BRANCH  16  20
ATOM     20  O   UNL     1      -5.243  12.733  19.571  0.00  0.00    +0.000 OA
ATOM     21  C   UNL     1      -4.651  13.040  20.828  0.00  0.00    +0.000 C 
ENDBRANCH  16  20
BRANCH  17  22
ATOM     22  O   UNL     1      -6.030  12.076  16.933  0.00  0.00    +0.000 OA
ATOM     23  C   UNL     1      -6.311  13.468  16.871  0.00  0.00    +0.000 C 
ENDBRANCH  17  22
ENDBRANCH   1  14
BRANCH   2  24
ATOM     24  C   UNL     1       0.283  12.084  19.762  0.00  0.00    +0.000 A 
ATOM     25  C   UNL     1       0.956  12.711  18.704  0.00  0.00    +0.000 A 
ATOM     26  C   UNL     1       1.097  14.103  18.680  0.00  0.00    +0.000 A 
ATOM     27  C   UNL     1       0.569  14.891  19.708  0.00  0.00    +0.000 A 
ATOM     28  C   UNL     1      -0.054  14.257  20.788  0.00  0.00    +0.000 A 
ATOM     29  C   UNL     1      -0.203  12.863  20.815  0.00  0.00    +0.000 A 
BRANCH  27  30
ATOM     30  S   UNL     1       0.759  16.664  19.578  0.00  0.00    +0.000 S 
ATOM     31  C   UNL     1      -0.699  17.135  18.605  0.00  0.00    +0.000 C 
ENDBRANCH  27  30
ENDBRANCH   2  24
TORSDOF 7
ENDMDL
MODEL 4
REMARK VINA RESULT:      -6.4      3.479      6.949
REMARK  Name = 
REMARK  11 active torsions:
REMARK  status: ('A' for Active; 'I' for Inactive)
REMARK    1  A    between atoms: C_1  and  O_2
REMARK    2  A    between atoms: O_2  and  C_3
REMARK    3  A    between atoms: C_5  and  C_6
REMARK    4  A    between atoms: C_7  and  C_8
REMARK    5  A    between atoms: C_7  and  C_17
REMARK    6  A    between atoms: C_20  and  S_21
REMARK    7  A    between atoms: S_21  and  C_22
REMARK    8  A    between atoms: C_26  and  O_27
REMARK    9  A    between atoms: O_27  and  C_28
REMARK   10  A    between atoms: C_29  and  O_30
REMARK   11  A    between atoms: O_30  and  C_31
REMARK                            x       y       z     vdW  Elec       q    Type
REMARK                         _______ _______ _______ _____ _____    ______ ____
ROOT
ATOM      1  C   UNL     1       1.369   9.756  20.705  0.00  0.00    +0.000 C 
ATOM      2  C   UNL     1       0.645  10.840  20.370  0.00  0.00    +0.000 C 
ENDROOT
BRANCH   2   3
ATOM      3  C   UNL     1       0.613  12.060  21.281  0.00  0.00    +0.000 C 
ATOM      4  O   UNL     1       1.598  12.807  21.297  0.00  0.00    +0.000 OA
ATOM      5  N   UNL     1      -0.502  12.343  22.071  0.00  0.00    +0.000 N 
ATOM      6  C   UNL     1      -0.541  13.686  22.650  0.00  0.00    +0.000 C 
ATOM      7  C   UNL     1      -1.962  14.224  22.777  0.00  0.00    +0.000 C 
ATOM      8  C   UNL     1      -2.871  13.179  23.338  0.00  0.00    +0.000 C 
ATOM      9  C   UNL     1      -2.535  11.881  23.341  0.00  0.00    +0.000 C 
ATOM     10  C   UNL     1      -1.272  11.376  22.715  0.00  0.00    +0.000 C 
ATOM     11  O   UNL     1      -1.029  10.181  22.782  0.00  0.00    +0.000 OA
ENDBRANCH   2   3
BRANCH   1  14
ATOM     12  C   UNL     1       2.819   7.339  18.220  0.00  0.00    +0.000 A 
ATOM     13  C   UNL     1       2.208   8.500  18.730  0.00  0.00    +0.000 A 
ATOM     14  C   UNL     1       1.605   8.493  19.990  0.00  0.00    +0.000 A 
ATOM     15  C   UNL     1       1.496   7.292  20.684  0.00  0.00    +0.000 A 
ATOM     16  C   UNL     1       2.072   6.120  20.177  0.00  0.00    +0.000 A 
ATOM     17  C   UNL     1       2.754   6.126  18.941  0.00  0.00    +0.000 A 
BRANCH  12  19
ATOM     18  C   UNL     1       4.868   7.158  17.028  0.00  0.00    +0.000 C 
ATOM     19  O   UNL     1       3.456   7.361  17.005  0.00  0.00    +0.000 OA
ENDBRANCH  12  19
BRANCH  16  20
ATOM     20  O   UNL     1       1.887   5.038  21.006  0.00  0.00    +0.000 OA
ATOM     21  C   UNL     1       0.905   4.094  20.593  0.00  0.00    +0.000 C 
ENDBRANCH  16  20
BRANCH  17  22
ATOM     22  O   UNL     1       3.256   4.916  18.532  0.00  0.00    +0.000 OA
ATOM     23  C   UNL     1       2.559   4.161  17.550  0.00  0.00    +0.000 C 
ENDBRANCH  17  22
ENDBRANCH   1  14
BRANCH   2  24
ATOM     24  C   UNL     1      -0.306  10.834  19.242  0.00  0.00    +0.000 A 
ATOM     25  C   UNL     1      -1.214   9.774  19.109  0.00  0.00    +0.000 A 
ATOM     26  C   UNL     1      -2.253   9.842  18.174  0.00  0.00    +0.000 A 
ATOM     27  C   UNL     1      -2.403  10.969  17.358  0.00  0.00    +0.000 A 
ATOM     28  C   UNL     1      -1.464  12.000  17.456  0.00  0.00    +0.000 A 
ATOM     29  C   UNL     1      -0.424  11.939  18.395  0.00  0.00    +0.000 A 
BRANCH  27  30
ATOM     30  S   UNL     1      -3.781  10.991  16.218  0.00  0.00    +0.000 S 
ATOM     31  C   UNL     1      -3.056  10.256  14.726  0.00  0.00    +0.000 C 
ENDBRANCH  27  30
ENDBRANCH   2  24
TORSDOF 7
ENDMDL
MODEL 5
REMARK VINA RESULT:      -6.2      2.473      5.763
REMARK  Name = 
REMARK  11 active torsions:
REMARK  status: ('A' for Active; 'I' for Inactive)
REMARK    1  A    between atoms: C_1  and  O_2
REMARK    2  A    between atoms: O_2  and  C_3
REMARK    3  A    between atoms: C_5  and  C_6
REMARK    4  A    between atoms: C_7  and  C_8
REMARK    5  A    between atoms: C_7  and  C_17
REMARK    6  A    between atoms: C_20  and  S_21
REMARK    7  A    between atoms: S_21  and  C_22
REMARK    8  A    between atoms: C_26  and  O_27
REMARK    9  A    between atoms: O_27  and  C_28
REMARK   10  A    between atoms: C_29  and  O_30
REMARK   11  A    between atoms: O_30  and  C_31
REMARK                            x       y       z     vdW  Elec       q    Type
REMARK                         _______ _______ _______ _____ _____    ______ ____
ROOT
ATOM      1  C   UNL     1      -1.336  10.468  19.283  0.00  0.00    +0.000 C 
ATOM      2  C   UNL     1      -0.120  10.912  19.650  0.00  0.00    +0.000 C 
ENDROOT
BRANCH   2   3
ATOM      3  C   UNL     1       0.862   9.986  20.355  0.00  0.00    +0.000 C 
ATOM      4  O   UNL     1       1.120  10.198  21.544  0.00  0.00    +0.000 OA
ATOM      5  N   UNL     1       1.450   8.911  19.685  0.00  0.00    +0.000 N 
ATOM      6  C   UNL     1       2.114   7.924  20.536  0.00  0.00    +0.000 C 
ATOM      7  C   UNL     1       2.016   6.510  19.974  0.00  0.00    +0.000 C 
ATOM      8  C   UNL     1       2.314   6.505  18.510  0.00  0.00    +0.000 C 
ATOM      9  C   UNL     1       2.277   7.629  17.779  0.00  0.00    +0.000 C 
ATOM     10  C   UNL     1       1.860   8.948  18.354  0.00  0.00    +0.000 C 
ATOM     11  O   UNL     1       1.878   9.928  17.626  0.00  0.00    +0.000 OA
ENDBRANCH   2   3
BRANCH   1  14
ATOM     12  C   UNL     1      -3.951  11.082  16.655  0.00  0.00    +0.000 A 
ATOM     13  C   UNL     1      -2.697  10.797  17.229  0.00  0.00    +0.000 A 
ATOM     14  C   UNL     1      -2.428  11.132  18.558  0.00  0.00    +0.000 A 
ATOM     15  C   UNL     1      -3.366  11.871  19.274  0.00  0.00    +0.000 A 
ATOM     16  C   UNL     1      -4.607  12.190  18.709  0.00  0.00    +0.000 A 
ATOM     17  C   UNL     1      -4.925  11.791  17.392  0.00  0.00    +0.000 A 
BRANCH  12  19
ATOM     18  C   UNL     1      -3.137  10.194  14.605  0.00  0.00    +0.000 C 
ATOM     19  O   UNL     1      -4.230  10.705  15.366  0.00  0.00    +0.000 OA
ENDBRANCH  12  19
BRANCH  16  20
ATOM     20  O   UNL     1      -5.413  12.900  19.567  0.00  0.00    +0.000 OA
ATOM     21  C   UNL     1      -5.750  12.253  20.789  0.00  0.00    +0.000 C 
ENDBRANCH  16  20
BRANCH  17  22
ATOM     22  O   UNL     1      -6.159  12.179  16.934  0.00  0.00    +0.000 OA
ATOM     23  C   UNL     1      -6.464  13.563  16.821  0.00  0.00    +0.000 C 
ENDBRANCH  17  22
ENDBRANCH   1  14
BRANCH   2  24
ATOM     24  C   UNL     1       0.248  12.341  19.590  0.00  0.00    +0.000 A 
ATOM     25  C   UNL     1      -0.180  13.207  20.605  0.00  0.00    +0.000 A 
ATOM     26  C   UNL     1       0.319  14.513  20.681  0.00  0.00    +0.000 A 
ATOM     27  C   UNL     1       1.253  14.973  19.746  0.00  0.00    +0.000 A 
ATOM     28  C   UNL     1       1.636  14.123  18.704  0.00  0.00    +0.000 A 
ATOM     29  C   UNL     1       1.143  12.813  18.627  0.00  0.00    +0.000 A 
BRANCH  27  30
ATOM     30  S   UNL     1       1.868  16.641  19.939  0.00  0.00    +0.000 S 
ATOM     31  C   UNL     1       3.493  16.545  19.136  0.00  0.00    +0.000 C 
ENDBRANCH  27  30
ENDBRANCH   2  24
TORSDOF 7
ENDMDL
MODEL 6
REMARK VINA RESULT:      -6.1      3.571      6.422
REMARK  Name = 
REMARK  11 active torsions:
REMARK  status: ('A' for Active; 'I' for Inactive)
REMARK    1  A    between atoms: C_1  and  O_2
REMARK    2  A    between atoms: O_2  and  C_3
REMARK    3  A    between atoms: C_5  and  C_6
REMARK    4  A    between atoms: C_7  and  C_8
REMARK    5  A    between atoms: C_7  and  C_17
REMARK    6  A    between atoms: C_20  and  S_21
REMARK    7  A    between atoms: S_21  and  C_22
REMARK    8  A    between atoms: C_26  and  O_27
REMARK    9  A    between atoms: O_27  and  C_28
REMARK   10  A    between atoms: C_29  and  O_30
REMARK   11  A    between atoms: O_30  and  C_31
REMARK                            x       y       z     vdW  Elec       q    Type
REMARK                         _______ _______ _______ _____ _____    ______ ____
ROOT
ATOM      1  C   UNL     1       2.588   8.557  17.947  0.00  0.00    +0.000 C 
ATOM      2  C   UNL     1       3.129   7.326  17.920  0.00  0.00    +0.000 C 
ENDROOT
BRANCH   2   3
ATOM      3  C   UNL     1       4.391   7.052  17.112  0.00  0.00    +0.000 C 
ATOM      4  O   UNL     1       4.338   7.171  15.883  0.00  0.00    +0.000 OA
ATOM      5  N   UNL     1       5.586   6.691  17.737  0.00  0.00    +0.000 N 
ATOM      6  C   UNL     1       6.783   6.765  16.900  0.00  0.00    +0.000 C 
ATOM      7  C   UNL     1       8.025   7.156  17.694  0.00  0.00    +0.000 C 
ATOM      8  C   UNL     1       8.095   6.386  18.972  0.00  0.00    +0.000 C 
ATOM      9  C   UNL     1       7.022   5.762  19.479  0.00  0.00    +0.000 C 
ATOM     10  C   UNL     1       5.666   5.855  18.849  0.00  0.00    +0.000 C 
ATOM     11  O   UNL     1       4.746   5.236  19.360  0.00  0.00    +0.000 OA
ENDBRANCH   2   3
BRANCH   1  14
ATOM     12  C   UNL     1       0.604  10.225  20.668  0.00  0.00    +0.000 A 
ATOM     13  C   UNL     1       1.515   9.351  20.044  0.00  0.00    +0.000 A 
ATOM     14  C   UNL     1       1.427   9.087  18.676  0.00  0.00    +0.000 A 
ATOM     15  C   UNL     1       0.348   9.592  17.956  0.00  0.00    +0.000 A 
ATOM     16  C   UNL     1      -0.585  10.439  18.567  0.00  0.00    +0.000 A 
ATOM     17  C   UNL     1      -0.466  10.779  19.932  0.00  0.00    +0.000 A 
BRANCH  12  19
ATOM     18  C   UNL     1       0.076   9.636  22.910  0.00  0.00    +0.000 C 
ATOM     19  O   UNL     1       0.725  10.524  22.002  0.00  0.00    +0.000 OA
ENDBRANCH  12  19
BRANCH  16  20
ATOM     20  O   UNL     1      -1.566  10.860  17.700  0.00  0.00    +0.000 OA
ATOM     21  C   UNL     1      -2.716  10.027  17.604  0.00  0.00    +0.000 C 
ENDBRANCH  16  20
BRANCH  17  22
ATOM     22  O   UNL     1      -1.450  11.595  20.430  0.00  0.00    +0.000 OA
ATOM     23  C   UNL     1      -1.251  13.002  20.456  0.00  0.00    +0.000 C 
ENDBRANCH  17  22
ENDBRANCH   1  14
BRANCH   2  24
ATOM     24  C   UNL     1       2.435   6.148  18.477  0.00  0.00    +0.000 A 
ATOM     25  C   UNL     1       2.210   5.029  17.664  0.00  0.00    +0.000 A 
ATOM     26  C   UNL     1       1.740   3.833  18.217  0.00  0.00    +0.000 A 
ATOM     27  C   UNL     1       1.487   3.734  19.589  0.00  0.00    +0.000 A 
ATOM     28  C   UNL     1       1.662   4.868  20.388  0.00  0.00    +0.000 A 
ATOM     29  C   UNL     1       2.138   6.068  19.840  0.00  0.00    +0.000 A 
BRANCH  27  30
ATOM     30  S   UNL     1       0.927   2.157  20.219  0.00  0.00    +0.000 S 
ATOM     31  C   UNL     1       1.451   2.230  21.955  0.00  0.00    +0.000 C 
ENDBRANCH  27  30
ENDBRANCH   2  24
TORSDOF 7
ENDMDL
MODEL 7
REMARK VINA RESULT:      -6.0      0.835      1.226
REMARK  Name = 
REMARK  11 active torsions:
REMARK  status: ('A' for Active; 'I' for Inactive)
REMARK    1  A    between atoms: C_1  and  O_2
REMARK    2  A    between atoms: O_2  and  C_3
REMARK    3  A    between atoms: C_5  and  C_6
REMARK    4  A    between atoms: C_7  and  C_8
REMARK    5  A    between atoms: C_7  and  C_17
REMARK    6  A    between atoms: C_20  and  S_21
REMARK    7  A    between atoms: S_21  and  C_22
REMARK    8  A    between atoms: C_26  and  O_27
REMARK    9  A    between atoms: O_27  and  C_28
REMARK   10  A    between atoms: C_29  and  O_30
REMARK   11  A    between atoms: O_30  and  C_31
REMARK                            x       y       z     vdW  Elec       q    Type
REMARK                         _______ _______ _______ _____ _____    ______ ____
ROOT
ATOM      1  C   UNL     1      -0.565  13.095  18.847  0.00  0.00    +0.000 C 
ATOM      2  C   UNL     1       0.678  12.745  19.228  0.00  0.00    +0.000 C 
ENDROOT
BRANCH   2   3
ATOM      3  C   UNL     1       1.827  13.738  19.123  0.00  0.00    +0.000 C 
ATOM      4  O   UNL     1       2.709  13.529  18.283  0.00  0.00    +0.000 OA
ATOM      5  N   UNL     1       1.884  14.869  19.941  0.00  0.00    +0.000 N 
ATOM      6  C   UNL     1       2.847  15.893  19.536  0.00  0.00    +0.000 C 
ATOM      7  C   UNL     1       2.371  17.303  19.869  0.00  0.00    +0.000 C 
ATOM      8  C   UNL     1       1.814  17.355  21.254  0.00  0.00    +0.000 C 
ATOM      9  C   UNL     1       1.449  16.244  21.910  0.00  0.00    +0.000 C 
ATOM     10  C   UNL     1       1.496  14.887  21.279  0.00  0.00    +0.000 C 
ATOM     11  O   UNL     1       1.170  13.922  21.954  0.00  0.00    +0.000 OA
ENDBRANCH   2   3
BRANCH   1  14
ATOM     12  C   UNL     1      -4.107  12.242  19.770  0.00  0.00    +0.000 A 
ATOM     13  C   UNL     1      -2.753  12.599  19.919  0.00  0.00    +0.000 A 
ATOM     14  C   UNL     1      -1.834  12.356  18.896  0.00  0.00    +0.000 A 
ATOM     15  C   UNL     1      -2.241  11.635  17.777  0.00  0.00    +0.000 A 
ATOM     16  C   UNL     1      -3.578  11.246  17.625  0.00  0.00    +0.000 A 
ATOM     17  C   UNL     1      -4.537  11.553  18.615  0.00  0.00    +0.000 A 
BRANCH  12  19
ATOM     18  C   UNL     1      -5.458  13.885  20.832  0.00  0.00    +0.000 C 
ATOM     19  O   UNL     1      -5.017  12.530  20.755  0.00  0.00    +0.000 OA
ENDBRANCH  12  19
BRANCH  16  20
ATOM     20  O   UNL     1      -3.801  10.566  16.450  0.00  0.00    +0.000 OA
ATOM     21  C   UNL     1      -2.848  10.777  15.414  0.00  0.00    +0.000 C 
ENDBRANCH  16  20
BRANCH  17  22
ATOM     22  O   UNL     1      -5.809  11.100  18.372  0.00  0.00    +0.000 OA
ATOM     23  C   UNL     1      -6.770  11.978  17.801  0.00  0.00    +0.000 C 
ENDBRANCH  17  22
ENDBRANCH   1  14
BRANCH   2  24
ATOM     24  C   UNL     1       1.037  11.352  19.558  0.00  0.00    +0.000 A 
ATOM     25  C   UNL     1       0.862  10.884  20.867  0.00  0.00    +0.000 A 
ATOM     26  C   UNL     1       1.002   9.523  21.159  0.00  0.00    +0.000 A 
ATOM     27  C   UNL     1       1.319   8.607  20.150  0.00  0.00    +0.000 A 
ATOM     28  C   UNL     1       1.546   9.086  18.856  0.00  0.00    +0.000 A 
ATOM     29  C   UNL     1       1.402  10.448  18.557  0.00  0.00    +0.000 A 
BRANCH  27  30
ATOM     30  S   UNL     1       1.440   6.882  20.602  0.00  0.00    +0.000 S 
ATOM     31  C   UNL     1       2.743   6.284  19.489  0.00  0.00    +0.000 C 
ENDBRANCH  27  30
ENDBRANCH   2  24
TORSDOF 7
ENDMDL
MODEL 8
REMARK VINA RESULT:      -6.0      1.889      2.991
REMARK  Name = 
REMARK  11 active torsions:
REMARK  status: ('A' for Active; 'I' for Inactive)
REMARK    1  A    between atoms: C_1  and  O_2
REMARK    2  A    between atoms: O_2  and  C_3
REMARK    3  A    between atoms: C_5  and  C_6
REMARK    4  A    between atoms: C_7  and  C_8
REMARK    5  A    between atoms: C_7  and  C_17
REMARK    6  A    between atoms: C_20  and  S_21
REMARK    7  A    between atoms: S_21  and  C_22
REMARK    8  A    between atoms: C_26  and  O_27
REMARK    9  A    between atoms: O_27  and  C_28
REMARK   10  A    between atoms: C_29  and  O_30
REMARK   11  A    between atoms: O_30  and  C_31
REMARK                            x       y       z     vdW  Elec       q    Type
REMARK                         _______ _______ _______ _____ _____    ______ ____
ROOT
ATOM      1  C   UNL     1      -1.845  13.596  21.307  0.00  0.00    +0.000 C 
ATOM      2  C   UNL     1      -0.604  13.114  21.506  0.00  0.00    +0.000 C 
ENDROOT
BRANCH   2   3
ATOM      3  C   UNL     1       0.574  14.062  21.685  0.00  0.00    +0.000 C 
ATOM      4  O   UNL     1       0.744  14.586  22.792  0.00  0.00    +0.000 OA
ATOM      5  N   UNL     1       1.455  14.327  20.635  0.00  0.00    +0.000 N 
ATOM      6  C   UNL     1       2.704  14.989  21.011  0.00  0.00    +0.000 C 
ATOM      7  C   UNL     1       3.876  14.560  20.135  0.00  0.00    +0.000 C 
ATOM      8  C   UNL     1       3.480  14.550  18.694  0.00  0.00    +0.000 C 
ATOM      9  C   UNL     1       2.193  14.541  18.318  0.00  0.00    +0.000 C 
ATOM     10  C   UNL     1       1.068  14.460  19.303  0.00  0.00    +0.000 C 
ATOM     11  O   UNL     1      -0.077  14.482  18.878  0.00  0.00    +0.000 OA
ENDBRANCH   2   3
BRANCH   1  14
ATOM     12  C   UNL     1      -5.353  12.498  22.085  0.00  0.00    +0.000 A 
ATOM     13  C   UNL     1      -3.980  12.755  22.262  0.00  0.00    +0.000 A 
ATOM     14  C   UNL     1      -3.136  12.909  21.161  0.00  0.00    +0.000 A 
ATOM     15  C   UNL     1      -3.637  12.675  19.884  0.00  0.00    +0.000 A 
ATOM     16  C   UNL     1      -4.994  12.389  19.691  0.00  0.00    +0.000 A 
ATOM     17  C   UNL     1      -5.879  12.306  20.788  0.00  0.00    +0.000 A 
BRANCH  12  19
ATOM     18  C   UNL     1      -6.797  13.611  23.611  0.00  0.00    +0.000 C 
ATOM     19  O   UNL     1      -6.191  12.398  23.168  0.00  0.00    +0.000 OA
ENDBRANCH  12  19
BRANCH  16  20
ATOM     20  O   UNL     1      -5.315  12.212  18.365  0.00  0.00    +0.000 OA
ATOM     21  C   UNL     1      -4.925  10.970  17.788  0.00  0.00    +0.000 C 
ENDBRANCH  16  20
BRANCH  17  22
ATOM     22  O   UNL     1      -7.179  11.996  20.483  0.00  0.00    +0.000 OA
ATOM     23  C   UNL     1      -7.608  10.641  20.522  0.00  0.00    +0.000 C 
ENDBRANCH  17  22
ENDBRANCH   1  14
BRANCH   2  24
ATOM     24  C   UNL     1      -0.281  11.682  21.352  0.00  0.00    +0.000 A 
ATOM     25  C   UNL     1       0.193  11.210  20.120  0.00  0.00    +0.000 A 
ATOM     26  C   UNL     1       0.694   9.909  20.005  0.00  0.00    +0.000 A 
ATOM     27  C   UNL     1       0.732   9.059  21.116  0.00  0.00    +0.000 A 
ATOM     28  C   UNL     1       0.209   9.516  22.330  0.00  0.00    +0.000 A 
ATOM     29  C   UNL     1      -0.290  10.821  22.452  0.00  0.00    +0.000 A 
BRANCH  27  30
ATOM     30  S   UNL     1       1.425   7.426  20.889  0.00  0.00    +0.000 S 
ATOM     31  C   UNL     1       2.234   7.574  19.272  0.00  0.00    +0.000 C 
ENDBRANCH  27  30
ENDBRANCH   2  24
TORSDOF 7
ENDMDL
MODEL 9
REMARK VINA RESULT:      -5.9      2.868      5.917
REMARK  Name = 
REMARK  11 active torsions:
REMARK  status: ('A' for Active; 'I' for Inactive)
REMARK    1  A    between atoms: C_1  and  O_2
REMARK    2  A    between atoms: O_2  and  C_3
REMARK    3  A    between atoms: C_5  and  C_6
REMARK    4  A    between atoms: C_7  and  C_8
REMARK    5  A    between atoms: C_7  and  C_17
REMARK    6  A    between atoms: C_20  and  S_21
REMARK    7  A    between atoms: S_21  and  C_22
REMARK    8  A    between atoms: C_26  and  O_27
REMARK    9  A    between atoms: O_27  and  C_28
REMARK   10  A    between atoms: C_29  and  O_30
REMARK   11  A    between atoms: O_30  and  C_31
REMARK                            x       y       z     vdW  Elec       q    Type
REMARK                         _______ _______ _______ _____ _____    ______ ____
ROOT
ATOM      1  C   UNL     1      -1.385  10.224  19.156  0.00  0.00    +0.000 C 
ATOM      2  C   UNL     1      -0.555  10.550  20.164  0.00  0.00    +0.000 C 
ENDROOT
BRANCH   2   3
ATOM      3  C   UNL     1       0.505   9.567  20.642  0.00  0.00    +0.000 C 
ATOM      4  O   UNL     1       0.611   9.362  21.856  0.00  0.00    +0.000 OA
ATOM      5  N   UNL     1       1.332   8.898  19.737  0.00  0.00    +0.000 N 
ATOM      6  C   UNL     1       2.079   7.765  20.283  0.00  0.00    +0.000 C 
ATOM      7  C   UNL     1       2.282   6.655  19.257  0.00  0.00    +0.000 C 
ATOM      8  C   UNL     1       2.710   7.224  17.944  0.00  0.00    +0.000 C 
ATOM      9  C   UNL     1       2.544   8.522  17.651  0.00  0.00    +0.000 C 
ATOM     10  C   UNL     1       1.851   9.473  18.578  0.00  0.00    +0.000 C 
ATOM     11  O   UNL     1       1.763  10.645  18.246  0.00  0.00    +0.000 OA
ENDBRANCH   2   3
BRANCH   1  14
ATOM     12  C   UNL     1      -3.723  11.368  16.446  0.00  0.00    +0.000 A 
ATOM     13  C   UNL     1      -2.524  11.008  17.090  0.00  0.00    +0.000 A 
ATOM     14  C   UNL     1      -2.439  10.997  18.484  0.00  0.00    +0.000 A 
ATOM     15  C   UNL     1      -3.511  11.472  19.233  0.00  0.00    +0.000 A 
ATOM     16  C   UNL     1      -4.702  11.863  18.607  0.00  0.00    +0.000 A 
ATOM     17  C   UNL     1      -4.832  11.807  17.202  0.00  0.00    +0.000 A 
BRANCH  12  19
ATOM     18  C   UNL     1      -3.348  10.140  14.445  0.00  0.00    +0.000 C 
ATOM     19  O   UNL     1      -3.820  11.328  15.078  0.00  0.00    +0.000 OA
ENDBRANCH  12  19
BRANCH  16  20
ATOM     20  O   UNL     1      -5.658  12.281  19.502  0.00  0.00    +0.000 OA
ATOM     21  C   UNL     1      -5.183  12.690  20.780  0.00  0.00    +0.000 C 
ENDBRANCH  16  20
BRANCH  17  22
ATOM     22  O   UNL     1      -6.033  12.237  16.698  0.00  0.00    +0.000 OA
ATOM     23  C   UNL     1      -6.440  13.584  16.901  0.00  0.00    +0.000 C 
ENDBRANCH  17  22
ENDBRANCH   1  14
BRANCH   2  24
ATOM     24  C   UNL     1      -0.754  11.758  20.989  0.00  0.00    +0.000 A 
ATOM     25  C   UNL     1      -1.601  11.701  22.104  0.00  0.00    +0.000 A 
ATOM     26  C   UNL     1      -1.651  12.764  23.013  0.00  0.00    +0.000 A 
ATOM     27  C   UNL     1      -0.856  13.900  22.824  0.00  0.00    +0.000 A 
ATOM     28  C   UNL     1      -0.052  13.975  21.682  0.00  0.00    +0.000 A 
ATOM     29  C   UNL     1       0.005  12.911  20.771  0.00  0.00    +0.000 A 
BRANCH  27  30
ATOM     30  S   UNL     1      -0.951  15.194  24.054  0.00  0.00    +0.000 S 
ATOM     31  C   UNL     1      -2.133  16.349  23.304  0.00  0.00    +0.000 C 
ENDBRANCH  27  30
ENDBRANCH   2  24
TORSDOF 7
ENDMDL
