MODEL 1
REMARK VINA RESULT:      -7.5      0.000      0.000
REMARK  Name = 
REMARK  11 active torsions:
REMARK  status: ('A' for Active; 'I' for Inactive)
REMARK    1  A    between atoms: C_1  and  O_2
REMARK    2  A    between atoms: O_2  and  C_3
REMARK    3  A    between atoms: C_6  and  N_7
REMARK    4  A    between atoms: N_7  and  C_8
REMARK    5  A    between atoms: C_8  and  C_9
REMARK    6  A    between atoms: N_11  and  C_12
REMARK    7  A    between atoms: C_12  and  C_13
REMARK    8  A    between atoms: C_13  and  C_14
REMARK    9  A    between atoms: C_14  and  SE_15
REMARK   10  A    between atoms: SE_15  and  C_16
REMARK   11  A    between atoms: C_22  and  C_24
REMARK                            x       y       z     vdW  Elec       q    Type
REMARK                         _______ _______ _______ _____ _____    ______ ____
ROOT
ATOM      1  N   UNL     1       4.440   4.634  17.884  0.00  0.00    +0.000 N 
ATOM      2  C   UNL     1       3.655   3.495  18.129  0.00  0.00    +0.000 C 
ATOM      3  O   UNL     1       3.667   2.573  17.334  0.00  0.00    +0.000 OA
ENDROOT
BRANCH   1   7
ATOM      4  C   UNL     1       7.029   4.985  14.414  0.00  0.00    +0.000 A 
ATOM      5  C   UNL     1       7.562   5.050  15.704  0.00  0.00    +0.000 A 
ATOM      6  C   UNL     1       6.744   4.895  16.820  0.00  0.00    +0.000 A 
ATOM      7  C   UNL     1       5.334   4.697  16.714  0.00  0.00    +0.000 A 
ATOM      8  C   UNL     1       4.830   4.604  15.388  0.00  0.00    +0.000 A 
ATOM      9  C   UNL     1       5.663   4.736  14.267  0.00  0.00    +0.000 A 
BRANCH   4  11
ATOM     10  C   UNL     1       7.467   4.730  12.032  0.00  0.00    +0.000 C 
ATOM     11  O   UNL     1       7.792   5.171  13.304  0.00  0.00    +0.000 OA
ENDBRANCH   4  11
ENDBRANCH   1   7
BRANCH   2  12
ATOM     12  C   UNL     1       2.778   3.221  19.340  0.00  0.00    +0.000 A 
ATOM     13  C   UNL     1       3.407   2.650  20.474  0.00  0.00    +0.000 A 
ATOM     14  C   UNL     1       2.696   2.376  21.644  0.00  0.00    +0.000 A 
ATOM     15  C   UNL     1       1.339   2.678  21.722  0.00  0.00    +0.000 A 
ATOM     16  C   UNL     1       0.697   3.262  20.635  0.00  0.00    +0.000 A 
ATOM     17  C   UNL     1       1.401   3.537  19.459  0.00  0.00    +0.000 A 
ENDBRANCH   2  12
BRANCH   1  18
ATOM     18  C   UNL     1       4.413   5.718  18.885  0.00  0.00    +0.000 C 
BRANCH  18  19
ATOM     19  C   UNL     1       3.452   6.864  18.666  0.00  0.00    +0.000 C 
ATOM     20  O   UNL     1       3.430   7.427  17.580  0.00  0.00    +0.000 OA
ATOM     21  N   UNL     1       2.576   7.213  19.659  0.00  0.00    +0.000 N 
ATOM     22  H   UNL     1       2.611   6.706  20.557  0.00  0.00    +0.000 HD
BRANCH  21  23
ATOM     23  C   UNL     1       1.589   8.270  19.529  0.00  0.00    +0.000 C 
BRANCH  23  24
ATOM     24  C   UNL     1       0.980   8.636  20.901  0.00  0.00    +0.000 C 
BRANCH  24  25
ATOM     25  C   UNL     1       0.657  10.140  21.004  0.00  0.00    +0.000 C 
BRANCH  25  26
ATOM     26 SE   UNL     1       0.933  10.985  19.254  0.00  0.00    +0.000 Se
BRANCH  26  27
ATOM     27  C   UNL     1      -0.874  10.905  18.594  0.00  0.00    +0.000 A 
ATOM     28  C   UNL     1      -1.276   9.960  17.639  0.00  0.00    +0.000 A 
ATOM     29  C   UNL     1      -2.619   9.895  17.243  0.00  0.00    +0.000 A 
ATOM     30  C   UNL     1      -3.558  10.769  17.801  0.00  0.00    +0.000 A 
ATOM     31  C   UNL     1      -3.157  11.712  18.752  0.00  0.00    +0.000 A 
ATOM     32  C   UNL     1      -1.818  11.779  19.145  0.00  0.00    +0.000 A 
ENDBRANCH  26  27
ENDBRANCH  25  26
ENDBRANCH  24  25
ENDBRANCH  23  24
ENDBRANCH  21  23
ENDBRANCH  18  19
ENDBRANCH   1  18
TORSDOF 10
ENDMDL
MODEL 2
REMARK VINA RESULT:      -7.4      0.720      1.128
REMARK  Name = 
REMARK  11 active torsions:
REMARK  status: ('A' for Active; 'I' for Inactive)
REMARK    1  A    between atoms: C_1  and  O_2
REMARK    2  A    between atoms: O_2  and  C_3
REMARK    3  A    between atoms: C_6  and  N_7
REMARK    4  A    between atoms: N_7  and  C_8
REMARK    5  A    between atoms: C_8  and  C_9
REMARK    6  A    between atoms: N_11  and  C_12
REMARK    7  A    between atoms: C_12  and  C_13
REMARK    8  A    between atoms: C_13  and  C_14
REMARK    9  A    between atoms: C_14  and  SE_15
REMARK   10  A    between atoms: SE_15  and  C_16
REMARK   11  A    between atoms: C_22  and  C_24
REMARK                            x       y       z     vdW  Elec       q    Type
REMARK                         _______ _______ _______ _____ _____    ______ ____
ROOT
ATOM      1  N   UNL     1       4.450   4.504  17.807  0.00  0.00    +0.000 N 
ATOM      2  C   UNL     1       3.721   3.357  18.159  0.00  0.00    +0.000 C 
ATOM      3  O   UNL     1       3.733   2.387  17.424  0.00  0.00    +0.000 OA
ENDROOT
BRANCH   1   7
ATOM      4  C   UNL     1       6.862   4.725  14.201  0.00  0.00    +0.000 A 
ATOM      5  C   UNL     1       7.448   4.897  15.458  0.00  0.00    +0.000 A 
ATOM      6  C   UNL     1       6.690   4.785  16.619  0.00  0.00    +0.000 A 
ATOM      7  C   UNL     1       5.286   4.525  16.594  0.00  0.00    +0.000 A 
ATOM      8  C   UNL     1       4.727   4.323  15.302  0.00  0.00    +0.000 A 
ATOM      9  C   UNL     1       5.502   4.413  14.136  0.00  0.00    +0.000 A 
BRANCH   4  11
ATOM     10  C   UNL     1       8.461   5.888  12.779  0.00  0.00    +0.000 C 
ATOM     11  O   UNL     1       7.564   4.867  13.046  0.00  0.00    +0.000 OA
ENDBRANCH   4  11
ENDBRANCH   1   7
BRANCH   2  12
ATOM     12  C   UNL     1       2.911   3.129  19.426  0.00  0.00    +0.000 A 
ATOM     13  C   UNL     1       1.508   3.308  19.334  0.00  0.00    +0.000 A 
ATOM     14  C   UNL     1       0.672   3.105  20.432  0.00  0.00    +0.000 A 
ATOM     15  C   UNL     1       1.209   2.704  21.652  0.00  0.00    +0.000 A 
ATOM     16  C   UNL     1       2.579   2.496  21.770  0.00  0.00    +0.000 A 
ATOM     17  C   UNL     1       3.424   2.699  20.675  0.00  0.00    +0.000 A 
ENDBRANCH   2  12
BRANCH   1  18
ATOM     18  C   UNL     1       4.426   5.649  18.739  0.00  0.00    +0.000 C 
BRANCH  18  19
ATOM     19  C   UNL     1       3.112   6.364  18.954  0.00  0.00    +0.000 C 
ATOM     20  O   UNL     1       2.457   6.717  17.982  0.00  0.00    +0.000 OA
ATOM     21  N   UNL     1       2.642   6.549  20.226  0.00  0.00    +0.000 N 
ATOM     22  H   UNL     1       3.212   6.225  21.022  0.00  0.00    +0.000 HD
BRANCH  21  23
ATOM     23  C   UNL     1       1.373   7.187  20.532  0.00  0.00    +0.000 C 
BRANCH  23  24
ATOM     24  C   UNL     1       1.568   8.682  20.868  0.00  0.00    +0.000 C 
BRANCH  24  25
ATOM     25  C   UNL     1       0.264   9.333  21.372  0.00  0.00    +0.000 C 
BRANCH  25  26
ATOM     26 SE   UNL     1       0.208  11.207  20.792  0.00  0.00    +0.000 Se
BRANCH  26  27
ATOM     27  C   UNL     1      -1.001  11.024  19.304  0.00  0.00    +0.000 A 
ATOM     28  C   UNL     1      -0.753  10.131  18.251  0.00  0.00    +0.000 A 
ATOM     29  C   UNL     1      -1.697   9.981  17.226  0.00  0.00    +0.000 A 
ATOM     30  C   UNL     1      -2.887  10.717  17.256  0.00  0.00    +0.000 A 
ATOM     31  C   UNL     1      -3.133  11.606  18.305  0.00  0.00    +0.000 A 
ATOM     32  C   UNL     1      -2.192  11.759  19.325  0.00  0.00    +0.000 A 
ENDBRANCH  26  27
ENDBRANCH  25  26
ENDBRANCH  24  25
ENDBRANCH  23  24
ENDBRANCH  21  23
ENDBRANCH  18  19
ENDBRANCH   1  18
TORSDOF 10
ENDMDL
MODEL 3
REMARK VINA RESULT:      -7.3      1.020      1.458
REMARK  Name = 
REMARK  11 active torsions:
REMARK  status: ('A' for Active; 'I' for Inactive)
REMARK    1  A    between atoms: C_1  and  O_2
REMARK    2  A    between atoms: O_2  and  C_3
REMARK    3  A    between atoms: C_6  and  N_7
REMARK    4  A    between atoms: N_7  and  C_8
REMARK    5  A    between atoms: C_8  and  C_9
REMARK    6  A    between atoms: N_11  and  C_12
REMARK    7  A    between atoms: C_12  and  C_13
REMARK    8  A    between atoms: C_13  and  C_14
REMARK    9  A    between atoms: C_14  and  SE_15
REMARK   10  A    between atoms: SE_15  and  C_16
REMARK   11  A    between atoms: C_22  and  C_24
REMARK                            x       y       z     vdW  Elec       q    Type
REMARK                         _______ _______ _______ _____ _____    ______ ____
ROOT
ATOM      1  N   UNL     1       4.260   4.645  17.913  0.00  0.00    +0.000 N 
ATOM      2  C   UNL     1       3.683   3.415  18.267  0.00  0.00    +0.000 C 
ATOM      3  O   UNL     1       3.961   2.414  17.632  0.00  0.00    +0.000 OA
ENDROOT
BRANCH   1   7
ATOM      4  C   UNL     1       7.156   5.060  14.702  0.00  0.00    +0.000 A 
ATOM      5  C   UNL     1       7.580   4.957  16.030  0.00  0.00    +0.000 A 
ATOM      6  C   UNL     1       6.660   4.781  17.059  0.00  0.00    +0.000 A 
ATOM      7  C   UNL     1       5.252   4.729  16.826  0.00  0.00    +0.000 A 
ATOM      8  C   UNL     1       4.857   4.805  15.463  0.00  0.00    +0.000 A 
ATOM      9  C   UNL     1       5.791   4.957  14.427  0.00  0.00    +0.000 A 
BRANCH   4  11
ATOM     10  C   UNL     1       7.733   5.088  12.336  0.00  0.00    +0.000 C 
ATOM     11  O   UNL     1       8.024   5.273  13.677  0.00  0.00    +0.000 OA
ENDBRANCH   4  11
ENDBRANCH   1   7
BRANCH   2  12
ATOM     12  C   UNL     1       2.742   3.136  19.428  0.00  0.00    +0.000 A 
ATOM     13  C   UNL     1       3.334   2.786  20.667  0.00  0.00    +0.000 A 
ATOM     14  C   UNL     1       2.562   2.529  21.800  0.00  0.00    +0.000 A 
ATOM     15  C   UNL     1       1.174   2.628  21.735  0.00  0.00    +0.000 A 
ATOM     16  C   UNL     1       0.562   2.992  20.540  0.00  0.00    +0.000 A 
ATOM     17  C   UNL     1       1.329   3.250  19.400  0.00  0.00    +0.000 A 
ENDBRANCH   2  12
BRANCH   1  18
ATOM     18  C   UNL     1       3.913   5.828  18.724  0.00  0.00    +0.000 C 
BRANCH  18  19
ATOM     19  C   UNL     1       2.731   6.666  18.292  0.00  0.00    +0.000 C 
ATOM     20  O   UNL     1       1.858   6.157  17.600  0.00  0.00    +0.000 OA
ATOM     21  N   UNL     1       2.618   7.957  18.732  0.00  0.00    +0.000 N 
ATOM     22  H   UNL     1       3.364   8.349  19.326  0.00  0.00    +0.000 HD
BRANCH  21  23
ATOM     23  C   UNL     1       1.501   8.826  18.405  0.00  0.00    +0.000 C 
BRANCH  23  24
ATOM     24  C   UNL     1       1.671  10.219  19.049  0.00  0.00    +0.000 C 
BRANCH  24  25
ATOM     25  C   UNL     1       0.583  11.206  18.582  0.00  0.00    +0.000 C 
BRANCH  25  26
ATOM     26 SE   UNL     1      -1.073  10.868  19.580  0.00  0.00    +0.000 Se
BRANCH  26  27
ATOM     27  C   UNL     1      -2.301  10.773  18.100  0.00  0.00    +0.000 A 
ATOM     28  C   UNL     1      -3.490  11.515  18.072  0.00  0.00    +0.000 A 
ATOM     29  C   UNL     1      -4.317  11.467  16.941  0.00  0.00    +0.000 A 
ATOM     30  C   UNL     1      -3.954  10.683  15.840  0.00  0.00    +0.000 A 
ATOM     31  C   UNL     1      -2.769   9.943  15.869  0.00  0.00    +0.000 A 
ATOM     32  C   UNL     1      -1.946   9.988  16.996  0.00  0.00    +0.000 A 
ENDBRANCH  26  27
ENDBRANCH  25  26
ENDBRANCH  24  25
ENDBRANCH  23  24
ENDBRANCH  21  23
ENDBRANCH  18  19
ENDBRANCH   1  18
TORSDOF 10
ENDMDL
MODEL 4
REMARK VINA RESULT:      -7.2      5.040      8.227
REMARK  Name = 
REMARK  11 active torsions:
REMARK  status: ('A' for Active; 'I' for Inactive)
REMARK    1  A    between atoms: C_1  and  O_2
REMARK    2  A    between atoms: O_2  and  C_3
REMARK    3  A    between atoms: C_6  and  N_7
REMARK    4  A    between atoms: N_7  and  C_8
REMARK    5  A    between atoms: C_8  and  C_9
REMARK    6  A    between atoms: N_11  and  C_12
REMARK    7  A    between atoms: C_12  and  C_13
REMARK    8  A    between atoms: C_13  and  C_14
REMARK    9  A    between atoms: C_14  and  SE_15
REMARK   10  A    between atoms: SE_15  and  C_16
REMARK   11  A    between atoms: C_22  and  C_24
REMARK                            x       y       z     vdW  Elec       q    Type
REMARK                         _______ _______ _______ _____ _____    ______ ____
ROOT
ATOM      1  N   UNL     1       5.779   4.296  17.174  0.00  0.00    +0.000 N 
ATOM      2  C   UNL     1       5.304   4.210  15.856  0.00  0.00    +0.000 C 
ATOM      3  O   UNL     1       4.119   4.012  15.655  0.00  0.00    +0.000 OA
ENDROOT
BRANCH   1   7
ATOM      4  C   UNL     1       2.923   4.028  20.437  0.00  0.00    +0.000 A 
ATOM      5  C   UNL     1       3.845   3.002  20.216  0.00  0.00    +0.000 A 
ATOM      6  C   UNL     1       4.791   3.100  19.200  0.00  0.00    +0.000 A 
ATOM      7  C   UNL     1       4.852   4.222  18.318  0.00  0.00    +0.000 A 
ATOM      8  C   UNL     1       3.921   5.262  18.589  0.00  0.00    +0.000 A 
ATOM      9  C   UNL     1       2.987   5.167  19.631  0.00  0.00    +0.000 A 
BRANCH   4  11
ATOM     10  C   UNL     1       1.082   2.889  21.553  0.00  0.00    +0.000 C 
ATOM     11  O   UNL     1       1.961   3.947  21.394  0.00  0.00    +0.000 OA
ENDBRANCH   4  11
ENDBRANCH   1   7
BRANCH   2  12
ATOM     12  C   UNL     1       6.101   4.385  14.573  0.00  0.00    +0.000 A 
ATOM     13  C   UNL     1       5.667   3.652  13.440  0.00  0.00    +0.000 A 
ATOM     14  C   UNL     1       6.316   3.755  12.210  0.00  0.00    +0.000 A 
ATOM     15  C   UNL     1       7.410   4.605  12.069  0.00  0.00    +0.000 A 
ATOM     16  C   UNL     1       7.847   5.357  13.154  0.00  0.00    +0.000 A 
ATOM     17  C   UNL     1       7.203   5.257  14.391  0.00  0.00    +0.000 A 
ENDBRANCH   2  12
BRANCH   1  18
ATOM     18  C   UNL     1       7.218   4.559  17.373  0.00  0.00    +0.000 C 
BRANCH  18  19
ATOM     19  C   UNL     1       7.614   5.644  18.348  0.00  0.00    +0.000 C 
ATOM     20  O   UNL     1       7.730   5.369  19.535  0.00  0.00    +0.000 OA
ATOM     21  N   UNL     1       7.902   6.900  17.883  0.00  0.00    +0.000 N 
ATOM     22  H   UNL     1       7.809   7.093  16.875  0.00  0.00    +0.000 HD
BRANCH  21  23
ATOM     23  C   UNL     1       8.331   7.996  18.735  0.00  0.00    +0.000 C 
BRANCH  23  24
ATOM     24  C   UNL     1       8.429   9.315  17.938  0.00  0.00    +0.000 C 
BRANCH  24  25
ATOM     25  C   UNL     1       8.934  10.480  18.813  0.00  0.00    +0.000 C 
BRANCH  25  26
ATOM     26 SE   UNL     1      10.278  11.505  17.816  0.00  0.00    +0.000 Se
BRANCH  26  27
ATOM     27  C   UNL     1       9.435  13.236  17.869  0.00  0.00    +0.000 A 
ATOM     28  C   UNL     1      10.178  14.425  17.866  0.00  0.00    +0.000 A 
ATOM     29  C   UNL     1       9.517  15.661  17.834  0.00  0.00    +0.000 A 
ATOM     30  C   UNL     1       8.119  15.708  17.800  0.00  0.00    +0.000 A 
ATOM     31  C   UNL     1       7.379  14.523  17.804  0.00  0.00    +0.000 A 
ATOM     32  C   UNL     1       8.036  13.291  17.839  0.00  0.00    +0.000 A 
ENDBRANCH  26  27
ENDBRANCH  25  26
ENDBRANCH  24  25
ENDBRANCH  23  24
ENDBRANCH  21  23
ENDBRANCH  18  19
ENDBRANCH   1  18
TORSDOF 10
ENDMDL
MODEL 5
REMARK VINA RESULT:      -7.1      1.609      2.536
REMARK  Name = 
REMARK  11 active torsions:
REMARK  status: ('A' for Active; 'I' for Inactive)
REMARK    1  A    between atoms: C_1  and  O_2
REMARK    2  A    between atoms: O_2  and  C_3
REMARK    3  A    between atoms: C_6  and  N_7
REMARK    4  A    between atoms: N_7  and  C_8
REMARK    5  A    between atoms: C_8  and  C_9
REMARK    6  A    between atoms: N_11  and  C_12
REMARK    7  A    between atoms: C_12  and  C_13
REMARK    8  A    between atoms: C_13  and  C_14
REMARK    9  A    between atoms: C_14  and  SE_15
REMARK   10  A    between atoms: SE_15  and  C_16
REMARK   11  A    between atoms: C_22  and  C_24
REMARK                            x       y       z     vdW  Elec       q    Type
REMARK                         _______ _______ _______ _____ _____    ______ ____
ROOT
ATOM      1  N   UNL     1       4.249   4.665  17.663  0.00  0.00    +0.000 N 
ATOM      2  C   UNL     1       3.736   3.434  18.103  0.00  0.00    +0.000 C 
ATOM      3  O   UNL     1       3.952   2.426  17.456  0.00  0.00    +0.000 OA
ENDROOT
BRANCH   1   7
ATOM      4  C   UNL     1       6.841   4.737  14.178  0.00  0.00    +0.000 A 
ATOM      5  C   UNL     1       5.491   4.399  14.050  0.00  0.00    +0.000 A 
ATOM      6  C   UNL     1       4.645   4.416  15.155  0.00  0.00    +0.000 A 
ATOM      7  C   UNL     1       5.107   4.741  16.467  0.00  0.00    +0.000 A 
ATOM      8  C   UNL     1       6.477   5.111  16.557  0.00  0.00    +0.000 A 
ATOM      9  C   UNL     1       7.318   5.117  15.434  0.00  0.00    +0.000 A 
BRANCH   4  11
ATOM     10  C   UNL     1       7.352   4.399  11.821  0.00  0.00    +0.000 C 
ATOM     11  O   UNL     1       7.703   4.693  13.128  0.00  0.00    +0.000 OA
ENDBRANCH   4  11
ENDBRANCH   1   7
BRANCH   2  12
ATOM     12  C   UNL     1       2.941   3.165  19.371  0.00  0.00    +0.000 A 
ATOM     13  C   UNL     1       1.532   3.284  19.286  0.00  0.00    +0.000 A 
ATOM     14  C   UNL     1       0.709   3.040  20.386  0.00  0.00    +0.000 A 
ATOM     15  C   UNL     1       1.268   2.654  21.601  0.00  0.00    +0.000 A 
ATOM     16  C   UNL     1       2.646   2.504  21.713  0.00  0.00    +0.000 A 
ATOM     17  C   UNL     1       3.477   2.749  20.616  0.00  0.00    +0.000 A 
ENDBRANCH   2  12
BRANCH   1  18
ATOM     18  C   UNL     1       3.982   5.858  18.489  0.00  0.00    +0.000 C 
BRANCH  18  19
ATOM     19  C   UNL     1       2.800   6.726  18.124  0.00  0.00    +0.000 C 
ATOM     20  O   UNL     1       1.794   6.203  17.662  0.00  0.00    +0.000 OA
ATOM     21  N   UNL     1       2.843   8.071  18.376  0.00  0.00    +0.000 N 
ATOM     22  H   UNL     1       3.701   8.476  18.781  0.00  0.00    +0.000 HD
BRANCH  21  23
ATOM     23  C   UNL     1       1.744   8.979  18.099  0.00  0.00    +0.000 C 
BRANCH  23  24
ATOM     24  C   UNL     1       2.258  10.410  17.825  0.00  0.00    +0.000 C 
BRANCH  24  25
ATOM     25  C   UNL     1       1.523  11.460  18.681  0.00  0.00    +0.000 C 
BRANCH  25  26
ATOM     26 SE   UNL     1      -0.394  11.039  18.719  0.00  0.00    +0.000 Se
BRANCH  26  27
ATOM     27  C   UNL     1      -0.560  10.569  20.579  0.00  0.00    +0.000 A 
ATOM     28  C   UNL     1      -0.201   9.302  21.060  0.00  0.00    +0.000 A 
ATOM     29  C   UNL     1      -0.273   9.030  22.434  0.00  0.00    +0.000 A 
ATOM     30  C   UNL     1      -0.698  10.023  23.324  0.00  0.00    +0.000 A 
ATOM     31  C   UNL     1      -1.056  11.285  22.843  0.00  0.00    +0.000 A 
ATOM     32  C   UNL     1      -0.988  11.556  21.475  0.00  0.00    +0.000 A 
ENDBRANCH  26  27
ENDBRANCH  25  26
ENDBRANCH  24  25
ENDBRANCH  23  24
ENDBRANCH  21  23
ENDBRANCH  18  19
ENDBRANCH   1  18
TORSDOF 10
ENDMDL
MODEL 6
REMARK VINA RESULT:      -7.1      5.577      8.754
REMARK  Name = 
REMARK  11 active torsions:
REMARK  status: ('A' for Active; 'I' for Inactive)
REMARK    1  A    between atoms: C_1  and  O_2
REMARK    2  A    between atoms: O_2  and  C_3
REMARK    3  A    between atoms: C_6  and  N_7
REMARK    4  A    between atoms: N_7  and  C_8
REMARK    5  A    between atoms: C_8  and  C_9
REMARK    6  A    between atoms: N_11  and  C_12
REMARK    7  A    between atoms: C_12  and  C_13
REMARK    8  A    between atoms: C_13  and  C_14
REMARK    9  A    between atoms: C_14  and  SE_15
REMARK   10  A    between atoms: SE_15  and  C_16
REMARK   11  A    between atoms: C_22  and  C_24
REMARK                            x       y       z     vdW  Elec       q    Type
REMARK                         _______ _______ _______ _____ _____    ______ ____
ROOT
ATOM      1  N   UNL     1       5.280   5.246  16.739  0.00  0.00    +0.000 N 
ATOM      2  C   UNL     1       5.471   4.241  15.776  0.00  0.00    +0.000 C 
ATOM      3  O   UNL     1       4.974   3.143  15.946  0.00  0.00    +0.000 OA
ENDROOT
BRANCH   1   7
ATOM      4  C   UNL     1       2.663   4.459  20.115  0.00  0.00    +0.000 A 
ATOM      5  C   UNL     1       3.843   3.730  19.949  0.00  0.00    +0.000 A 
ATOM      6  C   UNL     1       4.708   4.005  18.893  0.00  0.00    +0.000 A 
ATOM      7  C   UNL     1       4.428   5.010  17.918  0.00  0.00    +0.000 A 
ATOM      8  C   UNL     1       3.236   5.755  18.135  0.00  0.00    +0.000 A 
ATOM      9  C   UNL     1       2.382   5.489  19.215  0.00  0.00    +0.000 A 
BRANCH   4  11
ATOM     10  C   UNL     1       1.599   2.952  21.706  0.00  0.00    +0.000 C 
ATOM     11  O   UNL     1       1.778   4.190  21.111  0.00  0.00    +0.000 OA
ENDBRANCH   4  11
ENDBRANCH   1   7
BRANCH   2  12
ATOM     12  C   UNL     1       6.215   4.357  14.455  0.00  0.00    +0.000 A 
ATOM     13  C   UNL     1       5.712   3.603  13.365  0.00  0.00    +0.000 A 
ATOM     14  C   UNL     1       6.309   3.653  12.105  0.00  0.00    +0.000 A 
ATOM     15  C   UNL     1       7.418   4.467  11.891  0.00  0.00    +0.000 A 
ATOM     16  C   UNL     1       7.922   5.238  12.933  0.00  0.00    +0.000 A 
ATOM     17  C   UNL     1       7.330   5.193  14.199  0.00  0.00    +0.000 A 
ENDBRANCH   2  12
BRANCH   1  18
ATOM     18  C   UNL     1       5.880   6.570  16.482  0.00  0.00    +0.000 C 
BRANCH  18  19
ATOM     19  C   UNL     1       7.002   7.029  17.385  0.00  0.00    +0.000 C 
ATOM     20  O   UNL     1       7.636   6.199  18.022  0.00  0.00    +0.000 OA
ATOM     21  N   UNL     1       7.337   8.356  17.428  0.00  0.00    +0.000 N 
ATOM     22  H   UNL     1       6.792   9.027  16.865  0.00  0.00    +0.000 HD
BRANCH  21  23
ATOM     23  C   UNL     1       8.424   8.888  18.231  0.00  0.00    +0.000 C 
BRANCH  23  24
ATOM     24  C   UNL     1       8.483  10.429  18.138  0.00  0.00    +0.000 C 
BRANCH  24  25
ATOM     25  C   UNL     1       9.935  10.948  18.105  0.00  0.00    +0.000 C 
BRANCH  25  26
ATOM     26 SE   UNL     1      10.250  12.095  19.666  0.00  0.00    +0.000 Se
BRANCH  26  27
ATOM     27  C   UNL     1      10.486  13.777  18.759  0.00  0.00    +0.000 A 
ATOM     28  C   UNL     1      11.203  13.879  17.558  0.00  0.00    +0.000 A 
ATOM     29  C   UNL     1      11.287  15.113  16.897  0.00  0.00    +0.000 A 
ATOM     30  C   UNL     1      10.653  16.240  17.433  0.00  0.00    +0.000 A 
ATOM     31  C   UNL     1       9.940  16.137  18.630  0.00  0.00    +0.000 A 
ATOM     32  C   UNL     1       9.858  14.909  19.291  0.00  0.00    +0.000 A 
ENDBRANCH  26  27
ENDBRANCH  25  26
ENDBRANCH  24  25
ENDBRANCH  23  24
ENDBRANCH  21  23
ENDBRANCH  18  19
ENDBRANCH   1  18
TORSDOF 10
ENDMDL
MODEL 7
REMARK VINA RESULT:      -7.1      1.093      1.696
REMARK  Name = 
REMARK  11 active torsions:
REMARK  status: ('A' for Active; 'I' for Inactive)
REMARK    1  A    between atoms: C_1  and  O_2
REMARK    2  A    between atoms: O_2  and  C_3
REMARK    3  A    between atoms: C_6  and  N_7
REMARK    4  A    between atoms: N_7  and  C_8
REMARK    5  A    between atoms: C_8  and  C_9
REMARK    6  A    between atoms: N_11  and  C_12
REMARK    7  A    between atoms: C_12  and  C_13
REMARK    8  A    between atoms: C_13  and  C_14
REMARK    9  A    between atoms: C_14  and  SE_15
REMARK   10  A    between atoms: SE_15  and  C_16
REMARK   11  A    between atoms: C_22  and  C_24
REMARK                            x       y       z     vdW  Elec       q    Type
REMARK                         _______ _______ _______ _____ _____    ______ ____
ROOT
ATOM      1  N   UNL     1       4.539   4.496  17.843  0.00  0.00    +0.000 N 
ATOM      2  C   UNL     1       3.700   3.404  18.118  0.00  0.00    +0.000 C 
ATOM      3  O   UNL     1       3.598   2.503  17.305  0.00  0.00    +0.000 OA
ENDROOT
BRANCH   1   7
ATOM      4  C   UNL     1       6.879   4.760  14.193  0.00  0.00    +0.000 A 
ATOM      5  C   UNL     1       7.477   4.986  15.436  0.00  0.00    +0.000 A 
ATOM      6  C   UNL     1       6.744   4.861  16.612  0.00  0.00    +0.000 A 
ATOM      7  C   UNL     1       5.354   4.533  16.616  0.00  0.00    +0.000 A 
ATOM      8  C   UNL     1       4.784   4.277  15.338  0.00  0.00    +0.000 A 
ATOM      9  C   UNL     1       5.536   4.380  14.158  0.00  0.00    +0.000 A 
BRANCH   4  11
ATOM     10  C   UNL     1       8.486   5.904  12.764  0.00  0.00    +0.000 C 
ATOM     11  O   UNL     1       7.556   4.912  13.024  0.00  0.00    +0.000 OA
ENDBRANCH   4  11
ENDBRANCH   1   7
BRANCH   2  12
ATOM     12  C   UNL     1       2.890   3.156  19.381  0.00  0.00    +0.000 A 
ATOM     13  C   UNL     1       1.483   3.294  19.282  0.00  0.00    +0.000 A 
ATOM     14  C   UNL     1       0.648   3.069  20.376  0.00  0.00    +0.000 A 
ATOM     15  C   UNL     1       1.190   2.686  21.600  0.00  0.00    +0.000 A 
ATOM     16  C   UNL     1       2.565   2.518  21.725  0.00  0.00    +0.000 A 
ATOM     17  C   UNL     1       3.410   2.743  20.634  0.00  0.00    +0.000 A 
ENDBRANCH   2  12
BRANCH   1  18
ATOM     18  C   UNL     1       4.650   5.555  18.866  0.00  0.00    +0.000 C 
BRANCH  18  19
ATOM     19  C   UNL     1       3.428   6.397  19.154  0.00  0.00    +0.000 C 
ATOM     20  O   UNL     1       2.778   6.181  20.168  0.00  0.00    +0.000 OA
ATOM     21  N   UNL     1       3.102   7.428  18.314  0.00  0.00    +0.000 N 
ATOM     22  H   UNL     1       3.681   7.592  17.476  0.00  0.00    +0.000 HD
BRANCH  21  23
ATOM     23  C   UNL     1       1.974   8.317  18.528  0.00  0.00    +0.000 C 
BRANCH  23  24
ATOM     24  C   UNL     1       2.114   9.607  17.691  0.00  0.00    +0.000 C 
BRANCH  24  25
ATOM     25  C   UNL     1       1.382  10.798  18.342  0.00  0.00    +0.000 C 
BRANCH  25  26
ATOM     26 SE   UNL     1      -0.006  10.123  19.554  0.00  0.00    +0.000 Se
BRANCH  26  27
ATOM     27  C   UNL     1      -1.556  10.505  18.476  0.00  0.00    +0.000 A 
ATOM     28  C   UNL     1      -2.527  11.435  18.874  0.00  0.00    +0.000 A 
ATOM     29  C   UNL     1      -3.601  11.732  18.023  0.00  0.00    +0.000 A 
ATOM     30  C   UNL     1      -3.700  11.105  16.776  0.00  0.00    +0.000 A 
ATOM     31  C   UNL     1      -2.733  10.178  16.380  0.00  0.00    +0.000 A 
ATOM     32  C   UNL     1      -1.664   9.879  17.229  0.00  0.00    +0.000 A 
ENDBRANCH  26  27
ENDBRANCH  25  26
ENDBRANCH  24  25
ENDBRANCH  23  24
ENDBRANCH  21  23
ENDBRANCH  18  19
ENDBRANCH   1  18
TORSDOF 10
ENDMDL
MODEL 8
REMARK VINA RESULT:      -7.1      1.158      1.727
REMARK  Name = 
REMARK  11 active torsions:
REMARK  status: ('A' for Active; 'I' for Inactive)
REMARK    1  A    between atoms: C_1  and  O_2
REMARK    2  A    between atoms: O_2  and  C_3
REMARK    3  A    between atoms: C_6  and  N_7
REMARK    4  A    between atoms: N_7  and  C_8
REMARK    5  A    between atoms: C_8  and  C_9
REMARK    6  A    between atoms: N_11  and  C_12
REMARK    7  A    between atoms: C_12  and  C_13
REMARK    8  A    between atoms: C_13  and  C_14
REMARK    9  A    between atoms: C_14  and  SE_15
REMARK   10  A    between atoms: SE_15  and  C_16
REMARK   11  A    between atoms: C_22  and  C_24
REMARK                            x       y       z     vdW  Elec       q    Type
REMARK                         _______ _______ _______ _____ _____    ______ ____
ROOT
ATOM      1  N   UNL     1       4.148   5.025  17.811  0.00  0.00    +0.000 N 
ATOM      2  C   UNL     1       3.668   3.757  18.175  0.00  0.00    +0.000 C 
ATOM      3  O   UNL     1       4.046   2.772  17.568  0.00  0.00    +0.000 OA
ENDROOT
BRANCH   1   7
ATOM      4  C   UNL     1       7.211   5.326  14.745  0.00  0.00    +0.000 A 
ATOM      5  C   UNL     1       5.981   4.726  14.461  0.00  0.00    +0.000 A 
ATOM      6  C   UNL     1       4.980   4.665  15.425  0.00  0.00    +0.000 A 
ATOM      7  C   UNL     1       5.159   5.173  16.748  0.00  0.00    +0.000 A 
ATOM      8  C   UNL     1       6.409   5.804  16.994  0.00  0.00    +0.000 A 
ATOM      9  C   UNL     1       7.405   5.886  16.010  0.00  0.00    +0.000 A 
BRANCH   4  11
ATOM     10  C   UNL     1       8.065   5.508  12.471  0.00  0.00    +0.000 C 
ATOM     11  O   UNL     1       8.224   5.368  13.840  0.00  0.00    +0.000 OA
ENDBRANCH   4  11
ENDBRANCH   1   7
BRANCH   2  12
ATOM     12  C   UNL     1       2.723   3.420  19.318  0.00  0.00    +0.000 A 
ATOM     13  C   UNL     1       3.303   2.897  20.501  0.00  0.00    +0.000 A 
ATOM     14  C   UNL     1       2.527   2.574  21.614  0.00  0.00    +0.000 A 
ATOM     15  C   UNL     1       1.150   2.776  21.587  0.00  0.00    +0.000 A 
ATOM     16  C   UNL     1       0.552   3.310  20.450  0.00  0.00    +0.000 A 
ATOM     17  C   UNL     1       1.322   3.635  19.330  0.00  0.00    +0.000 A 
ENDBRANCH   2  12
BRANCH   1  18
ATOM     18  C   UNL     1       3.681   6.189  18.588  0.00  0.00    +0.000 C 
BRANCH  18  19
ATOM     19  C   UNL     1       3.097   7.361  17.833  0.00  0.00    +0.000 C 
ATOM     20  O   UNL     1       3.377   7.510  16.651  0.00  0.00    +0.000 OA
ATOM     21  N   UNL     1       2.214   8.198  18.460  0.00  0.00    +0.000 N 
ATOM     22  H   UNL     1       1.987   8.034  19.452  0.00  0.00    +0.000 HD
BRANCH  21  23
ATOM     23  C   UNL     1       1.569   9.325  17.808  0.00  0.00    +0.000 C 
BRANCH  23  24
ATOM     24  C   UNL     1       1.863  10.644  18.554  0.00  0.00    +0.000 C 
BRANCH  24  25
ATOM     25  C   UNL     1       0.577  11.449  18.830  0.00  0.00    +0.000 C 
BRANCH  25  26
ATOM     26 SE   UNL     1      -0.808  10.242  19.521  0.00  0.00    +0.000 Se
BRANCH  26  27
ATOM     27  C   UNL     1      -2.141  10.503  18.156  0.00  0.00    +0.000 A 
ATOM     28  C   UNL     1      -3.199  11.410  18.314  0.00  0.00    +0.000 A 
ATOM     29  C   UNL     1      -4.104  11.617  17.264  0.00  0.00    +0.000 A 
ATOM     30  C   UNL     1      -3.949  10.924  16.058  0.00  0.00    +0.000 A 
ATOM     31  C   UNL     1      -2.895  10.020  15.902  0.00  0.00    +0.000 A 
ATOM     32  C   UNL     1      -1.995   9.810  16.949  0.00  0.00    +0.000 A 
ENDBRANCH  26  27
ENDBRANCH  25  26
ENDBRANCH  24  25
ENDBRANCH  23  24
ENDBRANCH  21  23
ENDBRANCH  18  19
ENDBRANCH   1  18
TORSDOF 10
ENDMDL
MODEL 9
REMARK VINA RESULT:      -7.1      5.464      8.640
REMARK  Name = 
REMARK  11 active torsions:
REMARK  status: ('A' for Active; 'I' for Inactive)
REMARK    1  A    between atoms: C_1  and  O_2
REMARK    2  A    between atoms: O_2  and  C_3
REMARK    3  A    between atoms: C_6  and  N_7
REMARK    4  A    between atoms: N_7  and  C_8
REMARK    5  A    between atoms: C_8  and  C_9
REMARK    6  A    between atoms: N_11  and  C_12
REMARK    7  A    between atoms: C_12  and  C_13
REMARK    8  A    between atoms: C_13  and  C_14
REMARK    9  A    between atoms: C_14  and  SE_15
REMARK   10  A    between atoms: SE_15  and  C_16
REMARK   11  A    between atoms: C_22  and  C_24
REMARK                            x       y       z     vdW  Elec       q    Type
REMARK                         _______ _______ _______ _____ _____    ______ ____
ROOT
ATOM      1  N   UNL     1       5.203   5.192  16.809  0.00  0.00    +0.000 N 
ATOM      2  C   UNL     1       5.411   4.199  15.838  0.00  0.00    +0.000 C 
ATOM      3  O   UNL     1       4.918   3.097  15.989  0.00  0.00    +0.000 OA
ENDROOT
BRANCH   1   7
ATOM      4  C   UNL     1       2.560   4.338  20.149  0.00  0.00    +0.000 A 
ATOM      5  C   UNL     1       3.814   3.726  20.063  0.00  0.00    +0.000 A 
ATOM      6  C   UNL     1       4.683   4.028  19.019  0.00  0.00    +0.000 A 
ATOM      7  C   UNL     1       4.338   4.939  17.975  0.00  0.00    +0.000 A 
ATOM      8  C   UNL     1       3.069   5.567  18.109  0.00  0.00    +0.000 A 
ATOM      9  C   UNL     1       2.208   5.278  19.178  0.00  0.00    +0.000 A 
BRANCH   4  11
ATOM     10  C   UNL     1       1.535   2.796  21.731  0.00  0.00    +0.000 C 
ATOM     11  O   UNL     1       1.671   4.037  21.133  0.00  0.00    +0.000 OA
ENDBRANCH   4  11
ENDBRANCH   1   7
BRANCH   2  12
ATOM     12  C   UNL     1       6.171   4.333  14.528  0.00  0.00    +0.000 A 
ATOM     13  C   UNL     1       5.684   3.592  13.422  0.00  0.00    +0.000 A 
ATOM     14  C   UNL     1       6.296   3.659  12.170  0.00  0.00    +0.000 A 
ATOM     15  C   UNL     1       7.405   4.479  11.980  0.00  0.00    +0.000 A 
ATOM     16  C   UNL     1       7.894   5.238  13.038  0.00  0.00    +0.000 A 
ATOM     17  C   UNL     1       7.287   5.176  14.296  0.00  0.00    +0.000 A 
ENDBRANCH   2  12
BRANCH   1  18
ATOM     18  C   UNL     1       5.800   6.522  16.575  0.00  0.00    +0.000 C 
BRANCH  18  19
ATOM     19  C   UNL     1       6.998   6.920  17.406  0.00  0.00    +0.000 C 
ATOM     20  O   UNL     1       7.696   6.048  17.906  0.00  0.00    +0.000 OA
ATOM     21  N   UNL     1       7.323   8.244  17.535  0.00  0.00    +0.000 N 
ATOM     22  H   UNL     1       6.722   8.952  17.087  0.00  0.00    +0.000 HD
BRANCH  21  23
ATOM     23  C   UNL     1       8.476   8.722  18.277  0.00  0.00    +0.000 C 
BRANCH  23  24
ATOM     24  C   UNL     1       8.760  10.209  17.969  0.00  0.00    +0.000 C 
BRANCH  24  25
ATOM     25  C   UNL     1       9.770  10.820  18.960  0.00  0.00    +0.000 C 
BRANCH  25  26
ATOM     26 SE   UNL     1      10.723  12.298  18.088  0.00  0.00    +0.000 Se
BRANCH  26  27
ATOM     27  C   UNL     1      10.326  13.696  19.350  0.00  0.00    +0.000 A 
ATOM     28  C   UNL     1       9.818  14.940  18.947  0.00  0.00    +0.000 A 
ATOM     29  C   UNL     1       9.478  15.901  19.909  0.00  0.00    +0.000 A 
ATOM     30  C   UNL     1       9.641  15.619  21.270  0.00  0.00    +0.000 A 
ATOM     31  C   UNL     1      10.148  14.380  21.671  0.00  0.00    +0.000 A 
ATOM     32  C   UNL     1      10.490  13.423  20.713  0.00  0.00    +0.000 A 
ENDBRANCH  26  27
ENDBRANCH  25  26
ENDBRANCH  24  25
ENDBRANCH  23  24
ENDBRANCH  21  23
ENDBRANCH  18  19
ENDBRANCH   1  18
TORSDOF 10
ENDMDL
