MODEL 1
REMARK VINA RESULT:      -7.8      0.000      0.000
REMARK  Name = 
REMARK  7 active torsions:
REMARK  status: ('A' for Active; 'I' for Inactive)
REMARK    1  A    between atoms: C_1  and  O_2
REMARK    2  A    between atoms: O_2  and  C_3
REMARK    3  A    between atoms: C_8  and  C_9
REMARK    4  A    between atoms: C_9  and  C_11
REMARK    5  A    between atoms: N_15  and  C_16
REMARK    6  A    between atoms: N_22  and  C_23
REMARK    7  A    between atoms: C_33  and  N_34
REMARK                            x       y       z     vdW  Elec       q    Type
REMARK                         _______ _______ _______ _____ _____    ______ ____
ROOT
ATOM      1  C   UNL     1       3.371   6.149  18.669  0.00  0.00    +0.000 A 
ATOM      2  C   UNL     1       3.347   7.144  17.718  0.00  0.00    +0.000 A 
ATOM      3  N   UNL     1       2.618   8.277  17.822  0.00  0.00    +0.000 NA
ATOM      4  C   UNL     1       1.896   8.436  18.936  0.00  0.00    +0.000 A 
ATOM      5  N   UNL     1       1.209   9.635  19.024  0.00  0.00    +0.000 N 
ATOM      6  N   UNL     1       1.820   7.510  19.903  0.00  0.00    +0.000 NA
ATOM      7  C   UNL     1       2.523   6.368  19.745  0.00  0.00    +0.000 A 
ATOM      8  H   UNL     1       1.018   9.939  18.077  0.00  0.00    +0.000 HD
ENDROOT
BRANCH   5   9
ATOM      9  C   UNL     1       0.163   9.782  20.030  0.00  0.00    +0.000 C 
ATOM     10  C   UNL     1      -1.016  10.592  19.493  0.00  0.00    +0.000 C 
ATOM     11  C   UNL     1      -0.698  12.069  19.329  0.00  0.00    +0.000 C 
ATOM     12  N   UNL     1      -0.143  12.674  20.537  0.00  0.00    +0.000 N 
ATOM     13  C   UNL     1      -0.380  14.046  20.671  0.00  0.00    +0.000 C 
ATOM     14  O   UNL     1      -1.118  14.627  19.873  0.00  0.00    +0.000 OA
ATOM     15  N   UNL     1       0.232  14.677  21.731  0.00  0.00    +0.000 N 
ATOM     16  C   UNL     1       0.969  11.948  21.155  0.00  0.00    +0.000 C 
ATOM     17  C   UNL     1       0.725  10.444  21.289  0.00  0.00    +0.000 C 
ATOM     18  H   UNL     1       1.060  14.250  22.110  0.00  0.00    +0.000 HD
BRANCH  15  19
ATOM     19  C   UNL     1      -0.013  16.016  22.130  0.00  0.00    +0.000 A 
ATOM     20  C   UNL     1       0.713  17.106  21.629  0.00  0.00    +0.000 A 
ATOM     21  C   UNL     1       0.481  18.405  22.091  0.00  0.00    +0.000 A 
ATOM     22  C   UNL     1      -0.500  18.631  23.047  0.00  0.00    +0.000 A 
ATOM     23  C   UNL     1      -1.253  17.561  23.513  0.00  0.00    +0.000 A 
ATOM     24  F   UNL     1      -2.207  17.781  24.428  0.00  0.00    +0.000 F 
ATOM     25  C   UNL     1      -1.030  16.260  23.059  0.00  0.00    +0.000 A 
ENDBRANCH  15  19
ENDBRANCH   5   9
BRANCH   7  26
ATOM     26  N   UNL     1       2.382   5.448  20.789  0.00  0.00    +0.000 N 
ATOM     27  H   UNL     1       1.724   5.811  21.471  0.00  0.00    +0.000 HD
ATOM     28  H   UNL     1       2.138   4.522  20.432  0.00  0.00    +0.000 HD
ENDBRANCH   7  26
BRANCH   1  29
ATOM     29  C   UNL     1       4.118   4.887  18.472  0.00  0.00    +0.000 C 
ATOM     30  O   UNL     1       3.784   3.909  19.150  0.00  0.00    +0.000 OA
BRANCH  29  36
ATOM     31  C   UNL     1       6.561   4.655  17.662  0.00  0.00    +0.000 A 
ATOM     32  C   UNL     1       7.437   4.489  16.579  0.00  0.00    +0.000 A 
ATOM     33  C   UNL     1       6.957   4.323  15.277  0.00  0.00    +0.000 A 
ATOM     34  C   UNL     1       5.590   4.313  15.045  0.00  0.00    +0.000 A 
ATOM     35  C   UNL     1       4.704   4.493  16.107  0.00  0.00    +0.000 A 
ATOM     36  C   UNL     1       5.173   4.692  17.422  0.00  0.00    +0.000 A 
BRANCH  31  38
ATOM     37  C   UNL     1       7.826   5.921  19.243  0.00  0.00    +0.000 C 
ATOM     38  O   UNL     1       6.997   4.797  18.954  0.00  0.00    +0.000 OA
ENDBRANCH  31  38
ENDBRANCH  29  36
ENDBRANCH   1  29
TORSDOF 6
ENDMDL
MODEL 2
REMARK VINA RESULT:      -7.6      1.171      1.507
REMARK  Name = 
REMARK  7 active torsions:
REMARK  status: ('A' for Active; 'I' for Inactive)
REMARK    1  A    between atoms: C_1  and  O_2
REMARK    2  A    between atoms: O_2  and  C_3
REMARK    3  A    between atoms: C_8  and  C_9
REMARK    4  A    between atoms: C_9  and  C_11
REMARK    5  A    between atoms: N_15  and  C_16
REMARK    6  A    between atoms: N_22  and  C_23
REMARK    7  A    between atoms: C_33  and  N_34
REMARK                            x       y       z     vdW  Elec       q    Type
REMARK                         _______ _______ _______ _____ _____    ______ ____
ROOT
ATOM      1  C   UNL     1       3.746   6.607  18.406  0.00  0.00    +0.000 A 
ATOM      2  C   UNL     1       3.662   7.607  17.464  0.00  0.00    +0.000 A 
ATOM      3  N   UNL     1       2.728   8.584  17.474  0.00  0.00    +0.000 NA
ATOM      4  C   UNL     1       1.852   8.577  18.484  0.00  0.00    +0.000 A 
ATOM      5  N   UNL     1       0.949   9.627  18.485  0.00  0.00    +0.000 N 
ATOM      6  N   UNL     1       1.824   7.626  19.429  0.00  0.00    +0.000 NA
ATOM      7  C   UNL     1       2.740   6.636  19.361  0.00  0.00    +0.000 A 
ATOM      8  H   UNL     1       0.830   9.918  17.522  0.00  0.00    +0.000 HD
ENDROOT
BRANCH   5   9
ATOM      9  C   UNL     1      -0.227   9.552  19.344  0.00  0.00    +0.000 C 
ATOM     10  C   UNL     1      -1.302  10.545  18.905  0.00  0.00    +0.000 C 
ATOM     11  C   UNL     1      -0.937  11.989  19.205  0.00  0.00    +0.000 C 
ATOM     12  N   UNL     1      -0.549  12.206  20.596  0.00  0.00    +0.000 N 
ATOM     13  C   UNL     1      -0.778  13.499  21.077  0.00  0.00    +0.000 C 
ATOM     14  O   UNL     1      -1.384  14.319  20.383  0.00  0.00    +0.000 OA
ATOM     15  N   UNL     1      -0.313  13.778  22.343  0.00  0.00    +0.000 N 
ATOM     16  C   UNL     1       0.449  11.275  21.128  0.00  0.00    +0.000 C 
ATOM     17  C   UNL     1       0.160   9.809  20.802  0.00  0.00    +0.000 C 
ATOM     18  H   UNL     1       0.445  13.216  22.693  0.00  0.00    +0.000 HD
BRANCH  15  19
ATOM     19  C   UNL     1      -0.587  14.967  23.066  0.00  0.00    +0.000 A 
ATOM     20  C   UNL     1      -1.583  15.049  24.050  0.00  0.00    +0.000 A 
ATOM     21  C   UNL     1      -1.863  16.255  24.699  0.00  0.00    +0.000 A 
ATOM     22  C   UNL     1      -1.130  17.392  24.385  0.00  0.00    +0.000 A 
ATOM     23  C   UNL     1      -0.112  17.306  23.445  0.00  0.00    +0.000 A 
ATOM     24  F   UNL     1       0.602  18.401  23.150  0.00  0.00    +0.000 F 
ATOM     25  C   UNL     1       0.175  16.107  22.790  0.00  0.00    +0.000 A 
ENDBRANCH  15  19
ENDBRANCH   5   9
BRANCH   7  26
ATOM     26  N   UNL     1       2.638   5.677  20.373  0.00  0.00    +0.000 N 
ATOM     27  H   UNL     1       1.693   5.307  20.392  0.00  0.00    +0.000 HD
ATOM     28  H   UNL     1       3.360   4.960  20.274  0.00  0.00    +0.000 HD
ENDBRANCH   7  26
BRANCH   1  29
ATOM     29  C   UNL     1       4.733   5.509  18.304  0.00  0.00    +0.000 C 
ATOM     30  O   UNL     1       4.877   4.772  19.287  0.00  0.00    +0.000 OA
BRANCH  29  36
ATOM     31  C   UNL     1       6.801   5.563  16.756  0.00  0.00    +0.000 A 
ATOM     32  C   UNL     1       7.369   5.190  15.528  0.00  0.00    +0.000 A 
ATOM     33  C   UNL     1       6.665   4.404  14.613  0.00  0.00    +0.000 A 
ATOM     34  C   UNL     1       5.383   3.975  14.918  0.00  0.00    +0.000 A 
ATOM     35  C   UNL     1       4.796   4.350  16.127  0.00  0.00    +0.000 A 
ATOM     36  C   UNL     1       5.481   5.166  17.049  0.00  0.00    +0.000 A 
BRANCH  31  38
ATOM     37  C   UNL     1       7.561   7.717  17.453  0.00  0.00    +0.000 C 
ATOM     38  O   UNL     1       7.472   6.313  17.687  0.00  0.00    +0.000 OA
ENDBRANCH  31  38
ENDBRANCH  29  36
ENDBRANCH   1  29
TORSDOF 6
ENDMDL
MODEL 3
REMARK VINA RESULT:      -7.5      4.580     12.209
REMARK  Name = 
REMARK  7 active torsions:
REMARK  status: ('A' for Active; 'I' for Inactive)
REMARK    1  A    between atoms: C_1  and  O_2
REMARK    2  A    between atoms: O_2  and  C_3
REMARK    3  A    between atoms: C_8  and  C_9
REMARK    4  A    between atoms: C_9  and  C_11
REMARK    5  A    between atoms: N_15  and  C_16
REMARK    6  A    between atoms: N_22  and  C_23
REMARK    7  A    between atoms: C_33  and  N_34
REMARK                            x       y       z     vdW  Elec       q    Type
REMARK                         _______ _______ _______ _____ _____    ______ ____
ROOT
ATOM      1  C   UNL     1      -4.256  12.801  21.812  0.00  0.00    +0.000 A 
ATOM      2  C   UNL     1      -4.276  12.697  20.440  0.00  0.00    +0.000 A 
ATOM      3  N   UNL     1      -3.204  12.369  19.687  0.00  0.00    +0.000 NA
ATOM      4  C   UNL     1      -2.062  12.111  20.333  0.00  0.00    +0.000 A 
ATOM      5  N   UNL     1      -1.004  11.725  19.526  0.00  0.00    +0.000 N 
ATOM      6  N   UNL     1      -1.927  12.223  21.662  0.00  0.00    +0.000 NA
ATOM      7  C   UNL     1      -3.006  12.601  22.381  0.00  0.00    +0.000 A 
ATOM      8  H   UNL     1      -1.156  12.143  18.616  0.00  0.00    +0.000 HD
ENDROOT
BRANCH   5   9
ATOM      9  C   UNL     1       0.345  11.721  20.079  0.00  0.00    +0.000 C 
ATOM     10  C   UNL     1       1.393  11.510  18.986  0.00  0.00    +0.000 C 
ATOM     11  C   UNL     1       1.405  10.092  18.439  0.00  0.00    +0.000 C 
ATOM     12  N   UNL     1       1.511   9.075  19.482  0.00  0.00    +0.000 N 
ATOM     13  C   UNL     1       2.107   7.876  19.077  0.00  0.00    +0.000 C 
ATOM     14  O   UNL     1       2.606   7.782  17.954  0.00  0.00    +0.000 OA
ATOM     15  N   UNL     1       2.112   6.850  19.996  0.00  0.00    +0.000 N 
ATOM     16  C   UNL     1       0.574   9.215  20.600  0.00  0.00    +0.000 C 
ATOM     17  C   UNL     1       0.479  10.638  21.151  0.00  0.00    +0.000 C 
ATOM     18  H   UNL     1       1.411   6.868  20.717  0.00  0.00    +0.000 HD
BRANCH  15  19
ATOM     19  C   UNL     1       2.806   5.623  19.838  0.00  0.00    +0.000 A 
ATOM     20  C   UNL     1       4.146   5.551  19.431  0.00  0.00    +0.000 A 
ATOM     21  C   UNL     1       4.778   4.321  19.231  0.00  0.00    +0.000 A 
ATOM     22  C   UNL     1       4.079   3.143  19.458  0.00  0.00    +0.000 A 
ATOM     23  C   UNL     1       2.766   3.208  19.905  0.00  0.00    +0.000 A 
ATOM     24  F   UNL     1       2.095   2.071  20.135  0.00  0.00    +0.000 F 
ATOM     25  C   UNL     1       2.125   4.432  20.108  0.00  0.00    +0.000 A 
ENDBRANCH  15  19
ENDBRANCH   5   9
BRANCH   7  26
ATOM     26  N   UNL     1      -2.782  12.707  23.757  0.00  0.00    +0.000 N 
ATOM     27  H   UNL     1      -2.150  11.971  24.053  0.00  0.00    +0.000 HD
ATOM     28  H   UNL     1      -2.466  13.647  24.007  0.00  0.00    +0.000 HD
ENDBRANCH   7  26
BRANCH   1  29
ATOM     29  C   UNL     1      -5.435  13.248  22.587  0.00  0.00    +0.000 C 
ATOM     30  O   UNL     1      -5.941  12.444  23.379  0.00  0.00    +0.000 OA
BRANCH  29  36
ATOM     31  C   UNL     1      -5.346  15.776  23.111  0.00  0.00    +0.000 A 
ATOM     32  C   UNL     1      -5.983  17.024  23.030  0.00  0.00    +0.000 A 
ATOM     33  C   UNL     1      -7.210  17.170  22.378  0.00  0.00    +0.000 A 
ATOM     34  C   UNL     1      -7.813  16.068  21.792  0.00  0.00    +0.000 A 
ATOM     35  C   UNL     1      -7.202  14.816  21.877  0.00  0.00    +0.000 A 
ATOM     36  C   UNL     1      -5.979  14.647  22.556  0.00  0.00    +0.000 A 
BRANCH  31  38
ATOM     37  C   UNL     1      -3.901  16.319  24.933  0.00  0.00    +0.000 C 
ATOM     38  O   UNL     1      -4.132  15.602  23.722  0.00  0.00    +0.000 OA
ENDBRANCH  31  38
ENDBRANCH  29  36
ENDBRANCH   1  29
TORSDOF 6
ENDMDL
MODEL 4
REMARK VINA RESULT:      -7.5      0.883      1.152
REMARK  Name = 
REMARK  7 active torsions:
REMARK  status: ('A' for Active; 'I' for Inactive)
REMARK    1  A    between atoms: C_1  and  O_2
REMARK    2  A    between atoms: O_2  and  C_3
REMARK    3  A    between atoms: C_8  and  C_9
REMARK    4  A    between atoms: C_9  and  C_11
REMARK    5  A    between atoms: N_15  and  C_16
REMARK    6  A    between atoms: N_22  and  C_23
REMARK    7  A    between atoms: C_33  and  N_34
REMARK                            x       y       z     vdW  Elec       q    Type
REMARK                         _______ _______ _______ _____ _____    ______ ____
ROOT
ATOM      1  C   UNL     1       3.486   6.015  18.706  0.00  0.00    +0.000 A 
ATOM      2  C   UNL     1       3.481   7.033  17.781  0.00  0.00    +0.000 A 
ATOM      3  N   UNL     1       2.730   8.152  17.886  0.00  0.00    +0.000 NA
ATOM      4  C   UNL     1       1.964   8.271  18.975  0.00  0.00    +0.000 A 
ATOM      5  N   UNL     1       1.255   9.457  19.068  0.00  0.00    +0.000 N 
ATOM      6  N   UNL     1       1.867   7.319  19.914  0.00  0.00    +0.000 NA
ATOM      7  C   UNL     1       2.594   6.192  19.754  0.00  0.00    +0.000 A 
ATOM      8  H   UNL     1       1.095   9.783  18.123  0.00  0.00    +0.000 HD
ENDROOT
BRANCH   5   9
ATOM      9  C   UNL     1       0.169   9.560  20.037  0.00  0.00    +0.000 C 
ATOM     10  C   UNL     1      -0.959  10.448  19.514  0.00  0.00    +0.000 C 
ATOM     11  C   UNL     1      -0.591  11.922  19.479  0.00  0.00    +0.000 C 
ATOM     12  N   UNL     1      -0.073  12.414  20.753  0.00  0.00    +0.000 N 
ATOM     13  C   UNL     1      -0.276  13.779  20.983  0.00  0.00    +0.000 C 
ATOM     14  O   UNL     1      -0.959  14.443  20.202  0.00  0.00    +0.000 OA
ATOM     15  N   UNL     1       0.306  14.306  22.115  0.00  0.00    +0.000 N 
ATOM     16  C   UNL     1       0.988  11.606  21.360  0.00  0.00    +0.000 C 
ATOM     17  C   UNL     1       0.693  10.106  21.367  0.00  0.00    +0.000 C 
ATOM     18  H   UNL     1       1.104  13.825  22.495  0.00  0.00    +0.000 HD
BRANCH  15  19
ATOM     19  C   UNL     1       0.084  15.618  22.606  0.00  0.00    +0.000 A 
ATOM     20  C   UNL     1      -1.189  16.101  22.941  0.00  0.00    +0.000 A 
ATOM     21  C   UNL     1      -1.375  17.419  23.367  0.00  0.00    +0.000 A 
ATOM     22  C   UNL     1      -0.281  18.266  23.484  0.00  0.00    +0.000 A 
ATOM     23  C   UNL     1       0.988  17.779  23.198  0.00  0.00    +0.000 A 
ATOM     24  F   UNL     1       2.045  18.593  23.322  0.00  0.00    +0.000 F 
ATOM     25  C   UNL     1       1.185  16.464  22.772  0.00  0.00    +0.000 A 
ENDBRANCH  15  19
ENDBRANCH   5   9
BRANCH   7  26
ATOM     26  N   UNL     1       2.429   5.243  20.768  0.00  0.00    +0.000 N 
ATOM     27  H   UNL     1       1.901   4.454  20.407  0.00  0.00    +0.000 HD
ATOM     28  H   UNL     1       3.327   4.985  21.180  0.00  0.00    +0.000 HD
ENDBRANCH   7  26
BRANCH   1  29
ATOM     29  C   UNL     1       4.261   4.770  18.505  0.00  0.00    +0.000 C 
ATOM     30  O   UNL     1       3.985   3.799  19.220  0.00  0.00    +0.000 OA
BRANCH  29  36
ATOM     31  C   UNL     1       6.672   4.632  17.587  0.00  0.00    +0.000 A 
ATOM     32  C   UNL     1       7.504   4.459  16.470  0.00  0.00    +0.000 A 
ATOM     33  C   UNL     1       6.974   4.199  15.205  0.00  0.00    +0.000 A 
ATOM     34  C   UNL     1       5.600   4.102  15.041  0.00  0.00    +0.000 A 
ATOM     35  C   UNL     1       4.757   4.287  16.137  0.00  0.00    +0.000 A 
ATOM     36  C   UNL     1       5.274   4.579  17.415  0.00  0.00    +0.000 A 
BRANCH  31  38
ATOM     37  C   UNL     1       7.865   6.087  19.058  0.00  0.00    +0.000 C 
ATOM     38  O   UNL     1       7.160   4.865  18.846  0.00  0.00    +0.000 OA
ENDBRANCH  31  38
ENDBRANCH  29  36
ENDBRANCH   1  29
TORSDOF 6
ENDMDL
MODEL 5
REMARK VINA RESULT:      -7.5      2.824      3.466
REMARK  Name = 
REMARK  7 active torsions:
REMARK  status: ('A' for Active; 'I' for Inactive)
REMARK    1  A    between atoms: C_1  and  O_2
REMARK    2  A    between atoms: O_2  and  C_3
REMARK    3  A    between atoms: C_8  and  C_9
REMARK    4  A    between atoms: C_9  and  C_11
REMARK    5  A    between atoms: N_15  and  C_16
REMARK    6  A    between atoms: N_22  and  C_23
REMARK    7  A    between atoms: C_33  and  N_34
REMARK                            x       y       z     vdW  Elec       q    Type
REMARK                         _______ _______ _______ _____ _____    ______ ____
ROOT
ATOM      1  C   UNL     1       2.883   5.040  18.378  0.00  0.00    +0.000 A 
ATOM      2  C   UNL     1       2.059   4.626  19.399  0.00  0.00    +0.000 A 
ATOM      3  N   UNL     1       1.527   5.451  20.328  0.00  0.00    +0.000 NA
ATOM      4  C   UNL     1       1.813   6.753  20.220  0.00  0.00    +0.000 A 
ATOM      5  N   UNL     1       1.202   7.568  21.160  0.00  0.00    +0.000 N 
ATOM      6  N   UNL     1       2.636   7.252  19.288  0.00  0.00    +0.000 NA
ATOM      7  C   UNL     1       3.190   6.393  18.405  0.00  0.00    +0.000 A 
ATOM      8  H   UNL     1       1.043   7.003  21.985  0.00  0.00    +0.000 HD
ENDROOT
BRANCH   5   9
ATOM      9  C   UNL     1       1.678   8.936  21.329  0.00  0.00    +0.000 C 
ATOM     10  C   UNL     1       1.310   9.486  22.707  0.00  0.00    +0.000 C 
ATOM     11  C   UNL     1      -0.173   9.779  22.855  0.00  0.00    +0.000 C 
ATOM     12  N   UNL     1      -0.701  10.623  21.786  0.00  0.00    +0.000 N 
ATOM     13  C   UNL     1      -1.814  11.394  22.139  0.00  0.00    +0.000 C 
ATOM     14  O   UNL     1      -2.200  11.422  23.310  0.00  0.00    +0.000 OA
ATOM     15  N   UNL     1      -2.416  12.108  21.127  0.00  0.00    +0.000 N 
ATOM     16  C   UNL     1      -0.367  10.202  20.423  0.00  0.00    +0.000 C 
ATOM     17  C   UNL     1       1.106   9.838  20.234  0.00  0.00    +0.000 C 
ATOM     18  H   UNL     1      -2.285  11.779  20.185  0.00  0.00    +0.000 HD
BRANCH  15  19
ATOM     19  C   UNL     1      -3.445  13.067  21.311  0.00  0.00    +0.000 A 
ATOM     20  C   UNL     1      -3.242  14.444  21.143  0.00  0.00    +0.000 A 
ATOM     21  C   UNL     1      -4.266  15.362  21.390  0.00  0.00    +0.000 A 
ATOM     22  C   UNL     1      -5.517  14.909  21.788  0.00  0.00    +0.000 A 
ATOM     23  C   UNL     1      -5.736  13.543  21.911  0.00  0.00    +0.000 A 
ATOM     24  F   UNL     1      -6.946  13.105  22.284  0.00  0.00    +0.000 F 
ATOM     25  C   UNL     1      -4.720  12.617  21.667  0.00  0.00    +0.000 A 
ENDBRANCH  15  19
ENDBRANCH   5   9
BRANCH   7  26
ATOM     26  N   UNL     1       4.047   6.987  17.472  0.00  0.00    +0.000 N 
ATOM     27  H   UNL     1       3.512   7.604  16.869  0.00  0.00    +0.000 HD
ATOM     28  H   UNL     1       4.834   7.444  17.936  0.00  0.00    +0.000 HD
ENDBRANCH   7  26
BRANCH   1  29
ATOM     29  C   UNL     1       3.511   4.087  17.435  0.00  0.00    +0.000 C 
ATOM     30  O   UNL     1       2.875   3.069  17.139  0.00  0.00    +0.000 OA
BRANCH  29  36
ATOM     31  C   UNL     1       6.068   4.449  17.363  0.00  0.00    +0.000 A 
ATOM     32  C   UNL     1       7.204   4.708  16.581  0.00  0.00    +0.000 A 
ATOM     33  C   UNL     1       7.118   4.819  15.192  0.00  0.00    +0.000 A 
ATOM     34  C   UNL     1       5.891   4.664  14.565  0.00  0.00    +0.000 A 
ATOM     35  C   UNL     1       4.748   4.422  15.327  0.00  0.00    +0.000 A 
ATOM     36  C   UNL     1       4.813   4.337  16.732  0.00  0.00    +0.000 A 
BRANCH  31  38
ATOM     37  C   UNL     1       6.641   5.409  19.473  0.00  0.00    +0.000 C 
ATOM     38  O   UNL     1       6.121   4.311  18.726  0.00  0.00    +0.000 OA
ENDBRANCH  31  38
ENDBRANCH  29  36
ENDBRANCH   1  29
TORSDOF 6
ENDMDL
MODEL 6
REMARK VINA RESULT:      -7.5      1.492      1.510
REMARK  Name = 
REMARK  7 active torsions:
REMARK  status: ('A' for Active; 'I' for Inactive)
REMARK    1  A    between atoms: C_1  and  O_2
REMARK    2  A    between atoms: O_2  and  C_3
REMARK    3  A    between atoms: C_8  and  C_9
REMARK    4  A    between atoms: C_9  and  C_11
REMARK    5  A    between atoms: N_15  and  C_16
REMARK    6  A    between atoms: N_22  and  C_23
REMARK    7  A    between atoms: C_33  and  N_34
REMARK                            x       y       z     vdW  Elec       q    Type
REMARK                         _______ _______ _______ _____ _____    ______ ____
ROOT
ATOM      1  C   UNL     1       3.334   5.930  18.346  0.00  0.00    +0.000 A 
ATOM      2  C   UNL     1       3.141   6.989  17.488  0.00  0.00    +0.000 A 
ATOM      3  N   UNL     1       2.503   8.132  17.822  0.00  0.00    +0.000 NA
ATOM      4  C   UNL     1       2.056   8.233  19.078  0.00  0.00    +0.000 A 
ATOM      5  N   UNL     1       1.458   9.443  19.393  0.00  0.00    +0.000 N 
ATOM      6  N   UNL     1       2.157   7.246  19.978  0.00  0.00    +0.000 NA
ATOM      7  C   UNL     1       2.757   6.097  19.597  0.00  0.00    +0.000 A 
ATOM      8  H   UNL     1       1.074   9.817  18.533  0.00  0.00    +0.000 HD
ENDROOT
BRANCH   5   9
ATOM      9  C   UNL     1       0.670   9.548  20.615  0.00  0.00    +0.000 C 
ATOM     10  C   UNL     1      -0.827   9.601  20.309  0.00  0.00    +0.000 C 
ATOM     11  C   UNL     1      -1.262  10.916  19.686  0.00  0.00    +0.000 C 
ATOM     12  N   UNL     1      -0.834  12.084  20.452  0.00  0.00    +0.000 N 
ATOM     13  C   UNL     1      -1.647  13.213  20.308  0.00  0.00    +0.000 C 
ATOM     14  O   UNL     1      -2.704  13.138  19.677  0.00  0.00    +0.000 OA
ATOM     15  N   UNL     1      -1.210  14.369  20.914  0.00  0.00    +0.000 N 
ATOM     16  C   UNL     1       0.580  12.108  20.832  0.00  0.00    +0.000 C 
ATOM     17  C   UNL     1       1.086  10.786  21.412  0.00  0.00    +0.000 C 
ATOM     18  H   UNL     1      -0.224  14.454  21.095  0.00  0.00    +0.000 HD
BRANCH  15  19
ATOM     19  C   UNL     1      -1.965  15.565  21.023  0.00  0.00    +0.000 A 
ATOM     20  C   UNL     1      -1.874  16.611  20.093  0.00  0.00    +0.000 A 
ATOM     21  C   UNL     1      -2.591  17.798  20.266  0.00  0.00    +0.000 A 
ATOM     22  C   UNL     1      -3.428  17.943  21.364  0.00  0.00    +0.000 A 
ATOM     23  C   UNL     1      -3.557  16.893  22.263  0.00  0.00    +0.000 A 
ATOM     24  F   UNL     1      -4.374  17.028  23.317  0.00  0.00    +0.000 F 
ATOM     25  C   UNL     1      -2.846  15.703  22.100  0.00  0.00    +0.000 A 
ENDBRANCH  15  19
ENDBRANCH   5   9
BRANCH   7  26
ATOM     26  N   UNL     1       2.813   5.111  20.587  0.00  0.00    +0.000 N 
ATOM     27  H   UNL     1       2.868   5.553  21.499  0.00  0.00    +0.000 HD
ATOM     28  H   UNL     1       2.038   4.452  20.493  0.00  0.00    +0.000 HD
ENDBRANCH   7  26
BRANCH   1  29
ATOM     29  C   UNL     1       3.964   4.664  17.908  0.00  0.00    +0.000 C 
ATOM     30  O   UNL     1       3.450   3.606  18.287  0.00  0.00    +0.000 OA
BRANCH  29  36
ATOM     31  C   UNL     1       6.474   4.608  17.300  0.00  0.00    +0.000 A 
ATOM     32  C   UNL     1       7.445   4.553  16.289  0.00  0.00    +0.000 A 
ATOM     33  C   UNL     1       7.085   4.441  14.944  0.00  0.00    +0.000 A 
ATOM     34  C   UNL     1       5.746   4.375  14.594  0.00  0.00    +0.000 A 
ATOM     35  C   UNL     1       4.766   4.444  15.585  0.00  0.00    +0.000 A 
ATOM     36  C   UNL     1       5.112   4.587  16.944  0.00  0.00    +0.000 A 
BRANCH  31  38
ATOM     37  C   UNL     1       7.453   5.881  19.068  0.00  0.00    +0.000 C 
ATOM     38  O   UNL     1       6.793   4.695  18.631  0.00  0.00    +0.000 OA
ENDBRANCH  31  38
ENDBRANCH  29  36
ENDBRANCH   1  29
TORSDOF 6
ENDMDL
MODEL 7
REMARK VINA RESULT:      -7.5      1.627      2.107
REMARK  Name = 
REMARK  7 active torsions:
REMARK  status: ('A' for Active; 'I' for Inactive)
REMARK    1  A    between atoms: C_1  and  O_2
REMARK    2  A    between atoms: O_2  and  C_3
REMARK    3  A    between atoms: C_8  and  C_9
REMARK    4  A    between atoms: C_9  and  C_11
REMARK    5  A    between atoms: N_15  and  C_16
REMARK    6  A    between atoms: N_22  and  C_23
REMARK    7  A    between atoms: C_33  and  N_34
REMARK                            x       y       z     vdW  Elec       q    Type
REMARK                         _______ _______ _______ _____ _____    ______ ____
ROOT
ATOM      1  C   UNL     1       3.423   5.341  18.404  0.00  0.00    +0.000 A 
ATOM      2  C   UNL     1       3.312   6.592  17.841  0.00  0.00    +0.000 A 
ATOM      3  N   UNL     1       2.679   7.634  18.424  0.00  0.00    +0.000 NA
ATOM      4  C   UNL     1       2.151   7.424  19.635  0.00  0.00    +0.000 A 
ATOM      5  N   UNL     1       1.560   8.534  20.217  0.00  0.00    +0.000 N 
ATOM      6  N   UNL     1       2.170   6.234  20.251  0.00  0.00    +0.000 NA
ATOM      7  C   UNL     1       2.768   5.201  19.619  0.00  0.00    +0.000 A 
ATOM      8  H   UNL     1       1.244   9.132  19.464  0.00  0.00    +0.000 HD
ENDROOT
BRANCH   5   9
ATOM      9  C   UNL     1       0.695   8.350  21.376  0.00  0.00    +0.000 C 
ATOM     10  C   UNL     1      -0.772   8.592  21.019  0.00  0.00    +0.000 C 
ATOM     11  C   UNL     1      -1.091  10.056  20.770  0.00  0.00    +0.000 C 
ATOM     12  N   UNL     1      -0.657  10.931  21.856  0.00  0.00    +0.000 N 
ATOM     13  C   UNL     1      -1.397  12.110  21.994  0.00  0.00    +0.000 C 
ATOM     14  O   UNL     1      -2.408  12.289  21.313  0.00  0.00    +0.000 OA
ATOM     15  N   UNL     1      -0.942  13.018  22.925  0.00  0.00    +0.000 N 
ATOM     16  C   UNL     1       0.727  10.748  22.302  0.00  0.00    +0.000 C 
ATOM     17  C   UNL     1       1.119   9.285  22.511  0.00  0.00    +0.000 C 
ATOM     18  H   UNL     1       0.032  12.980  23.174  0.00  0.00    +0.000 HD
BRANCH  15  19
ATOM     19  C   UNL     1      -1.638  14.187  23.326  0.00  0.00    +0.000 A 
ATOM     20  C   UNL     1      -2.699  14.166  24.243  0.00  0.00    +0.000 A 
ATOM     21  C   UNL     1      -3.398  15.332  24.569  0.00  0.00    +0.000 A 
ATOM     22  C   UNL     1      -3.026  16.541  23.996  0.00  0.00    +0.000 A 
ATOM     23  C   UNL     1      -1.947  16.574  23.123  0.00  0.00    +0.000 A 
ATOM     24  F   UNL     1      -1.582  17.743  22.578  0.00  0.00    +0.000 F 
ATOM     25  C   UNL     1      -1.242  15.416  22.790  0.00  0.00    +0.000 A 
ENDBRANCH  15  19
ENDBRANCH   5   9
BRANCH   7  26
ATOM     26  N   UNL     1       2.735   3.991  20.319  0.00  0.00    +0.000 N 
ATOM     27  H   UNL     1       3.321   3.312  19.845  0.00  0.00    +0.000 HD
ATOM     28  H   UNL     1       2.976   4.129  21.303  0.00  0.00    +0.000 HD
ENDBRANCH   7  26
BRANCH   1  29
ATOM     29  C   UNL     1       4.052   4.207  17.689  0.00  0.00    +0.000 C 
ATOM     30  O   UNL     1       3.534   3.091  17.812  0.00  0.00    +0.000 OA
BRANCH  29  36
ATOM     31  C   UNL     1       6.553   4.507  17.114  0.00  0.00    +0.000 A 
ATOM     32  C   UNL     1       7.527   4.654  16.115  0.00  0.00    +0.000 A 
ATOM     33  C   UNL     1       7.189   4.611  14.761  0.00  0.00    +0.000 A 
ATOM     34  C   UNL     1       5.868   4.412  14.388  0.00  0.00    +0.000 A 
ATOM     35  C   UNL     1       4.884   4.280  15.367  0.00  0.00    +0.000 A 
ATOM     36  C   UNL     1       5.204   4.350  16.738  0.00  0.00    +0.000 A 
BRANCH  31  38
ATOM     37  C   UNL     1       7.399   5.725  18.985  0.00  0.00    +0.000 C 
ATOM     38  O   UNL     1       6.854   4.521  18.451  0.00  0.00    +0.000 OA
ENDBRANCH  31  38
ENDBRANCH  29  36
ENDBRANCH   1  29
TORSDOF 6
ENDMDL
MODEL 8
REMARK VINA RESULT:      -7.5      2.868      4.123
REMARK  Name = 
REMARK  7 active torsions:
REMARK  status: ('A' for Active; 'I' for Inactive)
REMARK    1  A    between atoms: C_1  and  O_2
REMARK    2  A    between atoms: O_2  and  C_3
REMARK    3  A    between atoms: C_8  and  C_9
REMARK    4  A    between atoms: C_9  and  C_11
REMARK    5  A    between atoms: N_15  and  C_16
REMARK    6  A    between atoms: N_22  and  C_23
REMARK    7  A    between atoms: C_33  and  N_34
REMARK                            x       y       z     vdW  Elec       q    Type
REMARK                         _______ _______ _______ _____ _____    ______ ____
ROOT
ATOM      1  C   UNL     1       2.173   7.257  19.656  0.00  0.00    +0.000 A 
ATOM      2  C   UNL     1       1.556   7.586  20.842  0.00  0.00    +0.000 A 
ATOM      3  N   UNL     1       0.894   8.744  21.058  0.00  0.00    +0.000 NA
ATOM      4  C   UNL     1       0.825   9.605  20.037  0.00  0.00    +0.000 A 
ATOM      5  N   UNL     1       0.090  10.753  20.286  0.00  0.00    +0.000 N 
ATOM      6  N   UNL     1       1.424   9.397  18.857  0.00  0.00    +0.000 NA
ATOM      7  C   UNL     1       2.119   8.252  18.690  0.00  0.00    +0.000 A 
ATOM      8  H   UNL     1       0.140  10.928  21.283  0.00  0.00    +0.000 HD
ENDROOT
BRANCH   5   9
ATOM      9  C   UNL     1       0.206  11.882  19.371  0.00  0.00    +0.000 C 
ATOM     10  C   UNL     1       0.728  13.127  20.086  0.00  0.00    +0.000 C 
ATOM     11  C   UNL     1      -0.293  13.746  21.026  0.00  0.00    +0.000 C 
ATOM     12  N   UNL     1      -1.582  13.999  20.388  0.00  0.00    +0.000 N 
ATOM     13  C   UNL     1      -2.321  15.047  20.948  0.00  0.00    +0.000 C 
ATOM     14  O   UNL     1      -1.822  15.755  21.825  0.00  0.00    +0.000 OA
ATOM     15  N   UNL     1      -3.593  15.237  20.456  0.00  0.00    +0.000 N 
ATOM     16  C   UNL     1      -2.150  12.876  19.639  0.00  0.00    +0.000 C 
ATOM     17  C   UNL     1      -1.146  12.179  18.719  0.00  0.00    +0.000 C 
ATOM     18  H   UNL     1      -4.046  14.449  20.025  0.00  0.00    +0.000 HD
BRANCH  15  19
ATOM     19  C   UNL     1      -4.431  16.336  20.774  0.00  0.00    +0.000 A 
ATOM     20  C   UNL     1      -4.420  17.537  20.050  0.00  0.00    +0.000 A 
ATOM     21  C   UNL     1      -5.219  18.619  20.430  0.00  0.00    +0.000 A 
ATOM     22  C   UNL     1      -6.059  18.503  21.530  0.00  0.00    +0.000 A 
ATOM     23  C   UNL     1      -6.107  17.300  22.222  0.00  0.00    +0.000 A 
ATOM     24  F   UNL     1      -6.926  17.183  23.277  0.00  0.00    +0.000 F 
ATOM     25  C   UNL     1      -5.313  16.213  21.851  0.00  0.00    +0.000 A 
ENDBRANCH  15  19
ENDBRANCH   5   9
BRANCH   7  26
ATOM     26  N   UNL     1       2.726   8.114  17.438  0.00  0.00    +0.000 N 
ATOM     27  H   UNL     1       2.014   8.131  16.715  0.00  0.00    +0.000 HD
ATOM     28  H   UNL     1       3.462   8.811  17.307  0.00  0.00    +0.000 HD
ENDBRANCH   7  26
BRANCH   1  29
ATOM     29  C   UNL     1       2.959   6.014  19.495  0.00  0.00    +0.000 C 
ATOM     30  O   UNL     1       4.187   6.089  19.623  0.00  0.00    +0.000 OA
BRANCH  29  36
ATOM     31  C   UNL     1       2.493   3.859  18.148  0.00  0.00    +0.000 A 
ATOM     32  C   UNL     1       1.846   2.614  18.094  0.00  0.00    +0.000 A 
ATOM     33  C   UNL     1       1.100   2.138  19.174  0.00  0.00    +0.000 A 
ATOM     34  C   UNL     1       0.997   2.900  20.328  0.00  0.00    +0.000 A 
ATOM     35  C   UNL     1       1.619   4.147  20.394  0.00  0.00    +0.000 A 
ATOM     36  C   UNL     1       2.351   4.655  19.301  0.00  0.00    +0.000 A 
BRANCH  31  38
ATOM     37  C   UNL     1       4.560   3.801  16.953  0.00  0.00    +0.000 C 
ATOM     38  O   UNL     1       3.252   4.345  17.115  0.00  0.00    +0.000 OA
ENDBRANCH  31  38
ENDBRANCH  29  36
ENDBRANCH   1  29
TORSDOF 6
ENDMDL
MODEL 9
REMARK VINA RESULT:      -7.4      3.992     11.092
REMARK  Name = 
REMARK  7 active torsions:
REMARK  status: ('A' for Active; 'I' for Inactive)
REMARK    1  A    between atoms: C_1  and  O_2
REMARK    2  A    between atoms: O_2  and  C_3
REMARK    3  A    between atoms: C_8  and  C_9
REMARK    4  A    between atoms: C_9  and  C_11
REMARK    5  A    between atoms: N_15  and  C_16
REMARK    6  A    between atoms: N_22  and  C_23
REMARK    7  A    between atoms: C_33  and  N_34
REMARK                            x       y       z     vdW  Elec       q    Type
REMARK                         _______ _______ _______ _____ _____    ______ ____
ROOT
ATOM      1  C   UNL     1       0.387  15.218  20.366  0.00  0.00    +0.000 A 
ATOM      2  C   UNL     1       0.983  14.784  21.528  0.00  0.00    +0.000 A 
ATOM      3  N   UNL     1       1.001  13.496  21.937  0.00  0.00    +0.000 NA
ATOM      4  C   UNL     1       0.417  12.596  21.139  0.00  0.00    +0.000 A 
ATOM      5  N   UNL     1       0.507  11.283  21.570  0.00  0.00    +0.000 N 
ATOM      6  N   UNL     1      -0.225  12.921  20.008  0.00  0.00    +0.000 NA
ATOM      7  C   UNL     1      -0.267  14.223  19.653  0.00  0.00    +0.000 A 
ATOM      8  H   UNL     1       0.582  11.305  22.580  0.00  0.00    +0.000 HD
ENDROOT
BRANCH   5   9
ATOM      9  C   UNL     1      -0.346  10.273  20.954  0.00  0.00    +0.000 C 
ATOM     10  C   UNL     1      -0.226   8.930  21.673  0.00  0.00    +0.000 C 
ATOM     11  C   UNL     1       1.103   8.236  21.424  0.00  0.00    +0.000 C 
ATOM     12  N   UNL     1       1.429   8.112  20.006  0.00  0.00    +0.000 N 
ATOM     13  C   UNL     1       2.256   7.031  19.685  0.00  0.00    +0.000 C 
ATOM     14  O   UNL     1       2.552   6.201  20.547  0.00  0.00    +0.000 OA
ATOM     15  N   UNL     1       2.687   6.951  18.379  0.00  0.00    +0.000 N 
ATOM     16  C   UNL     1       1.304   9.340  19.217  0.00  0.00    +0.000 C 
ATOM     17  C   UNL     1       0.008  10.109  19.474  0.00  0.00    +0.000 C 
ATOM     18  H   UNL     1       2.707   7.802  17.844  0.00  0.00    +0.000 HD
BRANCH  15  19
ATOM     19  C   UNL     1       3.389   5.852  17.822  0.00  0.00    +0.000 A 
ATOM     20  C   UNL     1       4.693   5.958  17.316  0.00  0.00    +0.000 A 
ATOM     21  C   UNL     1       5.330   4.865  16.721  0.00  0.00    +0.000 A 
ATOM     22  C   UNL     1       4.676   3.642  16.647  0.00  0.00    +0.000 A 
ATOM     23  C   UNL     1       3.403   3.520  17.189  0.00  0.00    +0.000 A 
ATOM     24  F   UNL     1       2.775   2.337  17.127  0.00  0.00    +0.000 F 
ATOM     25  C   UNL     1       2.757   4.605  17.784  0.00  0.00    +0.000 A 
ENDBRANCH  15  19
ENDBRANCH   5   9
BRANCH   7  26
ATOM     26  N   UNL     1      -0.964  14.483  18.469  0.00  0.00    +0.000 N 
ATOM     27  H   UNL     1      -1.961  14.478  18.658  0.00  0.00    +0.000 HD
ATOM     28  H   UNL     1      -0.632  15.343  18.028  0.00  0.00    +0.000 HD
ENDBRANCH   7  26
BRANCH   1  29
ATOM     29  C   UNL     1       0.319  16.652  20.003  0.00  0.00    +0.000 C 
ATOM     30  O   UNL     1       0.003  17.455  20.888  0.00  0.00    +0.000 OA
BRANCH  29  36
ATOM     31  C   UNL     1       1.976  17.010  18.053  0.00  0.00    +0.000 A 
ATOM     32  C   UNL     1       2.224  17.600  16.805  0.00  0.00    +0.000 A 
ATOM     33  C   UNL     1       1.238  18.337  16.143  0.00  0.00    +0.000 A 
ATOM     34  C   UNL     1      -0.013  18.486  16.722  0.00  0.00    +0.000 A 
ATOM     35  C   UNL     1      -0.272  17.919  17.970  0.00  0.00    +0.000 A 
ATOM     36  C   UNL     1       0.721  17.198  18.664  0.00  0.00    +0.000 A 
BRANCH  31  38
ATOM     37  C   UNL     1       3.896  16.966  19.473  0.00  0.00    +0.000 C 
ATOM     38  O   UNL     1       2.913  16.261  18.718  0.00  0.00    +0.000 OA
ENDBRANCH  31  38
ENDBRANCH  29  36
ENDBRANCH   1  29
TORSDOF 6
ENDMDL
