MODEL 1
REMARK VINA RESULT:      -6.7      0.000      0.000
REMARK  Name = 
REMARK  3 active torsions:
REMARK  status: ('A' for Active; 'I' for Inactive)
REMARK    1  A    between atoms: C_1  and  C_2
REMARK    2  A    between atoms: C_10  and  C_11
REMARK    3  A    between atoms: C_24  and  C_25
REMARK                            x       y       z     vdW  Elec       q    Type
REMARK                         _______ _______ _______ _____ _____    ______ ____
ROOT
ATOM      1  C   UNL     1       0.201   8.679  22.330  0.00  0.00    +0.000 C 
ATOM      2  C   UNL     1       0.620   8.883  20.898  0.00  0.00    +0.000 C 
ATOM      3  C   UNL     1       0.379   9.928  20.059  0.00  0.00    +0.000 C 
ATOM      4  C   UNL     1      -0.420  11.171  20.382  0.00  0.00    +0.000 C 
ATOM      5  O   UNL     1      -1.076  11.127  21.620  0.00  0.00    +0.000 OA
ATOM      6  C   UNL     1      -0.823  12.309  22.218  0.00  0.00    +0.000 C 
ATOM      7  O   UNL     1      -0.805  12.419  23.434  0.00  0.00    +0.000 OA
ATOM      8  C   UNL     1      -0.387  13.365  21.161  0.00  0.00    +0.000 C 
ATOM      9  C   UNL     1       0.009  14.583  21.975  0.00  0.00    +0.000 C 
ATOM     10  C   UNL     1      -1.422  15.114  21.951  0.00  0.00    +0.000 C 
ATOM     11  N   UNL     1      -1.873  15.096  20.739  0.00  0.00    +0.000 NA
ATOM     12  O   UNL     1      -1.248  13.951  20.178  0.00  0.00    +0.000 OA
ATOM     13  C   UNL     1       0.507  12.406  20.390  0.00  0.00    +0.000 C 
ATOM     14  C   UNL     1       0.835  12.649  18.913  0.00  0.00    +0.000 C 
ATOM     15  C   UNL     1       1.572  11.420  18.336  0.00  0.00    +0.000 C 
ATOM     16  C   UNL     1       0.927  10.017  18.623  0.00  0.00    +0.000 C 
ATOM     17  C   UNL     1      -0.223   9.732  17.630  0.00  0.00    +0.000 C 
ATOM     18  C   UNL     1       1.984   8.967  18.366  0.00  0.00    +0.000 C 
ATOM     19  C   UNL     1       2.208   7.912  19.156  0.00  0.00    +0.000 C 
ATOM     20  C   UNL     1       1.429   7.723  20.394  0.00  0.00    +0.000 C 
ATOM     21  O   UNL     1       1.494   6.660  20.995  0.00  0.00    +0.000 OA
ENDROOT
BRANCH  10  22
ATOM     22  C   UNL     1      -2.384  14.934  23.095  0.00  0.00    +0.000 A 
ATOM     23  C   UNL     1      -3.684  14.491  22.841  0.00  0.00    +0.000 A 
ATOM     24 CL   UNL     1      -4.010  13.298  21.639  0.00  0.00    +0.000 Cl
ATOM     25  C   UNL     1      -4.758  15.012  23.576  0.00  0.00    +0.000 A 
ATOM     26  C   UNL     1      -4.540  15.962  24.575  0.00  0.00    +0.000 A 
ATOM     27  C   UNL     1      -3.242  16.282  24.946  0.00  0.00    +0.000 A 
ATOM     28  C   UNL     1      -2.163  15.733  24.250  0.00  0.00    +0.000 A 
ATOM     29 CL   UNL     1      -0.607  16.194  24.869  0.00  0.00    +0.000 Cl
ENDBRANCH  10  22
TORSDOF 1
ENDMDL
MODEL 2
REMARK VINA RESULT:      -6.6      2.766      7.523
REMARK  Name = 
REMARK  3 active torsions:
REMARK  status: ('A' for Active; 'I' for Inactive)
REMARK    1  A    between atoms: C_1  and  C_2
REMARK    2  A    between atoms: C_10  and  C_11
REMARK    3  A    between atoms: C_24  and  C_25
REMARK                            x       y       z     vdW  Elec       q    Type
REMARK                         _______ _______ _______ _____ _____    ______ ____
ROOT
ATOM      1  C   UNL     1      -5.602  13.335  19.737  0.00  0.00    +0.000 C 
ATOM      2  C   UNL     1      -5.597  13.632  21.212  0.00  0.00    +0.000 C 
ATOM      3  C   UNL     1      -4.641  13.384  22.150  0.00  0.00    +0.000 C 
ATOM      4  C   UNL     1      -3.311  12.703  21.915  0.00  0.00    +0.000 C 
ATOM      5  O   UNL     1      -3.162  12.163  20.630  0.00  0.00    +0.000 OA
ATOM      6  C   UNL     1      -1.941  12.549  20.204  0.00  0.00    +0.000 C 
ATOM      7  O   UNL     1      -1.693  12.687  19.016  0.00  0.00    +0.000 OA
ATOM      8  C   UNL     1      -1.051  12.954  21.414  0.00  0.00    +0.000 C 
ATOM      9  C   UNL     1       0.218  13.503  20.791  0.00  0.00    +0.000 C 
ATOM     10  C   UNL     1       0.852  12.115  20.759  0.00  0.00    +0.000 C 
ATOM     11  N   UNL     1       0.729  11.553  21.916  0.00  0.00    +0.000 NA
ATOM     12  O   UNL     1      -0.518  12.046  22.385  0.00  0.00    +0.000 OA
ATOM     13  C   UNL     1      -2.159  13.707  22.135  0.00  0.00    +0.000 C 
ATOM     14  C   UNL     1      -2.114  13.911  23.652  0.00  0.00    +0.000 C 
ATOM     15  C   UNL     1      -3.454  14.508  24.135  0.00  0.00    +0.000 C 
ATOM     16  C   UNL     1      -4.760  13.801  23.627  0.00  0.00    +0.000 C 
ATOM     17  C   UNL     1      -5.069  12.547  24.477  0.00  0.00    +0.000 C 
ATOM     18  C   UNL     1      -5.912  14.757  23.842  0.00  0.00    +0.000 C 
ATOM     19  C   UNL     1      -6.883  14.984  22.951  0.00  0.00    +0.000 C 
ATOM     20  C   UNL     1      -6.867  14.312  21.638  0.00  0.00    +0.000 C 
ATOM     21  O   UNL     1      -7.855  14.362  20.919  0.00  0.00    +0.000 OA
ENDROOT
BRANCH  10  22
ATOM     22  C   UNL     1       0.880  11.253  19.524  0.00  0.00    +0.000 A 
ATOM     23  C   UNL     1       0.586   9.892  19.626  0.00  0.00    +0.000 A 
ATOM     24 CL   UNL     1      -0.641   9.312  20.689  0.00  0.00    +0.000 Cl
ATOM     25  C   UNL     1       1.292   8.963  18.847  0.00  0.00    +0.000 A 
ATOM     26  C   UNL     1       2.279   9.387  17.956  0.00  0.00    +0.000 A 
ATOM     27  C   UNL     1       2.459  10.745  17.728  0.00  0.00    +0.000 A 
ATOM     28  C   UNL     1       1.728  11.679  18.465  0.00  0.00    +0.000 A 
ATOM     29 CL   UNL     1       2.034  13.330  18.025  0.00  0.00    +0.000 Cl
ENDBRANCH  10  22
TORSDOF 1
ENDMDL
MODEL 3
REMARK VINA RESULT:      -6.6      1.112      1.257
REMARK  Name = 
REMARK  3 active torsions:
REMARK  status: ('A' for Active; 'I' for Inactive)
REMARK    1  A    between atoms: C_1  and  C_2
REMARK    2  A    between atoms: C_10  and  C_11
REMARK    3  A    between atoms: C_24  and  C_25
REMARK                            x       y       z     vdW  Elec       q    Type
REMARK                         _______ _______ _______ _____ _____    ______ ____
ROOT
ATOM      1  C   UNL     1      -0.197   9.794  22.860  0.00  0.00    +0.000 C 
ATOM      2  C   UNL     1       0.051   9.874  21.377  0.00  0.00    +0.000 C 
ATOM      3  C   UNL     1      -0.339  10.818  20.476  0.00  0.00    +0.000 C 
ATOM      4  C   UNL     1      -1.169  12.048  20.770  0.00  0.00    +0.000 C 
ATOM      5  O   UNL     1      -1.683  12.097  22.074  0.00  0.00    +0.000 OA
ATOM      6  C   UNL     1      -1.434  13.344  22.525  0.00  0.00    +0.000 C 
ATOM      7  O   UNL     1      -1.290  13.575  23.716  0.00  0.00    +0.000 OA
ATOM      8  C   UNL     1      -1.177  14.308  21.331  0.00  0.00    +0.000 C 
ATOM      9  C   UNL     1      -0.766  15.618  21.977  0.00  0.00    +0.000 C 
ATOM     10  C   UNL     1      -2.219  16.076  22.067  0.00  0.00    +0.000 C 
ATOM     11  N   UNL     1      -2.797  15.917  20.922  0.00  0.00    +0.000 NA
ATOM     12  O   UNL     1      -2.172  14.752  20.402  0.00  0.00    +0.000 OA
ATOM     13  C   UNL     1      -0.318  13.319  20.557  0.00  0.00    +0.000 C 
ATOM     14  C   UNL     1      -0.168  13.429  19.037  0.00  0.00    +0.000 C 
ATOM     15  C   UNL     1       0.571  12.184  18.497  0.00  0.00    +0.000 C 
ATOM     16  C   UNL     1       0.043  10.789  18.985  0.00  0.00    +0.000 C 
ATOM     17  C   UNL     1      -1.190  10.353  18.161  0.00  0.00    +0.000 C 
ATOM     18  C   UNL     1       1.124   9.768  18.709  0.00  0.00    +0.000 C 
ATOM     19  C   UNL     1       1.494   8.809  19.564  0.00  0.00    +0.000 C 
ATOM     20  C   UNL     1       0.866   8.708  20.895  0.00  0.00    +0.000 C 
ATOM     21  O   UNL     1       1.057   7.714  21.582  0.00  0.00    +0.000 OA
ENDROOT
BRANCH  10  22
ATOM     22  C   UNL     1      -3.039  15.966  23.325  0.00  0.00    +0.000 A 
ATOM     23  C   UNL     1      -4.342  15.471  23.258  0.00  0.00    +0.000 A 
ATOM     24 CL   UNL     1      -4.761  14.177  22.199  0.00  0.00    +0.000 Cl
ATOM     25  C   UNL     1      -5.344  16.024  24.069  0.00  0.00    +0.000 A 
ATOM     26  C   UNL     1      -5.048  17.058  24.959  0.00  0.00    +0.000 A 
ATOM     27  C   UNL     1      -3.727  17.440  25.151  0.00  0.00    +0.000 A 
ATOM     28  C   UNL     1      -2.716  16.863  24.381  0.00  0.00    +0.000 A 
ATOM     29 CL   UNL     1      -1.117  17.412  24.778  0.00  0.00    +0.000 Cl
ENDBRANCH  10  22
TORSDOF 1
ENDMDL
MODEL 4
REMARK VINA RESULT:      -6.5      9.103     10.533
REMARK  Name = 
REMARK  3 active torsions:
REMARK  status: ('A' for Active; 'I' for Inactive)
REMARK    1  A    between atoms: C_1  and  C_2
REMARK    2  A    between atoms: C_10  and  C_11
REMARK    3  A    between atoms: C_24  and  C_25
REMARK                            x       y       z     vdW  Elec       q    Type
REMARK                         _______ _______ _______ _____ _____    ______ ____
ROOT
ATOM      1  C   UNL     1      10.159  16.101  19.236  0.00  0.00    +0.000 C 
ATOM      2  C   UNL     1      10.613  14.692  18.957  0.00  0.00    +0.000 C 
ATOM      3  C   UNL     1      10.533  13.578  19.737  0.00  0.00    +0.000 C 
ATOM      4  C   UNL     1       9.962  13.504  21.136  0.00  0.00    +0.000 C 
ATOM      5  O   UNL     1       9.636  14.749  21.691  0.00  0.00    +0.000 OA
ATOM      6  C   UNL     1       8.405  14.607  22.225  0.00  0.00    +0.000 C 
ATOM      7  O   UNL     1       7.643  15.555  22.333  0.00  0.00    +0.000 OA
ATOM      8  C   UNL     1       8.090  13.102  22.461  0.00  0.00    +0.000 C 
ATOM      9  C   UNL     1       6.641  13.079  22.912  0.00  0.00    +0.000 C 
ATOM     10  C   UNL     1       7.052  13.246  24.373  0.00  0.00    +0.000 C 
ATOM     11  N   UNL     1       7.976  12.392  24.666  0.00  0.00    +0.000 NA
ATOM     12  O   UNL     1       8.708  12.276  23.455  0.00  0.00    +0.000 OA
ATOM     13  C   UNL     1       8.679  12.644  21.136  0.00  0.00    +0.000 C 
ATOM     14  C   UNL     1       9.180  11.208  20.951  0.00  0.00    +0.000 C 
ATOM     15  C   UNL     1       9.917  11.086  19.599  0.00  0.00    +0.000 C 
ATOM     16  C   UNL     1      10.997  12.182  19.287  0.00  0.00    +0.000 C 
ATOM     17  C   UNL     1      12.333  11.848  19.989  0.00  0.00    +0.000 C 
ATOM     18  C   UNL     1      11.273  12.142  17.800  0.00  0.00    +0.000 C 
ATOM     19  C   UNL     1      11.395  13.224  17.025  0.00  0.00    +0.000 C 
ATOM     20  C   UNL     1      11.227  14.575  17.592  0.00  0.00    +0.000 C 
ATOM     21  O   UNL     1      11.543  15.554  16.930  0.00  0.00    +0.000 OA
ENDROOT
BRANCH  10  22
ATOM     22  C   UNL     1       7.025  14.572  25.087  0.00  0.00    +0.000 A 
ATOM     23  C   UNL     1       7.931  14.819  26.120  0.00  0.00    +0.000 A 
ATOM     24 CL   UNL     1       9.559  14.254  26.044  0.00  0.00    +0.000 Cl
ATOM     25  C   UNL     1       7.526  15.546  27.248  0.00  0.00    +0.000 A 
ATOM     26  C   UNL     1       6.226  16.043  27.344  0.00  0.00    +0.000 A 
ATOM     27  C   UNL     1       5.373  15.947  26.253  0.00  0.00    +0.000 A 
ATOM     28  C   UNL     1       5.782  15.264  25.106  0.00  0.00    +0.000 A 
ATOM     29 CL   UNL     1       4.620  15.278  23.816  0.00  0.00    +0.000 Cl
ENDBRANCH  10  22
TORSDOF 1
ENDMDL
MODEL 5
REMARK VINA RESULT:      -6.5      2.611      4.157
REMARK  Name = 
REMARK  3 active torsions:
REMARK  status: ('A' for Active; 'I' for Inactive)
REMARK    1  A    between atoms: C_1  and  C_2
REMARK    2  A    between atoms: C_10  and  C_11
REMARK    3  A    between atoms: C_24  and  C_25
REMARK                            x       y       z     vdW  Elec       q    Type
REMARK                         _______ _______ _______ _____ _____    ______ ____
ROOT
ATOM      1  C   UNL     1      -3.640  11.463  17.942  0.00  0.00    +0.000 C 
ATOM      2  C   UNL     1      -2.258  11.248  18.499  0.00  0.00    +0.000 C 
ATOM      3  C   UNL     1      -1.654  11.815  19.580  0.00  0.00    +0.000 C 
ATOM      4  C   UNL     1      -2.255  12.855  20.500  0.00  0.00    +0.000 C 
ATOM      5  O   UNL     1      -3.491  13.356  20.069  0.00  0.00    +0.000 OA
ATOM      6  C   UNL     1      -4.297  13.338  21.151  0.00  0.00    +0.000 C 
ATOM      7  O   UNL     1      -5.509  13.228  21.043  0.00  0.00    +0.000 OA
ATOM      8  C   UNL     1      -3.449  13.275  22.454  0.00  0.00    +0.000 C 
ATOM      9  C   UNL     1      -4.466  13.107  23.566  0.00  0.00    +0.000 C 
ATOM     10  C   UNL     1      -4.619  14.619  23.710  0.00  0.00    +0.000 C 
ATOM     11  N   UNL     1      -3.452  15.169  23.794  0.00  0.00    +0.000 NA
ATOM     12  O   UNL     1      -2.645  14.345  22.966  0.00  0.00    +0.000 OA
ATOM     13  C   UNL     1      -2.461  12.256  21.908  0.00  0.00    +0.000 C 
ATOM     14  C   UNL     1      -1.046  12.143  22.486  0.00  0.00    +0.000 C 
ATOM     15  C   UNL     1      -0.202  11.192  21.609  0.00  0.00    +0.000 C 
ATOM     16  C   UNL     1      -0.238  11.448  20.061  0.00  0.00    +0.000 C 
ATOM     17  C   UNL     1       0.732  12.587  19.672  0.00  0.00    +0.000 C 
ATOM     18  C   UNL     1       0.273  10.199  19.378  0.00  0.00    +0.000 C 
ATOM     19  C   UNL     1      -0.281   9.651  18.292  0.00  0.00    +0.000 C 
ATOM     20  C   UNL     1      -1.494  10.236  17.693  0.00  0.00    +0.000 C 
ATOM     21  O   UNL     1      -1.871   9.858  16.592  0.00  0.00    +0.000 OA
ENDROOT
BRANCH  10  22
ATOM     22  C   UNL     1      -5.752  15.393  23.089  0.00  0.00    +0.000 A 
ATOM     23  C   UNL     1      -5.489  16.601  22.441  0.00  0.00    +0.000 A 
ATOM     24 CL   UNL     1      -4.068  16.823  21.490  0.00  0.00    +0.000 Cl
ATOM     25  C   UNL     1      -6.394  17.667  22.552  0.00  0.00    +0.000 A 
ATOM     26  C   UNL     1      -7.569  17.527  23.293  0.00  0.00    +0.000 A 
ATOM     27  C   UNL     1      -7.917  16.282  23.798  0.00  0.00    +0.000 A 
ATOM     28  C   UNL     1      -7.043  15.202  23.654  0.00  0.00    +0.000 A 
ATOM     29 CL   UNL     1      -7.647  13.706  24.296  0.00  0.00    +0.000 Cl
ENDBRANCH  10  22
TORSDOF 1
ENDMDL
MODEL 6
REMARK VINA RESULT:      -6.2      2.984      7.437
REMARK  Name = 
REMARK  3 active torsions:
REMARK  status: ('A' for Active; 'I' for Inactive)
REMARK    1  A    between atoms: C_1  and  C_2
REMARK    2  A    between atoms: C_10  and  C_11
REMARK    3  A    between atoms: C_24  and  C_25
REMARK                            x       y       z     vdW  Elec       q    Type
REMARK                         _______ _______ _______ _____ _____    ______ ____
ROOT
ATOM      1  C   UNL     1      -5.442  12.407  19.453  0.00  0.00    +0.000 C 
ATOM      2  C   UNL     1      -5.128  13.715  20.129  0.00  0.00    +0.000 C 
ATOM      3  C   UNL     1      -3.998  14.113  20.779  0.00  0.00    +0.000 C 
ATOM      4  C   UNL     1      -2.752  13.284  20.998  0.00  0.00    +0.000 C 
ATOM      5  O   UNL     1      -2.878  11.943  20.609  0.00  0.00    +0.000 OA
ATOM      6  C   UNL     1      -1.769  11.658  19.894  0.00  0.00    +0.000 C 
ATOM      7  O   UNL     1      -1.773  10.801  19.025  0.00  0.00    +0.000 OA
ATOM      8  C   UNL     1      -0.644  12.685  20.212  0.00  0.00    +0.000 C 
ATOM      9  C   UNL     1       0.472  12.344  19.242  0.00  0.00    +0.000 C 
ATOM     10  C   UNL     1       1.074  11.343  20.224  0.00  0.00    +0.000 C 
ATOM     11  N   UNL     1       1.191  11.890  21.389  0.00  0.00    +0.000 NA
ATOM     12  O   UNL     1       0.073  12.764  21.450  0.00  0.00    +0.000 OA
ATOM     13  C   UNL     1      -1.572  13.890  20.208  0.00  0.00    +0.000 C 
ATOM     14  C   UNL     1      -1.210  15.165  20.977  0.00  0.00    +0.000 C 
ATOM     15  C   UNL     1      -2.416  16.130  20.978  0.00  0.00    +0.000 C 
ATOM     16  C   UNL     1      -3.805  15.517  21.379  0.00  0.00    +0.000 C 
ATOM     17  C   UNL     1      -3.939  15.427  22.916  0.00  0.00    +0.000 C 
ATOM     18  C   UNL     1      -4.879  16.473  20.911  0.00  0.00    +0.000 C 
ATOM     19  C   UNL     1      -6.012  16.099  20.308  0.00  0.00    +0.000 C 
ATOM     20  C   UNL     1      -6.275  14.677  20.021  0.00  0.00    +0.000 C 
ATOM     21  O   UNL     1      -7.392  14.327  19.663  0.00  0.00    +0.000 OA
ENDROOT
BRANCH  10  22
ATOM     22  C   UNL     1       0.838   9.858  20.131  0.00  0.00    +0.000 A 
ATOM     23  C   UNL     1       0.497   9.141  21.279  0.00  0.00    +0.000 A 
ATOM     24 CL   UNL     1      -0.550   9.803  22.478  0.00  0.00    +0.000 Cl
ATOM     25  C   UNL     1       1.005   7.848  21.473  0.00  0.00    +0.000 A 
ATOM     26  C   UNL     1       1.838   7.261  20.520  0.00  0.00    +0.000 A 
ATOM     27  C   UNL     1       2.044   7.899  19.305  0.00  0.00    +0.000 A 
ATOM     28  C   UNL     1       1.505   9.167  19.082  0.00  0.00    +0.000 A 
ATOM     29 CL   UNL     1       1.813   9.804  17.497  0.00  0.00    +0.000 Cl
ENDBRANCH  10  22
TORSDOF 1
ENDMDL
MODEL 7
REMARK VINA RESULT:      -6.2      8.004     11.092
REMARK  Name = 
REMARK  3 active torsions:
REMARK  status: ('A' for Active; 'I' for Inactive)
REMARK    1  A    between atoms: C_1  and  C_2
REMARK    2  A    between atoms: C_10  and  C_11
REMARK    3  A    between atoms: C_24  and  C_25
REMARK                            x       y       z     vdW  Elec       q    Type
REMARK                         _______ _______ _______ _____ _____    ______ ____
ROOT
ATOM      1  C   UNL     1       3.445  14.610  18.212  0.00  0.00    +0.000 C 
ATOM      2  C   UNL     1       3.321  15.762  19.174  0.00  0.00    +0.000 C 
ATOM      3  C   UNL     1       4.241  16.286  20.031  0.00  0.00    +0.000 C 
ATOM      4  C   UNL     1       5.657  15.794  20.237  0.00  0.00    +0.000 C 
ATOM      5  O   UNL     1       5.951  14.595  19.572  0.00  0.00    +0.000 OA
ATOM      6  C   UNL     1       7.139  14.790  18.963  0.00  0.00    +0.000 C 
ATOM      7  O   UNL     1       7.441  14.187  17.945  0.00  0.00    +0.000 OA
ATOM      8  C   UNL     1       7.896  15.978  19.625  0.00  0.00    +0.000 C 
ATOM      9  C   UNL     1       9.124  16.182  18.758  0.00  0.00    +0.000 C 
ATOM     10  C   UNL     1       9.924  15.180  19.586  0.00  0.00    +0.000 C 
ATOM     11  N   UNL     1       9.799  15.455  20.843  0.00  0.00    +0.000 NA
ATOM     12  O   UNL     1       8.475  15.959  20.935  0.00  0.00    +0.000 OA
ATOM     13  C   UNL     1       6.661  16.859  19.745  0.00  0.00    +0.000 C 
ATOM     14  C   UNL     1       6.586  17.970  20.796  0.00  0.00    +0.000 C 
ATOM     15  C   UNL     1       5.155  18.551  20.837  0.00  0.00    +0.000 C 
ATOM     16  C   UNL     1       3.980  17.514  20.923  0.00  0.00    +0.000 C 
ATOM     17  C   UNL     1       3.775  17.039  22.380  0.00  0.00    +0.000 C 
ATOM     18  C   UNL     1       2.708  18.228  20.523  0.00  0.00    +0.000 C 
ATOM     19  C   UNL     1       1.774  17.715  19.716  0.00  0.00    +0.000 C 
ATOM     20  C   UNL     1       1.954  16.380  19.116  0.00  0.00    +0.000 C 
ATOM     21  O   UNL     1       1.013  15.836  18.554  0.00  0.00    +0.000 OA
ENDROOT
BRANCH  10  22
ATOM     22  C   UNL     1      10.134  13.749  19.166  0.00  0.00    +0.000 A 
ATOM     23  C   UNL     1       9.963  12.723  20.097  0.00  0.00    +0.000 A 
ATOM     24 CL   UNL     1       8.712  12.783  21.283  0.00  0.00    +0.000 Cl
ATOM     25  C   UNL     1      10.815  11.609  20.077  0.00  0.00    +0.000 A 
ATOM     26  C   UNL     1      11.826  11.506  19.121  0.00  0.00    +0.000 A 
ATOM     27  C   UNL     1      11.896  12.436  18.093  0.00  0.00    +0.000 A 
ATOM     28  C   UNL     1      11.022  13.525  18.077  0.00  0.00    +0.000 A 
ATOM     29 CL   UNL     1      11.206  14.566  16.700  0.00  0.00    +0.000 Cl
ENDBRANCH  10  22
TORSDOF 1
ENDMDL
MODEL 8
REMARK VINA RESULT:      -6.1      2.649      4.101
REMARK  Name = 
REMARK  3 active torsions:
REMARK  status: ('A' for Active; 'I' for Inactive)
REMARK    1  A    between atoms: C_1  and  C_2
REMARK    2  A    between atoms: C_10  and  C_11
REMARK    3  A    between atoms: C_24  and  C_25
REMARK                            x       y       z     vdW  Elec       q    Type
REMARK                         _______ _______ _______ _____ _____    ______ ____
ROOT
ATOM      1  C   UNL     1      -3.636  11.544  18.113  0.00  0.00    +0.000 C 
ATOM      2  C   UNL     1      -2.256  11.319  18.672  0.00  0.00    +0.000 C 
ATOM      3  C   UNL     1      -1.667  11.845  19.782  0.00  0.00    +0.000 C 
ATOM      4  C   UNL     1      -2.287  12.839  20.739  0.00  0.00    +0.000 C 
ATOM      5  O   UNL     1      -3.524  13.346  20.319  0.00  0.00    +0.000 OA
ATOM      6  C   UNL     1      -4.339  13.274  21.392  0.00  0.00    +0.000 C 
ATOM      7  O   UNL     1      -5.549  13.156  21.269  0.00  0.00    +0.000 OA
ATOM      8  C   UNL     1      -3.501  13.164  22.699  0.00  0.00    +0.000 C 
ATOM      9  C   UNL     1      -4.526  12.938  23.794  0.00  0.00    +0.000 C 
ATOM     10  C   UNL     1      -4.696  14.441  24.001  0.00  0.00    +0.000 C 
ATOM     11  N   UNL     1      -3.535  14.998  24.118  0.00  0.00    +0.000 NA
ATOM     12  O   UNL     1      -2.713  14.218  23.263  0.00  0.00    +0.000 OA
ATOM     13  C   UNL     1      -2.498  12.179  22.119  0.00  0.00    +0.000 C 
ATOM     14  C   UNL     1      -1.087  12.055  22.704  0.00  0.00    +0.000 C 
ATOM     15  C   UNL     1      -0.226  11.151  21.795  0.00  0.00    +0.000 C 
ATOM     16  C   UNL     1      -0.251  11.473  20.259  0.00  0.00    +0.000 C 
ATOM     17  C   UNL     1       0.710  12.637  19.928  0.00  0.00    +0.000 C 
ATOM     18  C   UNL     1       0.279  10.259  19.528  0.00  0.00    +0.000 C 
ATOM     19  C   UNL     1      -0.261   9.752  18.415  0.00  0.00    +0.000 C 
ATOM     20  C   UNL     1      -1.475  10.350  17.831  0.00  0.00    +0.000 C 
ATOM     21  O   UNL     1      -1.838  10.016  16.711  0.00  0.00    +0.000 OA
ENDROOT
BRANCH  10  22
ATOM     22  C   UNL     1      -5.831  15.229  23.403  0.00  0.00    +0.000 A 
ATOM     23  C   UNL     1      -7.103  14.658  23.326  0.00  0.00    +0.000 A 
ATOM     24 CL   UNL     1      -7.717  13.653  24.585  0.00  0.00    +0.000 Cl
ATOM     25  C   UNL     1      -7.913  14.902  22.208  0.00  0.00    +0.000 A 
ATOM     26  C   UNL     1      -7.468  15.727  21.174  0.00  0.00    +0.000 A 
ATOM     27  C   UNL     1      -6.280  16.430  21.321  0.00  0.00    +0.000 A 
ATOM     28  C   UNL     1      -5.487  16.229  22.452  0.00  0.00    +0.000 A 
ATOM     29 CL   UNL     1      -4.061  17.218  22.507  0.00  0.00    +0.000 Cl
ENDBRANCH  10  22
TORSDOF 1
ENDMDL
MODEL 9
REMARK VINA RESULT:      -6.1      3.965      5.510
REMARK  Name = 
REMARK  3 active torsions:
REMARK  status: ('A' for Active; 'I' for Inactive)
REMARK    1  A    between atoms: C_1  and  C_2
REMARK    2  A    between atoms: C_10  and  C_11
REMARK    3  A    between atoms: C_24  and  C_25
REMARK                            x       y       z     vdW  Elec       q    Type
REMARK                         _______ _______ _______ _____ _____    ______ ____
ROOT
ATOM      1  C   UNL     1      -1.400  14.131  21.355  0.00  0.00    +0.000 C 
ATOM      2  C   UNL     1      -0.657  12.970  20.749  0.00  0.00    +0.000 C 
ATOM      3  C   UNL     1      -1.135  11.864  20.114  0.00  0.00    +0.000 C 
ATOM      4  C   UNL     1      -2.590  11.524  19.880  0.00  0.00    +0.000 C 
ATOM      5  O   UNL     1      -3.491  12.381  20.526  0.00  0.00    +0.000 OA
ATOM      6  C   UNL     1      -4.423  12.704  19.605  0.00  0.00    +0.000 C 
ATOM      7  O   UNL     1      -5.032  13.761  19.656  0.00  0.00    +0.000 OA
ATOM      8  C   UNL     1      -4.421  11.663  18.448  0.00  0.00    +0.000 C 
ATOM      9  C   UNL     1      -5.391  12.223  17.426  0.00  0.00    +0.000 C 
ATOM     10  C   UNL     1      -6.567  11.516  18.093  0.00  0.00    +0.000 C 
ATOM     11  N   UNL     1      -6.272  10.273  18.292  0.00  0.00    +0.000 NA
ATOM     12  O   UNL     1      -4.877  10.310  18.558  0.00  0.00    +0.000 OA
ATOM     13  C   UNL     1      -2.905  11.570  18.369  0.00  0.00    +0.000 C 
ATOM     14  C   UNL     1      -2.221  10.324  17.797  0.00  0.00    +0.000 C 
ATOM     15  C   UNL     1      -0.698  10.411  18.038  0.00  0.00    +0.000 C 
ATOM     16  C   UNL     1      -0.238  10.778  19.493  0.00  0.00    +0.000 C 
ATOM     17  C   UNL     1      -0.260   9.530  20.404  0.00  0.00    +0.000 C 
ATOM     18  C   UNL     1       1.205  11.227  19.417  0.00  0.00    +0.000 C 
ATOM     19  C   UNL     1       1.702  12.285  20.065  0.00  0.00    +0.000 C 
ATOM     20  C   UNL     1       0.829  13.132  20.898  0.00  0.00    +0.000 C 
ATOM     21  O   UNL     1       1.324  13.964  21.646  0.00  0.00    +0.000 OA
ENDROOT
BRANCH  10  22
ATOM     22  C   UNL     1      -7.510  12.207  19.042  0.00  0.00    +0.000 A 
ATOM     23  C   UNL     1      -7.763  13.572  18.892  0.00  0.00    +0.000 A 
ATOM     24 CL   UNL     1      -7.903  14.296  17.334  0.00  0.00    +0.000 Cl
ATOM     25  C   UNL     1      -7.916  14.385  20.025  0.00  0.00    +0.000 A 
ATOM     26  C   UNL     1      -7.835  13.839  21.307  0.00  0.00    +0.000 A 
ATOM     27  C   UNL     1      -7.751  12.462  21.462  0.00  0.00    +0.000 A 
ATOM     28  C   UNL     1      -7.644  11.639  20.340  0.00  0.00    +0.000 A 
ATOM     29 CL   UNL     1      -7.599   9.942  20.702  0.00  0.00    +0.000 Cl
ENDBRANCH  10  22
TORSDOF 1
ENDMDL
