MODEL 1
REMARK VINA RESULT:      -8.4      0.000      0.000
REMARK  Name = 
REMARK  5 active torsions:
REMARK  status: ('A' for Active; 'I' for Inactive)
REMARK    1  A    between atoms: C_1  and  C_2
REMARK    2  A    between atoms: C_2  and  N_3
REMARK    3  A    between atoms: C_9  and  C_10
REMARK    4  A    between atoms: C_15  and  C_16
REMARK    5  A    between atoms: C_23  and  C_24
REMARK                            x       y       z     vdW  Elec       q    Type
REMARK                         _______ _______ _______ _____ _____    ______ ____
ROOT
ATOM      1  C   UNL     1       2.692   5.445  19.652  0.00  0.00    +0.000 C 
ATOM      2  O   UNL     1       2.661   4.887  20.751  0.00  0.00    +0.000 OA
ATOM      3  N   UNL     1       2.152   6.733  19.461  0.00  0.00    +0.000 N 
ATOM      4  C   UNL     1       2.114   7.417  18.167  0.00  0.00    +0.000 C 
ATOM      5  C   UNL     1       2.395   8.905  18.276  0.00  0.00    +0.000 C 
ATOM      6  C   UNL     1       1.604   9.615  19.373  0.00  0.00    +0.000 C 
ATOM      7  C   UNL     1       1.692   8.832  20.693  0.00  0.00    +0.000 C 
ATOM      8  C   UNL     1       1.408   7.339  20.563  0.00  0.00    +0.000 C 
ENDROOT
BRANCH   1  15
ATOM      9  N   UNL     1       7.101   5.797  18.203  0.00  0.00    +0.000 NA
ATOM     10  C   UNL     1       7.400   4.620  17.341  0.00  0.00    +0.000 C 
ATOM     11  C   UNL     1       6.281   4.239  16.335  0.00  0.00    +0.000 C 
ATOM     12  C   UNL     1       4.995   4.308  17.059  0.00  0.00    +0.000 A 
ATOM     13  N   UNL     1       3.780   3.886  16.640  0.00  0.00    +0.000 N 
ATOM     14  N   UNL     1       2.817   4.090  17.558  0.00  0.00    +0.000 NA
ATOM     15  C   UNL     1       3.421   4.818  18.525  0.00  0.00    +0.000 A 
ATOM     16  C   UNL     1       4.817   4.905  18.288  0.00  0.00    +0.000 A 
ATOM     17  C   UNL     1       5.920   5.520  19.078  0.00  0.00    +0.000 C 
ATOM     18  H   UNL     1       3.520   3.469  15.753  0.00  0.00    +0.000 HD
BRANCH   9  20
ATOM     19  C   UNL     1       7.939   8.124  17.785  0.00  0.00    +0.000 C 
ATOM     20  C   UNL     1       6.909   7.049  17.451  0.00  0.00    +0.000 C 
ENDBRANCH   9  20
ENDBRANCH   1  15
BRANCH   6  21
ATOM     21  C   UNL     1       0.193  10.028  18.943  0.00  0.00    +0.000 A 
ATOM     22  C   UNL     1      -0.354   9.485  17.754  0.00  0.00    +0.000 A 
ATOM     23  C   UNL     1      -1.618   9.836  17.280  0.00  0.00    +0.000 A 
ATOM     24  C   UNL     1      -2.375  10.738  17.994  0.00  0.00    +0.000 A 
ATOM     25  F   UNL     1      -3.590  11.080  17.547  0.00  0.00    +0.000 F 
ATOM     26  C   UNL     1      -1.875  11.291  19.165  0.00  0.00    +0.000 A 
ATOM     27  F   UNL     1      -2.639  12.168  19.832  0.00  0.00    +0.000 F 
ATOM     28  C   UNL     1      -0.599  10.963  19.662  0.00  0.00    +0.000 A 
BRANCH  28  29
ATOM     29  C   UNL     1      -0.252  11.691  20.940  0.00  0.00    +0.000 C 
ATOM     30  F   UNL     1      -0.854  12.894  21.137  0.00  0.00    +0.000 F 
ATOM     31  F   UNL     1      -0.572  10.963  22.048  0.00  0.00    +0.000 F 
ATOM     32  F   UNL     1       1.083  11.953  21.034  0.00  0.00    +0.000 F 
ENDBRANCH  28  29
ENDBRANCH   6  21
TORSDOF 4
ENDMDL
MODEL 2
REMARK VINA RESULT:      -7.6      4.862      8.852
REMARK  Name = 
REMARK  5 active torsions:
REMARK  status: ('A' for Active; 'I' for Inactive)
REMARK    1  A    between atoms: C_1  and  C_2
REMARK    2  A    between atoms: C_2  and  N_3
REMARK    3  A    between atoms: C_9  and  C_10
REMARK    4  A    between atoms: C_15  and  C_16
REMARK    5  A    between atoms: C_23  and  C_24
REMARK                            x       y       z     vdW  Elec       q    Type
REMARK                         _______ _______ _______ _____ _____    ______ ____
ROOT
ATOM      1  C   UNL     1       1.106   8.453  20.158  0.00  0.00    +0.000 C 
ATOM      2  O   UNL     1       0.537   8.172  21.215  0.00  0.00    +0.000 OA
ATOM      3  N   UNL     1       1.981   7.548  19.524  0.00  0.00    +0.000 N 
ATOM      4  C   UNL     1       2.724   7.854  18.300  0.00  0.00    +0.000 C 
ATOM      5  C   UNL     1       2.806   6.674  17.348  0.00  0.00    +0.000 C 
ATOM      6  C   UNL     1       3.218   5.360  18.009  0.00  0.00    +0.000 C 
ATOM      7  C   UNL     1       2.396   5.118  19.285  0.00  0.00    +0.000 C 
ATOM      8  C   UNL     1       2.325   6.314  20.228  0.00  0.00    +0.000 C 
ENDROOT
BRANCH   1  15
ATOM      9  N   UNL     1       0.427  12.791  21.703  0.00  0.00    +0.000 NA
ATOM     10  C   UNL     1       0.597  13.723  20.554  0.00  0.00    +0.000 C 
ATOM     11  C   UNL     1      -0.063  13.260  19.227  0.00  0.00    +0.000 C 
ATOM     12  C   UNL     1       0.247  11.825  19.058  0.00  0.00    +0.000 A 
ATOM     13  N   UNL     1       0.038  11.051  17.969  0.00  0.00    +0.000 N 
ATOM     14  N   UNL     1       0.450   9.783  18.148  0.00  0.00    +0.000 NA
ATOM     15  C   UNL     1       0.781   9.718  19.459  0.00  0.00    +0.000 A 
ATOM     16  C   UNL     1       0.747  11.008  20.048  0.00  0.00    +0.000 A 
ATOM     17  C   UNL     1       1.091  11.481  21.418  0.00  0.00    +0.000 C 
ATOM     18  H   UNL     1      -0.388  11.299  17.081  0.00  0.00    +0.000 HD
BRANCH   9  20
ATOM     19  C   UNL     1      -1.183  11.380  23.010  0.00  0.00    +0.000 C 
ATOM     20  C   UNL     1      -0.977  12.587  22.100  0.00  0.00    +0.000 C 
ENDBRANCH   9  20
ENDBRANCH   1  15
BRANCH   6  21
ATOM     21  C   UNL     1       4.734   5.199  18.158  0.00  0.00    +0.000 A 
ATOM     22  C   UNL     1       5.348   5.539  19.389  0.00  0.00    +0.000 A 
ATOM     23  C   UNL     1       6.725   5.449  19.593  0.00  0.00    +0.000 A 
ATOM     24  C   UNL     1       7.526   5.005  18.565  0.00  0.00    +0.000 A 
ATOM     25  F   UNL     1       8.849   4.914  18.752  0.00  0.00    +0.000 F 
ATOM     26  C   UNL     1       6.963   4.660  17.344  0.00  0.00    +0.000 A 
ATOM     27  F   UNL     1       7.774   4.234  16.366  0.00  0.00    +0.000 F 
ATOM     28  C   UNL     1       5.578   4.750  17.107  0.00  0.00    +0.000 A 
BRANCH  28  29
ATOM     29  C   UNL     1       5.185   4.339  15.707  0.00  0.00    +0.000 C 
ATOM     30  F   UNL     1       5.978   3.417  15.098  0.00  0.00    +0.000 F 
ATOM     31  F   UNL     1       3.935   3.796  15.665  0.00  0.00    +0.000 F 
ATOM     32  F   UNL     1       5.164   5.399  14.849  0.00  0.00    +0.000 F 
ENDBRANCH  28  29
ENDBRANCH   6  21
TORSDOF 4
ENDMDL
MODEL 3
REMARK VINA RESULT:      -7.5      4.670      8.543
REMARK  Name = 
REMARK  5 active torsions:
REMARK  status: ('A' for Active; 'I' for Inactive)
REMARK    1  A    between atoms: C_1  and  C_2
REMARK    2  A    between atoms: C_2  and  N_3
REMARK    3  A    between atoms: C_9  and  C_10
REMARK    4  A    between atoms: C_15  and  C_16
REMARK    5  A    between atoms: C_23  and  C_24
REMARK                            x       y       z     vdW  Elec       q    Type
REMARK                         _______ _______ _______ _____ _____    ______ ____
ROOT
ATOM      1  C   UNL     1       1.232   9.171  21.112  0.00  0.00    +0.000 C 
ATOM      2  O   UNL     1       1.097   8.823  22.287  0.00  0.00    +0.000 OA
ATOM      3  N   UNL     1       1.736   8.292  20.133  0.00  0.00    +0.000 N 
ATOM      4  C   UNL     1       1.967   8.673  18.737  0.00  0.00    +0.000 C 
ATOM      5  C   UNL     1       1.602   7.573  17.757  0.00  0.00    +0.000 C 
ATOM      6  C   UNL     1       2.154   6.196  18.121  0.00  0.00    +0.000 C 
ATOM      7  C   UNL     1       1.874   5.878  19.598  0.00  0.00    +0.000 C 
ATOM      8  C   UNL     1       2.246   6.994  20.569  0.00  0.00    +0.000 C 
ENDROOT
BRANCH   1  15
ATOM      9  N   UNL     1      -2.320  10.448  18.390  0.00  0.00    +0.000 NA
ATOM     10  C   UNL     1      -2.626  11.879  18.668  0.00  0.00    +0.000 C 
ATOM     11  C   UNL     1      -1.387  12.802  18.810  0.00  0.00    +0.000 C 
ATOM     12  C   UNL     1      -0.398  12.088  19.645  0.00  0.00    +0.000 A 
ATOM     13  N   UNL     1       0.745  12.574  20.179  0.00  0.00    +0.000 N 
ATOM     14  N   UNL     1       1.410  11.654  20.901  0.00  0.00    +0.000 NA
ATOM     15  C   UNL     1       0.742  10.500  20.675  0.00  0.00    +0.000 A 
ATOM     16  C   UNL     1      -0.455  10.747  19.955  0.00  0.00    +0.000 A 
ATOM     17  C   UNL     1      -1.559   9.844  19.526  0.00  0.00    +0.000 C 
ATOM     18  H   UNL     1       1.148  13.502  20.091  0.00  0.00    +0.000 HD
BRANCH   9  20
ATOM     19  C   UNL     1      -2.550  10.007  15.931  0.00  0.00    +0.000 C 
ATOM     20  C   UNL     1      -1.614  10.229  17.116  0.00  0.00    +0.000 C 
ENDBRANCH   9  20
ENDBRANCH   1  15
BRANCH   6  21
ATOM     21  C   UNL     1       3.597   5.973  17.659  0.00  0.00    +0.000 A 
ATOM     22  C   UNL     1       4.441   7.093  17.460  0.00  0.00    +0.000 A 
ATOM     23  C   UNL     1       5.757   6.973  17.011  0.00  0.00    +0.000 A 
ATOM     24  C   UNL     1       6.266   5.719  16.757  0.00  0.00    +0.000 A 
ATOM     25  F   UNL     1       7.528   5.594  16.327  0.00  0.00    +0.000 F 
ATOM     26  C   UNL     1       5.472   4.596  16.942  0.00  0.00    +0.000 A 
ATOM     27  F   UNL     1       6.000   3.392  16.683  0.00  0.00    +0.000 F 
ATOM     28  C   UNL     1       4.138   4.688  17.386  0.00  0.00    +0.000 A 
BRANCH  28  29
ATOM     29  C   UNL     1       3.455   3.344  17.504  0.00  0.00    +0.000 C 
ATOM     30  F   UNL     1       4.188   2.257  17.144  0.00  0.00    +0.000 F 
ATOM     31  F   UNL     1       3.058   3.083  18.781  0.00  0.00    +0.000 F 
ATOM     32  F   UNL     1       2.330   3.273  16.737  0.00  0.00    +0.000 F 
ENDBRANCH  28  29
ENDBRANCH   6  21
TORSDOF 4
ENDMDL
MODEL 4
REMARK VINA RESULT:      -7.4      2.099      3.133
REMARK  Name = 
REMARK  5 active torsions:
REMARK  status: ('A' for Active; 'I' for Inactive)
REMARK    1  A    between atoms: C_1  and  C_2
REMARK    2  A    between atoms: C_2  and  N_3
REMARK    3  A    between atoms: C_9  and  C_10
REMARK    4  A    between atoms: C_15  and  C_16
REMARK    5  A    between atoms: C_23  and  C_24
REMARK                            x       y       z     vdW  Elec       q    Type
REMARK                         _______ _______ _______ _____ _____    ______ ____
ROOT
ATOM      1  C   UNL     1       2.080   7.349  19.905  0.00  0.00    +0.000 C 
ATOM      2  O   UNL     1       2.254   7.061  21.091  0.00  0.00    +0.000 OA
ATOM      3  N   UNL     1       1.258   8.426  19.517  0.00  0.00    +0.000 N 
ATOM      4  C   UNL     1       0.974   8.774  18.123  0.00  0.00    +0.000 C 
ATOM      5  C   UNL     1       0.930  10.273  17.886  0.00  0.00    +0.000 C 
ATOM      6  C   UNL     1       0.087  11.045  18.899  0.00  0.00    +0.000 C 
ATOM      7  C   UNL     1       0.443  10.618  20.332  0.00  0.00    +0.000 C 
ATOM      8  C   UNL     1       0.484   9.110  20.551  0.00  0.00    +0.000 C 
ENDROOT
BRANCH   1  15
ATOM      9  N   UNL     1       2.202   2.875  18.626  0.00  0.00    +0.000 NA
ATOM     10  C   UNL     1       2.762   2.803  17.248  0.00  0.00    +0.000 C 
ATOM     11  C   UNL     1       3.987   3.718  16.986  0.00  0.00    +0.000 C 
ATOM     12  C   UNL     1       3.692   5.035  17.588  0.00  0.00    +0.000 A 
ATOM     13  N   UNL     1       4.385   6.188  17.450  0.00  0.00    +0.000 N 
ATOM     14  N   UNL     1       3.831   7.209  18.128  0.00  0.00    +0.000 NA
ATOM     15  C   UNL     1       2.842   6.636  18.853  0.00  0.00    +0.000 A 
ATOM     16  C   UNL     1       2.667   5.280  18.476  0.00  0.00    +0.000 A 
ATOM     17  C   UNL     1       1.683   4.249  18.910  0.00  0.00    +0.000 C 
ATOM     18  H   UNL     1       5.242   6.360  16.933  0.00  0.00    +0.000 HD
BRANCH   9  20
ATOM     19  C   UNL     1       2.688   2.800  21.087  0.00  0.00    +0.000 C 
ATOM     20  C   UNL     1       3.146   2.449  19.673  0.00  0.00    +0.000 C 
ENDBRANCH   9  20
ENDBRANCH   1  15
BRANCH   6  21
ATOM     21  C   UNL     1      -1.408  11.063  18.567  0.00  0.00    +0.000 A 
ATOM     22  C   UNL     1      -1.907  10.180  17.577  0.00  0.00    +0.000 A 
ATOM     23  C   UNL     1      -3.249  10.158  17.197  0.00  0.00    +0.000 A 
ATOM     24  C   UNL     1      -4.133  11.019  17.809  0.00  0.00    +0.000 A 
ATOM     25  F   UNL     1      -5.423  11.004  17.452  0.00  0.00    +0.000 F 
ATOM     26  C   UNL     1      -3.683  11.898  18.785  0.00  0.00    +0.000 A 
ATOM     27  F   UNL     1      -4.572  12.722  19.358  0.00  0.00    +0.000 F 
ATOM     28  C   UNL     1      -2.333  11.948  19.182  0.00  0.00    +0.000 A 
BRANCH  28  29
ATOM     29  C   UNL     1      -2.063  12.986  20.247  0.00  0.00    +0.000 C 
ATOM     30  F   UNL     1      -2.969  13.994  20.357  0.00  0.00    +0.000 F 
ATOM     31  F   UNL     1      -2.009  12.438  21.494  0.00  0.00    +0.000 F 
ATOM     32  F   UNL     1      -0.867  13.614  20.059  0.00  0.00    +0.000 F 
ENDBRANCH  28  29
ENDBRANCH   6  21
TORSDOF 4
ENDMDL
MODEL 5
REMARK VINA RESULT:      -7.4      4.753      8.835
REMARK  Name = 
REMARK  5 active torsions:
REMARK  status: ('A' for Active; 'I' for Inactive)
REMARK    1  A    between atoms: C_1  and  C_2
REMARK    2  A    between atoms: C_2  and  N_3
REMARK    3  A    between atoms: C_9  and  C_10
REMARK    4  A    between atoms: C_15  and  C_16
REMARK    5  A    between atoms: C_23  and  C_24
REMARK                            x       y       z     vdW  Elec       q    Type
REMARK                         _______ _______ _______ _____ _____    ______ ____
ROOT
ATOM      1  C   UNL     1       1.101   8.553  20.301  0.00  0.00    +0.000 C 
ATOM      2  O   UNL     1       0.466   8.160  21.281  0.00  0.00    +0.000 OA
ATOM      3  N   UNL     1       1.966   7.697  19.589  0.00  0.00    +0.000 N 
ATOM      4  C   UNL     1       2.786   8.128  18.454  0.00  0.00    +0.000 C 
ATOM      5  C   UNL     1       2.865   7.086  17.353  0.00  0.00    +0.000 C 
ATOM      6  C   UNL     1       3.183   5.675  17.845  0.00  0.00    +0.000 C 
ATOM      7  C   UNL     1       2.285   5.304  19.035  0.00  0.00    +0.000 C 
ATOM      8  C   UNL     1       2.217   6.363  20.131  0.00  0.00    +0.000 C 
ENDROOT
BRANCH   1  15
ATOM      9  N   UNL     1      -2.439  10.418  17.924  0.00  0.00    +0.000 NA
ATOM     10  C   UNL     1      -2.357  11.899  18.059  0.00  0.00    +0.000 C 
ATOM     11  C   UNL     1      -0.932  12.495  17.922  0.00  0.00    +0.000 C 
ATOM     12  C   UNL     1      -0.017  11.638  18.704  0.00  0.00    +0.000 A 
ATOM     13  N   UNL     1       1.277  11.872  19.021  0.00  0.00    +0.000 N 
ATOM     14  N   UNL     1       1.815  10.884  19.760  0.00  0.00    +0.000 NA
ATOM     15  C   UNL     1       0.871   9.916  19.768  0.00  0.00    +0.000 A 
ATOM     16  C   UNL     1      -0.333  10.386  19.184  0.00  0.00    +0.000 A 
ATOM     17  C   UNL     1      -1.670   9.748  19.019  0.00  0.00    +0.000 C 
ATOM     18  H   UNL     1       1.864  12.659  18.766  0.00  0.00    +0.000 HD
BRANCH   9  20
ATOM     19  C   UNL     1      -2.914  10.366  15.461  0.00  0.00    +0.000 C 
ATOM     20  C   UNL     1      -2.010   9.918  16.607  0.00  0.00    +0.000 C 
ENDBRANCH   9  20
ENDBRANCH   1  15
BRANCH   6  21
ATOM     21  C   UNL     1       4.680   5.416  18.040  0.00  0.00    +0.000 A 
ATOM     22  C   UNL     1       5.265   5.664  19.306  0.00  0.00    +0.000 A 
ATOM     23  C   UNL     1       6.626   5.483  19.554  0.00  0.00    +0.000 A 
ATOM     24  C   UNL     1       7.438   5.038  18.535  0.00  0.00    +0.000 A 
ATOM     25  F   UNL     1       8.746   4.859  18.764  0.00  0.00    +0.000 F 
ATOM     26  C   UNL     1       6.903   4.781  17.281  0.00  0.00    +0.000 A 
ATOM     27  F   UNL     1       7.725   4.351  16.313  0.00  0.00    +0.000 F 
ATOM     28  C   UNL     1       5.535   4.964  17.000  0.00  0.00    +0.000 A 
BRANCH  28  29
ATOM     29  C   UNL     1       5.172   4.640  15.569  0.00  0.00    +0.000 C 
ATOM     30  F   UNL     1       6.010   3.800  14.904  0.00  0.00    +0.000 F 
ATOM     31  F   UNL     1       3.948   4.048  15.473  0.00  0.00    +0.000 F 
ATOM     32  F   UNL     1       5.112   5.757  14.790  0.00  0.00    +0.000 F 
ENDBRANCH  28  29
ENDBRANCH   6  21
TORSDOF 4
ENDMDL
MODEL 6
REMARK VINA RESULT:      -7.3      2.176      3.944
REMARK  Name = 
REMARK  5 active torsions:
REMARK  status: ('A' for Active; 'I' for Inactive)
REMARK    1  A    between atoms: C_1  and  C_2
REMARK    2  A    between atoms: C_2  and  N_3
REMARK    3  A    between atoms: C_9  and  C_10
REMARK    4  A    between atoms: C_15  and  C_16
REMARK    5  A    between atoms: C_23  and  C_24
REMARK                            x       y       z     vdW  Elec       q    Type
REMARK                         _______ _______ _______ _____ _____    ______ ____
ROOT
ATOM      1  C   UNL     1       2.063   8.237  18.299  0.00  0.00    +0.000 C 
ATOM      2  O   UNL     1       2.178   8.318  17.075  0.00  0.00    +0.000 OA
ATOM      3  N   UNL     1       1.308   9.172  19.035  0.00  0.00    +0.000 N 
ATOM      4  C   UNL     1       1.186   9.153  20.495  0.00  0.00    +0.000 C 
ATOM      5  C   UNL     1      -0.208   9.512  20.976  0.00  0.00    +0.000 C 
ATOM      6  C   UNL     1      -0.796  10.762  20.323  0.00  0.00    +0.000 C 
ATOM      7  C   UNL     1      -0.623  10.704  18.797  0.00  0.00    +0.000 C 
ATOM      8  C   UNL     1       0.783  10.341  18.333  0.00  0.00    +0.000 C 
ENDROOT
BRANCH   1  15
ATOM      9  N   UNL     1       5.591   5.363  17.321  0.00  0.00    +0.000 NA
ATOM     10  C   UNL     1       5.997   4.683  18.582  0.00  0.00    +0.000 C 
ATOM     11  C   UNL     1       4.825   4.195  19.474  0.00  0.00    +0.000 C 
ATOM     12  C   UNL     1       3.823   5.281  19.518  0.00  0.00    +0.000 A 
ATOM     13  N   UNL     1       2.732   5.376  20.312  0.00  0.00    +0.000 N 
ATOM     14  N   UNL     1       2.036   6.508  20.101  0.00  0.00    +0.000 NA
ATOM     15  C   UNL     1       2.621   7.067  19.017  0.00  0.00    +0.000 A 
ATOM     16  C   UNL     1       3.805   6.367  18.670  0.00  0.00    +0.000 A 
ATOM     17  C   UNL     1       4.833   6.617  17.622  0.00  0.00    +0.000 C 
ATOM     18  H   UNL     1       2.387   4.718  21.004  0.00  0.00    +0.000 HD
BRANCH   9  20
ATOM     19  C   UNL     1       5.457   4.381  15.016  0.00  0.00    +0.000 C 
ATOM     20  C   UNL     1       4.828   4.502  16.401  0.00  0.00    +0.000 C 
ENDBRANCH   9  20
ENDBRANCH   1  15
BRANCH   6  21
ATOM     21  C   UNL     1      -0.353  12.068  20.989  0.00  0.00    +0.000 A 
ATOM     22  C   UNL     1       0.764  12.767  20.467  0.00  0.00    +0.000 A 
ATOM     23  C   UNL     1       1.247  13.945  21.037  0.00  0.00    +0.000 A 
ATOM     24  C   UNL     1       0.614  14.461  22.145  0.00  0.00    +0.000 A 
ATOM     25  F   UNL     1       1.070  15.592  22.698  0.00  0.00    +0.000 F 
ATOM     26  C   UNL     1      -0.485  13.808  22.686  0.00  0.00    +0.000 A 
ATOM     27  F   UNL     1      -1.074  14.339  23.766  0.00  0.00    +0.000 F 
ATOM     28  C   UNL     1      -0.988  12.612  22.138  0.00  0.00    +0.000 A 
BRANCH  28  29
ATOM     29  C   UNL     1      -2.178  12.066  22.892  0.00  0.00    +0.000 C 
ATOM     30  F   UNL     1      -2.647  12.823  23.919  0.00  0.00    +0.000 F 
ATOM     31  F   UNL     1      -3.259  11.883  22.080  0.00  0.00    +0.000 F 
ATOM     32  F   UNL     1      -1.917  10.849  23.450  0.00  0.00    +0.000 F 
ENDBRANCH  28  29
ENDBRANCH   6  21
TORSDOF 4
ENDMDL
MODEL 7
REMARK VINA RESULT:      -7.1      6.150      7.742
REMARK  Name = 
REMARK  5 active torsions:
REMARK  status: ('A' for Active; 'I' for Inactive)
REMARK    1  A    between atoms: C_1  and  C_2
REMARK    2  A    between atoms: C_2  and  N_3
REMARK    3  A    between atoms: C_9  and  C_10
REMARK    4  A    between atoms: C_15  and  C_16
REMARK    5  A    between atoms: C_23  and  C_24
REMARK                            x       y       z     vdW  Elec       q    Type
REMARK                         _______ _______ _______ _____ _____    ______ ____
ROOT
ATOM      1  C   UNL     1       0.821  11.663  20.809  0.00  0.00    +0.000 C 
ATOM      2  O   UNL     1       1.361  10.852  21.563  0.00  0.00    +0.000 OA
ATOM      3  N   UNL     1      -0.482  12.144  21.048  0.00  0.00    +0.000 N 
ATOM      4  C   UNL     1      -1.189  13.064  20.155  0.00  0.00    +0.000 C 
ATOM      5  C   UNL     1      -2.006  14.102  20.902  0.00  0.00    +0.000 C 
ATOM      6  C   UNL     1      -2.880  13.530  22.017  0.00  0.00    +0.000 C 
ATOM      7  C   UNL     1      -2.065  12.575  22.903  0.00  0.00    +0.000 C 
ATOM      8  C   UNL     1      -1.250  11.540  22.135  0.00  0.00    +0.000 C 
ENDROOT
BRANCH   1  15
ATOM      9  N   UNL     1       2.639  15.898  20.158  0.00  0.00    +0.000 NA
ATOM     10  C   UNL     1       3.681  15.797  19.098  0.00  0.00    +0.000 C 
ATOM     11  C   UNL     1       3.294  14.923  17.876  0.00  0.00    +0.000 C 
ATOM     12  C   UNL     1       2.656  13.695  18.395  0.00  0.00    +0.000 A 
ATOM     13  N   UNL     1       2.327  12.575  17.712  0.00  0.00    +0.000 N 
ATOM     14  N   UNL     1       1.768  11.636  18.497  0.00  0.00    +0.000 NA
ATOM     15  C   UNL     1       1.589  12.254  19.688  0.00  0.00    +0.000 A 
ATOM     16  C   UNL     1       2.213  13.528  19.689  0.00  0.00    +0.000 A 
ATOM     17  C   UNL     1       2.368  14.555  20.757  0.00  0.00    +0.000 C 
ATOM     18  H   UNL     1       2.433  12.376  16.723  0.00  0.00    +0.000 HD
BRANCH   9  20
ATOM     19  C   UNL     1       0.453  16.922  20.842  0.00  0.00    +0.000 C 
ATOM     20  C   UNL     1       1.387  16.526  19.701  0.00  0.00    +0.000 C 
ENDBRANCH   9  20
ENDBRANCH   1  15
BRANCH   6  21
ATOM     21  C   UNL     1      -4.226  12.990  21.525  0.00  0.00    +0.000 A 
ATOM     22  C   UNL     1      -4.368  12.622  20.164  0.00  0.00    +0.000 A 
ATOM     23  C   UNL     1      -5.570  12.151  19.634  0.00  0.00    +0.000 A 
ATOM     24  C   UNL     1      -6.664  12.029  20.461  0.00  0.00    +0.000 A 
ATOM     25  F   UNL     1      -7.821  11.576  19.962  0.00  0.00    +0.000 F 
ATOM     26  C   UNL     1      -6.565  12.377  21.801  0.00  0.00    +0.000 A 
ATOM     27  F   UNL     1      -7.651  12.246  22.575  0.00  0.00    +0.000 F 
ATOM     28  C   UNL     1      -5.368  12.864  22.361  0.00  0.00    +0.000 A 
BRANCH  28  29
ATOM     29  C   UNL     1      -5.489  13.194  23.831  0.00  0.00    +0.000 C 
ATOM     30  F   UNL     1      -6.749  13.340  24.320  0.00  0.00    +0.000 F 
ATOM     31  F   UNL     1      -4.925  12.235  24.620  0.00  0.00    +0.000 F 
ATOM     32  F   UNL     1      -4.857  14.361  24.147  0.00  0.00    +0.000 F 
ENDBRANCH  28  29
ENDBRANCH   6  21
TORSDOF 4
ENDMDL
MODEL 8
REMARK VINA RESULT:      -7.0      4.830      8.540
REMARK  Name = 
REMARK  5 active torsions:
REMARK  status: ('A' for Active; 'I' for Inactive)
REMARK    1  A    between atoms: C_1  and  C_2
REMARK    2  A    between atoms: C_2  and  N_3
REMARK    3  A    between atoms: C_9  and  C_10
REMARK    4  A    between atoms: C_15  and  C_16
REMARK    5  A    between atoms: C_23  and  C_24
REMARK                            x       y       z     vdW  Elec       q    Type
REMARK                         _______ _______ _______ _____ _____    ______ ____
ROOT
ATOM      1  C   UNL     1       0.735   9.570  20.517  0.00  0.00    +0.000 C 
ATOM      2  O   UNL     1       0.542   9.440  21.728  0.00  0.00    +0.000 OA
ATOM      3  N   UNL     1       1.441   8.604  19.773  0.00  0.00    +0.000 N 
ATOM      4  C   UNL     1       1.747   8.737  18.347  0.00  0.00    +0.000 C 
ATOM      5  C   UNL     1       1.625   7.426  17.591  0.00  0.00    +0.000 C 
ATOM      6  C   UNL     1       2.323   6.245  18.265  0.00  0.00    +0.000 C 
ATOM      7  C   UNL     1       1.953   6.181  19.755  0.00  0.00    +0.000 C 
ATOM      8  C   UNL     1       2.080   7.507  20.497  0.00  0.00    +0.000 C 
ENDROOT
BRANCH   1  15
ATOM      9  N   UNL     1       1.741  14.111  20.344  0.00  0.00    +0.000 NA
ATOM     10  C   UNL     1       1.109  14.679  19.121  0.00  0.00    +0.000 C 
ATOM     11  C   UNL     1      -0.339  14.194  18.843  0.00  0.00    +0.000 C 
ATOM     12  C   UNL     1      -0.367  12.734  19.071  0.00  0.00    +0.000 A 
ATOM     13  N   UNL     1      -1.360  11.865  18.776  0.00  0.00    +0.000 N 
ATOM     14  N   UNL     1      -1.052  10.597  19.107  0.00  0.00    +0.000 NA
ATOM     15  C   UNL     1       0.113  10.699  19.787  0.00  0.00    +0.000 A 
ATOM     16  C   UNL     1       0.621  12.021  19.713  0.00  0.00    +0.000 A 
ATOM     17  C   UNL     1       1.884  12.627  20.220  0.00  0.00    +0.000 C 
ATOM     18  H   UNL     1      -2.271  12.050  18.369  0.00  0.00    +0.000 HD
BRANCH   9  20
ATOM     19  C   UNL     1       1.150  15.942  21.954  0.00  0.00    +0.000 C 
ATOM     20  C   UNL     1       1.042  14.463  21.592  0.00  0.00    +0.000 C 
ENDBRANCH   9  20
ENDBRANCH   1  15
BRANCH   6  21
ATOM     21  C   UNL     1       3.819   6.156  17.951  0.00  0.00    +0.000 A 
ATOM     22  C   UNL     1       4.508   7.321  17.530  0.00  0.00    +0.000 A 
ATOM     23  C   UNL     1       5.862   7.314  17.196  0.00  0.00    +0.000 A 
ATOM     24  C   UNL     1       6.567   6.134  17.284  0.00  0.00    +0.000 A 
ATOM     25  F   UNL     1       7.868   6.118  16.966  0.00  0.00    +0.000 F 
ATOM     26  C   UNL     1       5.929   4.972  17.694  0.00  0.00    +0.000 A 
ATOM     27  F   UNL     1       6.647   3.842  17.766  0.00  0.00    +0.000 F 
ATOM     28  C   UNL     1       4.561   4.947  18.028  0.00  0.00    +0.000 A 
BRANCH  28  29
ATOM     29  C   UNL     1       4.071   3.576  18.433  0.00  0.00    +0.000 C 
ATOM     30  F   UNL     1       2.747   3.464  18.719  0.00  0.00    +0.000 F 
ATOM     31  F   UNL     1       4.292   2.646  17.461  0.00  0.00    +0.000 F 
ATOM     32  F   UNL     1       4.707   3.114  19.548  0.00  0.00    +0.000 F 
ENDBRANCH  28  29
ENDBRANCH   6  21
TORSDOF 4
ENDMDL
MODEL 9
REMARK VINA RESULT:      -7.0      1.548      1.884
REMARK  Name = 
REMARK  5 active torsions:
REMARK  status: ('A' for Active; 'I' for Inactive)
REMARK    1  A    between atoms: C_1  and  C_2
REMARK    2  A    between atoms: C_2  and  N_3
REMARK    3  A    between atoms: C_9  and  C_10
REMARK    4  A    between atoms: C_15  and  C_16
REMARK    5  A    between atoms: C_23  and  C_24
REMARK                            x       y       z     vdW  Elec       q    Type
REMARK                         _______ _______ _______ _____ _____    ______ ____
ROOT
ATOM      1  C   UNL     1       2.950   6.833  18.910  0.00  0.00    +0.000 C 
ATOM      2  O   UNL     1       2.994   6.066  19.873  0.00  0.00    +0.000 OA
ATOM      3  N   UNL     1       2.089   7.949  18.892  0.00  0.00    +0.000 N 
ATOM      4  C   UNL     1       1.957   8.859  17.751  0.00  0.00    +0.000 C 
ATOM      5  C   UNL     1       1.805  10.311  18.168  0.00  0.00    +0.000 C 
ATOM      6  C   UNL     1       0.770  10.544  19.267  0.00  0.00    +0.000 C 
ATOM      7  C   UNL     1       0.975   9.548  20.420  0.00  0.00    +0.000 C 
ATOM      8  C   UNL     1       1.127   8.095  19.982  0.00  0.00    +0.000 C 
ENDROOT
BRANCH   1  15
ATOM      9  N   UNL     1       7.049   4.652  18.596  0.00  0.00    +0.000 NA
ATOM     10  C   UNL     1       7.334   4.408  17.155  0.00  0.00    +0.000 C 
ATOM     11  C   UNL     1       7.014   5.596  16.210  0.00  0.00    +0.000 C 
ATOM     12  C   UNL     1       5.701   6.140  16.614  0.00  0.00    +0.000 A 
ATOM     13  N   UNL     1       4.943   7.054  15.966  0.00  0.00    +0.000 N 
ATOM     14  N   UNL     1       3.791   7.319  16.608  0.00  0.00    +0.000 NA
ATOM     15  C   UNL     1       3.905   6.668  17.789  0.00  0.00    +0.000 A 
ATOM     16  C   UNL     1       5.059   5.844  17.796  0.00  0.00    +0.000 A 
ATOM     17  C   UNL     1       5.588   4.887  18.809  0.00  0.00    +0.000 C 
ATOM     18  H   UNL     1       5.140   7.551  15.103  0.00  0.00    +0.000 HD
BRANCH   9  20
ATOM     19  C   UNL     1       8.544   5.363  20.481  0.00  0.00    +0.000 C 
ATOM     20  C   UNL     1       7.843   5.747  19.181  0.00  0.00    +0.000 C 
ENDBRANCH   9  20
ENDBRANCH   1  15
BRANCH   6  21
ATOM     21  C   UNL     1      -0.664  10.662  18.743  0.00  0.00    +0.000 A 
ATOM     22  C   UNL     1      -1.058   9.889  17.623  0.00  0.00    +0.000 A 
ATOM     23  C   UNL     1      -2.335   9.964  17.068  0.00  0.00    +0.000 A 
ATOM     24  C   UNL     1      -3.261  10.815  17.631  0.00  0.00    +0.000 A 
ATOM     25  F   UNL     1      -4.490  10.893  17.107  0.00  0.00    +0.000 F 
ATOM     26  C   UNL     1      -2.915  11.587  18.731  0.00  0.00    +0.000 A 
ATOM     27  F   UNL     1      -3.841  12.405  19.251  0.00  0.00    +0.000 F 
ATOM     28  C   UNL     1      -1.630  11.539  19.306  0.00  0.00    +0.000 A 
BRANCH  28  29
ATOM     29  C   UNL     1      -1.469  12.472  20.483  0.00  0.00    +0.000 C 
ATOM     30  F   UNL     1      -0.220  12.576  21.010  0.00  0.00    +0.000 F 
ATOM     31  F   UNL     1      -1.816  13.754  20.173  0.00  0.00    +0.000 F 
ATOM     32  F   UNL     1      -2.259  12.112  21.535  0.00  0.00    +0.000 F 
ENDBRANCH  28  29
ENDBRANCH   6  21
TORSDOF 4
ENDMDL
