MODEL 1
REMARK VINA RESULT:      -8.1      0.000      0.000
REMARK  Name = 
REMARK  4 active torsions:
REMARK  status: ('A' for Active; 'I' for Inactive)
REMARK    1  A    between atoms: C_2  and  C_3
REMARK    2  A    between atoms: C_3  and  N_4
REMARK    3  A    between atoms: C_5  and  C_7
REMARK    4  A    between atoms: C_16  and  C_17
REMARK                            x       y       z     vdW  Elec       q    Type
REMARK                         _______ _______ _______ _____ _____    ______ ____
ROOT
ATOM      1  C   UNL     1       5.728   4.532  15.239  0.00  0.00    +0.000 A 
ATOM      2  C   UNL     1       5.175   3.443  15.897  0.00  0.00    +0.000 A 
ATOM      3  C   UNL     1       4.357   3.857  17.000  0.00  0.00    +0.000 A 
ATOM      4  C   UNL     1       3.636   3.055  17.970  0.00  0.00    +0.000 A 
ATOM      5  O   UNL     1       3.667   1.828  17.929  0.00  0.00    +0.000 OA
ATOM      6  N   UNL     1       2.928   3.807  18.931  0.00  0.00    +0.000 N 
ATOM      7  C   UNL     1       2.204   3.122  19.903  0.00  0.00    +0.000 A 
ATOM      8  C   UNL     1       1.497   3.758  20.843  0.00  0.00    +0.000 A 
ATOM      9  C   UNL     1       1.468   5.193  20.873  0.00  0.00    +0.000 A 
ATOM     10  C   UNL     1       2.146   5.921  19.974  0.00  0.00    +0.000 A 
ATOM     11  C   UNL     1       2.146   7.419  19.971  0.00  0.00    +0.000 C 
ATOM     12  C   UNL     1       2.946   5.214  18.911  0.00  0.00    +0.000 A 
ATOM     13  N   UNL     1       3.603   5.927  18.038  0.00  0.00    +0.000 NA
ATOM     14  C   UNL     1       4.289   5.220  17.119  0.00  0.00    +0.000 A 
ATOM     15  S   UNL     1       5.218   6.009  15.945  0.00  0.00    +0.000 S 
ENDROOT
BRANCH   1  17
ATOM     16  N   UNL     1       6.329   3.671  13.073  0.00  0.00    +0.000 N 
ATOM     17  C   UNL     1       6.649   4.549  14.103  0.00  0.00    +0.000 C 
ATOM     18  O   UNL     1       7.622   5.281  14.041  0.00  0.00    +0.000 OA
ATOM     19  H   UNL     1       5.391   3.282  13.049  0.00  0.00    +0.000 HD
BRANCH  16  20
ATOM     20  C   UNL     1       7.156   3.652  11.903  0.00  0.00    +0.000 C 
BRANCH  20  22
ATOM     21  C   UNL     1       6.175   1.471  11.228  0.00  0.00    +0.000 C 
ATOM     22  C   UNL     1       7.244   2.266  11.349  0.00  0.00    +0.000 C 
ENDBRANCH  20  22
ENDBRANCH  16  20
ENDBRANCH   1  17
TORSDOF 3
ENDMDL
MODEL 2
REMARK VINA RESULT:      -7.6      1.685      2.454
REMARK  Name = 
REMARK  4 active torsions:
REMARK  status: ('A' for Active; 'I' for Inactive)
REMARK    1  A    between atoms: C_2  and  C_3
REMARK    2  A    between atoms: C_3  and  N_4
REMARK    3  A    between atoms: C_5  and  C_7
REMARK    4  A    between atoms: C_16  and  C_17
REMARK                            x       y       z     vdW  Elec       q    Type
REMARK                         _______ _______ _______ _____ _____    ______ ____
ROOT
ATOM      1  C   UNL     1       5.993   5.002  15.290  0.00  0.00    +0.000 A 
ATOM      2  C   UNL     1       5.337   6.128  15.769  0.00  0.00    +0.000 A 
ATOM      3  C   UNL     1       4.578   5.829  16.948  0.00  0.00    +0.000 A 
ATOM      4  C   UNL     1       3.717   6.689  17.738  0.00  0.00    +0.000 A 
ATOM      5  O   UNL     1       3.546   7.867  17.436  0.00  0.00    +0.000 OA
ATOM      6  N   UNL     1       3.119   6.051  18.844  0.00  0.00    +0.000 N 
ATOM      7  C   UNL     1       2.277   6.799  19.662  0.00  0.00    +0.000 A 
ATOM      8  C   UNL     1       1.679   6.274  20.737  0.00  0.00    +0.000 A 
ATOM      9  C   UNL     1       1.893   4.897  21.079  0.00  0.00    +0.000 A 
ATOM     10  C   UNL     1       2.685   4.111  20.334  0.00  0.00    +0.000 A 
ATOM     11  C   UNL     1       2.934   2.669  20.653  0.00  0.00    +0.000 C 
ATOM     12  C   UNL     1       3.364   4.693  19.122  0.00  0.00    +0.000 A 
ATOM     13  N   UNL     1       4.134   3.924  18.401  0.00  0.00    +0.000 NA
ATOM     14  C   UNL     1       4.706   4.521  17.337  0.00  0.00    +0.000 A 
ATOM     15  S   UNL     1       5.702   3.640  16.290  0.00  0.00    +0.000 S 
ENDROOT
BRANCH   1  17
ATOM     16  N   UNL     1       6.354   3.967  13.145  0.00  0.00    +0.000 N 
ATOM     17  C   UNL     1       6.828   4.864  14.097  0.00  0.00    +0.000 C 
ATOM     18  O   UNL     1       7.860   5.491  13.928  0.00  0.00    +0.000 OA
ATOM     19  H   UNL     1       5.383   3.673  13.207  0.00  0.00    +0.000 HD
BRANCH  16  20
ATOM     20  C   UNL     1       7.090   3.802  11.928  0.00  0.00    +0.000 C 
BRANCH  20  22
ATOM     21  C   UNL     1       5.828   1.731  11.390  0.00  0.00    +0.000 C 
ATOM     22  C   UNL     1       6.990   2.391  11.446  0.00  0.00    +0.000 C 
ENDBRANCH  20  22
ENDBRANCH  16  20
ENDBRANCH   1  17
TORSDOF 3
ENDMDL
MODEL 3
REMARK VINA RESULT:      -7.1      3.656      5.880
REMARK  Name = 
REMARK  4 active torsions:
REMARK  status: ('A' for Active; 'I' for Inactive)
REMARK    1  A    between atoms: C_2  and  C_3
REMARK    2  A    between atoms: C_3  and  N_4
REMARK    3  A    between atoms: C_5  and  C_7
REMARK    4  A    between atoms: C_16  and  C_17
REMARK                            x       y       z     vdW  Elec       q    Type
REMARK                         _______ _______ _______ _____ _____    ______ ____
ROOT
ATOM      1  C   UNL     1       3.129   6.059  18.488  0.00  0.00    +0.000 A 
ATOM      2  C   UNL     1       2.911   7.290  17.884  0.00  0.00    +0.000 A 
ATOM      3  C   UNL     1       2.178   8.172  18.745  0.00  0.00    +0.000 A 
ATOM      4  C   UNL     1       1.702   9.520  18.500  0.00  0.00    +0.000 A 
ATOM      5  O   UNL     1       1.902  10.080  17.425  0.00  0.00    +0.000 OA
ATOM      6  N   UNL     1       1.005  10.094  19.584  0.00  0.00    +0.000 N 
ATOM      7  C   UNL     1       0.512  11.388  19.441  0.00  0.00    +0.000 A 
ATOM      8  C   UNL     1      -0.150  12.009  20.423  0.00  0.00    +0.000 A 
ATOM      9  C   UNL     1      -0.372  11.342  21.674  0.00  0.00    +0.000 A 
ATOM     10  C   UNL     1       0.067  10.092  21.884  0.00  0.00    +0.000 A 
ATOM     11  C   UNL     1      -0.145   9.359  23.173  0.00  0.00    +0.000 C 
ATOM     12  C   UNL     1       0.814   9.384  20.784  0.00  0.00    +0.000 A 
ATOM     13  N   UNL     1       1.240   8.168  20.993  0.00  0.00    +0.000 NA
ATOM     14  C   UNL     1       1.901   7.607  19.963  0.00  0.00    +0.000 A 
ATOM     15  S   UNL     1       2.481   6.021  20.075  0.00  0.00    +0.000 S 
ENDROOT
BRANCH   1  17
ATOM     16  N   UNL     1       4.562   5.097  16.809  0.00  0.00    +0.000 N 
ATOM     17  C   UNL     1       3.790   4.873  17.943  0.00  0.00    +0.000 C 
ATOM     18  O   UNL     1       3.692   3.765  18.442  0.00  0.00    +0.000 OA
ATOM     19  H   UNL     1       4.822   6.055  16.588  0.00  0.00    +0.000 HD
BRANCH  16  20
ATOM     20  C   UNL     1       5.277   3.997  16.234  0.00  0.00    +0.000 C 
BRANCH  20  22
ATOM     21  C   UNL     1       7.452   4.583  17.284  0.00  0.00    +0.000 C 
ATOM     22  C   UNL     1       6.742   4.294  16.188  0.00  0.00    +0.000 C 
ENDBRANCH  20  22
ENDBRANCH  16  20
ENDBRANCH   1  17
TORSDOF 3
ENDMDL
MODEL 4
REMARK VINA RESULT:      -7.0      1.890      2.651
REMARK  Name = 
REMARK  4 active torsions:
REMARK  status: ('A' for Active; 'I' for Inactive)
REMARK    1  A    between atoms: C_2  and  C_3
REMARK    2  A    between atoms: C_3  and  N_4
REMARK    3  A    between atoms: C_5  and  C_7
REMARK    4  A    between atoms: C_16  and  C_17
REMARK                            x       y       z     vdW  Elec       q    Type
REMARK                         _______ _______ _______ _____ _____    ______ ____
ROOT
ATOM      1  C   UNL     1       5.254   5.371  16.166  0.00  0.00    +0.000 A 
ATOM      2  C   UNL     1       4.724   4.852  17.339  0.00  0.00    +0.000 A 
ATOM      3  C   UNL     1       3.876   5.803  17.996  0.00  0.00    +0.000 A 
ATOM      4  C   UNL     1       3.165   5.695  19.255  0.00  0.00    +0.000 A 
ATOM      5  O   UNL     1       3.234   4.677  19.939  0.00  0.00    +0.000 OA
ATOM      6  N   UNL     1       2.418   6.841  19.599  0.00  0.00    +0.000 N 
ATOM      7  C   UNL     1       1.700   6.828  20.792  0.00  0.00    +0.000 A 
ATOM      8  C   UNL     1       0.957   7.869  21.186  0.00  0.00    +0.000 A 
ATOM      9  C   UNL     1       0.884   9.049  20.373  0.00  0.00    +0.000 A 
ATOM     10  C   UNL     1       1.554   9.138  19.214  0.00  0.00    +0.000 A 
ATOM     11  C   UNL     1       1.506  10.351  18.336  0.00  0.00    +0.000 C 
ATOM     12  C   UNL     1       2.392   7.972  18.760  0.00  0.00    +0.000 A 
ATOM     13  N   UNL     1       3.041   8.062  17.632  0.00  0.00    +0.000 NA
ATOM     14  C   UNL     1       3.764   6.977  17.297  0.00  0.00    +0.000 A 
ATOM     15  S   UNL     1       4.687   6.963  15.878  0.00  0.00    +0.000 S 
ENDROOT
BRANCH   1  17
ATOM     16  N   UNL     1       5.630   4.310  14.037  0.00  0.00    +0.000 N 
ATOM     17  C   UNL     1       6.192   4.752  15.229  0.00  0.00    +0.000 C 
ATOM     18  O   UNL     1       7.385   4.636  15.457  0.00  0.00    +0.000 OA
ATOM     19  H   UNL     1       4.708   4.655  13.786  0.00  0.00    +0.000 HD
BRANCH  16  20
ATOM     20  C   UNL     1       6.485   3.728  13.047  0.00  0.00    +0.000 C 
BRANCH  20  22
ATOM     21  C   UNL     1       4.514   3.337  11.586  0.00  0.00    +0.000 C 
ATOM     22  C   UNL     1       5.686   2.919  12.077  0.00  0.00    +0.000 C 
ENDBRANCH  20  22
ENDBRANCH  16  20
ENDBRANCH   1  17
TORSDOF 3
ENDMDL
MODEL 5
REMARK VINA RESULT:      -6.8      2.141      7.471
REMARK  Name = 
REMARK  4 active torsions:
REMARK  status: ('A' for Active; 'I' for Inactive)
REMARK    1  A    between atoms: C_2  and  C_3
REMARK    2  A    between atoms: C_3  and  N_4
REMARK    3  A    between atoms: C_5  and  C_7
REMARK    4  A    between atoms: C_16  and  C_17
REMARK                            x       y       z     vdW  Elec       q    Type
REMARK                         _______ _______ _______ _____ _____    ______ ____
ROOT
ATOM      1  C   UNL     1       4.301   4.451  18.323  0.00  0.00    +0.000 A 
ATOM      2  C   UNL     1       5.386   5.241  17.967  0.00  0.00    +0.000 A 
ATOM      3  C   UNL     1       5.776   5.011  16.607  0.00  0.00    +0.000 A 
ATOM      4  C   UNL     1       6.873   5.581  15.849  0.00  0.00    +0.000 A 
ATOM      5  O   UNL     1       7.643   6.392  16.358  0.00  0.00    +0.000 OA
ATOM      6  N   UNL     1       6.962   5.119  14.520  0.00  0.00    +0.000 N 
ATOM      7  C   UNL     1       7.984   5.614  13.715  0.00  0.00    +0.000 A 
ATOM      8  C   UNL     1       8.132   5.236  12.440  0.00  0.00    +0.000 A 
ATOM      9  C   UNL     1       7.221   4.290  11.860  0.00  0.00    +0.000 A 
ATOM     10  C   UNL     1       6.216   3.764  12.575  0.00  0.00    +0.000 A 
ATOM     11  C   UNL     1       5.245   2.774  12.010  0.00  0.00    +0.000 C 
ATOM     12  C   UNL     1       6.040   4.184  14.012  0.00  0.00    +0.000 A 
ATOM     13  N   UNL     1       5.060   3.670  14.703  0.00  0.00    +0.000 NA
ATOM     14  C   UNL     1       4.970   4.099  15.976  0.00  0.00    +0.000 A 
ATOM     15  S   UNL     1       3.769   3.493  17.005  0.00  0.00    +0.000 S 
ENDROOT
BRANCH   1  17
ATOM     16  N   UNL     1       3.372   3.050  20.047  0.00  0.00    +0.000 N 
ATOM     17  C   UNL     1       3.626   4.347  19.617  0.00  0.00    +0.000 C 
ATOM     18  O   UNL     1       3.314   5.317  20.288  0.00  0.00    +0.000 OA
ATOM     19  H   UNL     1       3.872   2.289  19.594  0.00  0.00    +0.000 HD
BRANCH  16  20
ATOM     20  C   UNL     1       2.752   2.856  21.323  0.00  0.00    +0.000 C 
BRANCH  20  22
ATOM     21  C   UNL     1       0.655   2.837  19.990  0.00  0.00    +0.000 C 
ATOM     22  C   UNL     1       1.264   2.831  21.181  0.00  0.00    +0.000 C 
ENDBRANCH  20  22
ENDBRANCH  16  20
ENDBRANCH   1  17
TORSDOF 3
ENDMDL
MODEL 6
REMARK VINA RESULT:      -6.7      1.107      1.428
REMARK  Name = 
REMARK  4 active torsions:
REMARK  status: ('A' for Active; 'I' for Inactive)
REMARK    1  A    between atoms: C_2  and  C_3
REMARK    2  A    between atoms: C_3  and  N_4
REMARK    3  A    between atoms: C_5  and  C_7
REMARK    4  A    between atoms: C_16  and  C_17
REMARK                            x       y       z     vdW  Elec       q    Type
REMARK                         _______ _______ _______ _____ _____    ______ ____
ROOT
ATOM      1  C   UNL     1       5.550   4.976  15.555  0.00  0.00    +0.000 A 
ATOM      2  C   UNL     1       5.042   4.162  16.558  0.00  0.00    +0.000 A 
ATOM      3  C   UNL     1       4.222   4.904  17.469  0.00  0.00    +0.000 A 
ATOM      4  C   UNL     1       3.539   4.463  18.671  0.00  0.00    +0.000 A 
ATOM      5  O   UNL     1       3.613   3.298  19.052  0.00  0.00    +0.000 OA
ATOM      6  N   UNL     1       2.815   5.478  19.331  0.00  0.00    +0.000 N 
ATOM      7  C   UNL     1       2.125   5.146  20.494  0.00  0.00    +0.000 A 
ATOM      8  C   UNL     1       1.405   6.045  21.174  0.00  0.00    +0.000 A 
ATOM      9  C   UNL     1       1.326   7.402  20.712  0.00  0.00    +0.000 A 
ATOM     10  C   UNL     1       1.969   7.798  19.603  0.00  0.00    +0.000 A 
ATOM     11  C   UNL     1       1.916   9.203  19.088  0.00  0.00    +0.000 C 
ATOM     12  C   UNL     1       2.782   6.793  18.830  0.00  0.00    +0.000 A 
ATOM     13  N   UNL     1       3.406   7.182  17.751  0.00  0.00    +0.000 NA
ATOM     14  C   UNL     1       4.107   6.224  17.116  0.00  0.00    +0.000 A 
ATOM     15  S   UNL     1       4.996   6.589  15.723  0.00  0.00    +0.000 S 
ENDROOT
BRANCH   1  17
ATOM     16  N   UNL     1       5.881   3.908  13.422  0.00  0.00    +0.000 N 
ATOM     17  C   UNL     1       6.458   4.628  14.462  0.00  0.00    +0.000 C 
ATOM     18  O   UNL     1       7.634   4.950  14.442  0.00  0.00    +0.000 OA
ATOM     19  H   UNL     1       4.867   3.891  13.357  0.00  0.00    +0.000 HD
BRANCH  16  20
ATOM     20  C   UNL     1       6.690   3.562  12.292  0.00  0.00    +0.000 C 
BRANCH  20  22
ATOM     21  C   UNL     1       7.057   1.529  10.912  0.00  0.00    +0.000 C 
ATOM     22  C   UNL     1       6.283   2.230  11.747  0.00  0.00    +0.000 C 
ENDBRANCH  20  22
ENDBRANCH  16  20
ENDBRANCH   1  17
TORSDOF 3
ENDMDL
MODEL 7
REMARK VINA RESULT:      -6.6      3.870      6.421
REMARK  Name = 
REMARK  4 active torsions:
REMARK  status: ('A' for Active; 'I' for Inactive)
REMARK    1  A    between atoms: C_2  and  C_3
REMARK    2  A    between atoms: C_3  and  N_4
REMARK    3  A    between atoms: C_5  and  C_7
REMARK    4  A    between atoms: C_16  and  C_17
REMARK                            x       y       z     vdW  Elec       q    Type
REMARK                         _______ _______ _______ _____ _____    ______ ____
ROOT
ATOM      1  C   UNL     1       3.031   6.475  18.354  0.00  0.00    +0.000 A 
ATOM      2  C   UNL     1       2.834   7.739  17.816  0.00  0.00    +0.000 A 
ATOM      3  C   UNL     1       2.105   8.583  18.717  0.00  0.00    +0.000 A 
ATOM      4  C   UNL     1       1.647   9.948  18.542  0.00  0.00    +0.000 A 
ATOM      5  O   UNL     1       1.866  10.563  17.501  0.00  0.00    +0.000 OA
ATOM      6  N   UNL     1       0.948  10.472  19.649  0.00  0.00    +0.000 N 
ATOM      7  C   UNL     1       0.472  11.778  19.572  0.00  0.00    +0.000 A 
ATOM      8  C   UNL     1      -0.191  12.354  20.581  0.00  0.00    +0.000 A 
ATOM      9  C   UNL     1      -0.434  11.623  21.792  0.00  0.00    +0.000 A 
ATOM     10  C   UNL     1      -0.013  10.357  21.937  0.00  0.00    +0.000 A 
ATOM     11  C   UNL     1      -0.247   9.558  23.181  0.00  0.00    +0.000 C 
ATOM     12  C   UNL     1       0.736   9.700  20.807  0.00  0.00    +0.000 A 
ATOM     13  N   UNL     1       1.144   8.469  20.953  0.00  0.00    +0.000 NA
ATOM     14  C   UNL     1       1.808   7.956  19.899  0.00  0.00    +0.000 A 
ATOM     15  S   UNL     1       2.367   6.359  19.930  0.00  0.00    +0.000 S 
ENDROOT
BRANCH   1  17
ATOM     16  N   UNL     1       3.467   4.107  18.411  0.00  0.00    +0.000 N 
ATOM     17  C   UNL     1       3.682   5.312  17.751  0.00  0.00    +0.000 C 
ATOM     18  O   UNL     1       4.357   5.374  16.737  0.00  0.00    +0.000 OA
ATOM     19  H   UNL     1       2.704   4.059  19.081  0.00  0.00    +0.000 HD
BRANCH  16  20
ATOM     20  C   UNL     1       4.034   2.911  17.864  0.00  0.00    +0.000 C 
BRANCH  20  22
ATOM     21  C   UNL     1       2.043   1.832  18.886  0.00  0.00    +0.000 C 
ATOM     22  C   UNL     1       3.141   1.742  18.127  0.00  0.00    +0.000 C 
ENDBRANCH  20  22
ENDBRANCH  16  20
ENDBRANCH   1  17
TORSDOF 3
ENDMDL
MODEL 8
REMARK VINA RESULT:      -6.6      4.147      8.673
REMARK  Name = 
REMARK  4 active torsions:
REMARK  status: ('A' for Active; 'I' for Inactive)
REMARK    1  A    between atoms: C_2  and  C_3
REMARK    2  A    between atoms: C_3  and  N_4
REMARK    3  A    between atoms: C_5  and  C_7
REMARK    4  A    between atoms: C_16  and  C_17
REMARK                            x       y       z     vdW  Elec       q    Type
REMARK                         _______ _______ _______ _____ _____    ______ ____
ROOT
ATOM      1  C   UNL     1       0.993   9.305  19.752  0.00  0.00    +0.000 A 
ATOM      2  C   UNL     1       1.226   8.106  20.410  0.00  0.00    +0.000 A 
ATOM      3  C   UNL     1       2.115   7.264  19.665  0.00  0.00    +0.000 A 
ATOM      4  C   UNL     1       2.584   5.923  19.958  0.00  0.00    +0.000 A 
ATOM      5  O   UNL     1       2.224   5.331  20.972  0.00  0.00    +0.000 OA
ATOM      6  N   UNL     1       3.460   5.390  18.989  0.00  0.00    +0.000 N 
ATOM      7  C   UNL     1       3.963   4.108  19.187  0.00  0.00    +0.000 A 
ATOM      8  C   UNL     1       4.807   3.534  18.323  0.00  0.00    +0.000 A 
ATOM      9  C   UNL     1       5.221   4.241  17.144  0.00  0.00    +0.000 A 
ATOM     10  C   UNL     1       4.773   5.477  16.882  0.00  0.00    +0.000 A 
ATOM     11  C   UNL     1       5.177   6.249  15.664  0.00  0.00    +0.000 C 
ATOM     12  C   UNL     1       3.822   6.133  17.849  0.00  0.00    +0.000 A 
ATOM     13  N   UNL     1       3.389   7.336  17.590  0.00  0.00    +0.000 NA
ATOM     14  C   UNL     1       2.547   7.853  18.505  0.00  0.00    +0.000 A 
ATOM     15  S   UNL     1       1.876   9.391  18.285  0.00  0.00    +0.000 S 
ENDROOT
BRANCH   1  17
ATOM     16  N   UNL     1       0.416  10.989  21.373  0.00  0.00    +0.000 N 
ATOM     17  C   UNL     1       0.122  10.414  20.143  0.00  0.00    +0.000 C 
ATOM     18  O   UNL     1      -0.792  10.823  19.446  0.00  0.00    +0.000 OA
ATOM     19  H   UNL     1       1.324  10.796  21.787  0.00  0.00    +0.000 HD
BRANCH  16  20
ATOM     20  C   UNL     1      -0.362  12.107  21.814  0.00  0.00    +0.000 C 
BRANCH  20  22
ATOM     21  C   UNL     1      -2.516  12.063  23.054  0.00  0.00    +0.000 C 
ATOM     22  C   UNL     1      -1.226  11.718  22.971  0.00  0.00    +0.000 C 
ENDBRANCH  20  22
ENDBRANCH  16  20
ENDBRANCH   1  17
TORSDOF 3
ENDMDL
MODEL 9
REMARK VINA RESULT:      -6.5      0.828      1.316
REMARK  Name = 
REMARK  4 active torsions:
REMARK  status: ('A' for Active; 'I' for Inactive)
REMARK    1  A    between atoms: C_2  and  C_3
REMARK    2  A    between atoms: C_3  and  N_4
REMARK    3  A    between atoms: C_5  and  C_7
REMARK    4  A    between atoms: C_16  and  C_17
REMARK                            x       y       z     vdW  Elec       q    Type
REMARK                         _______ _______ _______ _____ _____    ______ ____
ROOT
ATOM      1  C   UNL     1       5.847   4.524  15.529  0.00  0.00    +0.000 A 
ATOM      2  C   UNL     1       5.241   3.399  16.071  0.00  0.00    +0.000 A 
ATOM      3  C   UNL     1       4.358   3.748  17.146  0.00  0.00    +0.000 A 
ATOM      4  C   UNL     1       3.567   2.891  18.009  0.00  0.00    +0.000 A 
ATOM      5  O   UNL     1       3.587   1.670  17.883  0.00  0.00    +0.000 OA
ATOM      6  N   UNL     1       2.807   3.585  18.973  0.00  0.00    +0.000 N 
ATOM      7  C   UNL     1       2.014   2.845  19.846  0.00  0.00    +0.000 A 
ATOM      8  C   UNL     1       1.254   3.424  20.782  0.00  0.00    +0.000 A 
ATOM      9  C   UNL     1       1.239   4.854  20.912  0.00  0.00    +0.000 A 
ATOM     10  C   UNL     1       1.982   5.633  20.112  0.00  0.00    +0.000 A 
ATOM     11  C   UNL     1       1.998   7.127  20.216  0.00  0.00    +0.000 C 
ATOM     12  C   UNL     1       2.841   4.990  19.055  0.00  0.00    +0.000 A 
ATOM     13  N   UNL     1       3.561   5.752  18.278  0.00  0.00    +0.000 NA
ATOM     14  C   UNL     1       4.297   5.101  17.357  0.00  0.00    +0.000 A 
ATOM     15  S   UNL     1       5.309   5.956  16.304  0.00  0.00    +0.000 S 
ENDROOT
BRANCH   1  17
ATOM     16  N   UNL     1       6.534   3.875  13.314  0.00  0.00    +0.000 N 
ATOM     17  C   UNL     1       6.840   4.606  14.457  0.00  0.00    +0.000 C 
ATOM     18  O   UNL     1       7.858   5.271  14.539  0.00  0.00    +0.000 OA
ATOM     19  H   UNL     1       5.577   3.558  13.191  0.00  0.00    +0.000 HD
BRANCH  16  20
ATOM     20  C   UNL     1       7.433   3.932  12.200  0.00  0.00    +0.000 C 
BRANCH  20  22
ATOM     21  C   UNL     1       7.916   6.240  11.416  0.00  0.00    +0.000 C 
ATOM     22  C   UNL     1       7.154   5.142  11.366  0.00  0.00    +0.000 C 
ENDBRANCH  20  22
ENDBRANCH  16  20
ENDBRANCH   1  17
TORSDOF 3
ENDMDL
