MODEL 1
REMARK VINA RESULT:      -7.8      0.000      0.000
REMARK  Name = 
REMARK  6 active torsions:
REMARK  status: ('A' for Active; 'I' for Inactive)
REMARK    1  A    between atoms: C_1  and  C_2
REMARK    2  A    between atoms: C_3  and  O_4
REMARK    3  A    between atoms: N_6  and  C_7
REMARK    4  A    between atoms: C_16  and  C_17
REMARK    5  A    between atoms: C_17  and  O_19
REMARK    6  A    between atoms: N_21  and  C_22
REMARK                            x       y       z     vdW  Elec       q    Type
REMARK                         _______ _______ _______ _____ _____    ______ ____
ROOT
ATOM      1  C   UNL     1       1.923   8.244  19.357  0.00  0.00    +0.000 A 
ATOM      2  C   UNL     1       2.339   6.931  19.655  0.00  0.00    +0.000 A 
ATOM      3  C   UNL     1       3.232   6.228  18.824  0.00  0.00    +0.000 A 
ATOM      4  C   UNL     1       3.720   6.886  17.678  0.00  0.00    +0.000 A 
ATOM      5  C   UNL     1       3.291   8.166  17.337  0.00  0.00    +0.000 A 
ATOM      6  C   UNL     1       2.404   8.828  18.174  0.00  0.00    +0.000 A 
ATOM      7  F   UNL     1       2.027  10.066  17.822  0.00  0.00    +0.000 F 
ATOM      8  C   UNL     1       4.736   6.224  16.829  0.00  0.00    +0.000 A 
ATOM      9  O   UNL     1       5.155   6.749  15.800  0.00  0.00    +0.000 OA
ATOM     10  C   UNL     1       5.278   4.921  17.270  0.00  0.00    +0.000 A 
ATOM     11  C   UNL     1       4.710   4.365  18.348  0.00  0.00    +0.000 A 
ATOM     12  N   UNL     1       3.669   4.900  19.091  0.00  0.00    +0.000 N 
ENDROOT
BRANCH   1  17
ATOM     13  C   UNL     1      -0.850  10.190  19.361  0.00  0.00    +0.000 C 
ATOM     14  C   UNL     1       0.449  10.238  20.148  0.00  0.00    +0.000 C 
ATOM     15  C   UNL     1       0.344  10.198  21.695  0.00  0.00    +0.000 C 
ATOM     16  C   UNL     1       0.698   8.706  21.580  0.00  0.00    +0.000 C 
ATOM     17  N   UNL     1       1.067   8.949  20.221  0.00  0.00    +0.000 N 
BRANCH  15  18
ATOM     18  O   UNL     1      -0.910  10.554  22.313  0.00  0.00    +0.000 OA
ATOM     19  H   UNL     1      -0.673  11.083  23.096  0.00  0.00    +0.000 HD
ENDBRANCH  15  18
ENDBRANCH   1  17
BRANCH  12  20
ATOM     20  C   UNL     1       3.118   4.086  20.192  0.00  0.00    +0.000 C 
ATOM     21  C   UNL     1       1.655   3.727  20.272  0.00  0.00    +0.000 C 
ATOM     22  C   UNL     1       2.658   2.663  19.958  0.00  0.00    +0.000 C 
ENDBRANCH  12  20
BRANCH  10  23
ATOM     23  C   UNL     1       6.389   4.231  16.586  0.00  0.00    +0.000 C 
ATOM     24  O   UNL     1       7.563   4.543  16.728  0.00  0.00    +0.000 OA
BRANCH  23  25
ATOM     25  O   UNL     1       6.008   3.222  15.772  0.00  0.00    +0.000 OA
ATOM     26  H   UNL     1       6.746   2.822  15.249  0.00  0.00    +0.000 HD
ENDBRANCH  23  25
ENDBRANCH  10  23
TORSDOF 5
ENDMDL
MODEL 2
REMARK VINA RESULT:      -7.8      1.008      1.220
REMARK  Name = 
REMARK  6 active torsions:
REMARK  status: ('A' for Active; 'I' for Inactive)
REMARK    1  A    between atoms: C_1  and  C_2
REMARK    2  A    between atoms: C_3  and  O_4
REMARK    3  A    between atoms: N_6  and  C_7
REMARK    4  A    between atoms: C_16  and  C_17
REMARK    5  A    between atoms: C_17  and  O_19
REMARK    6  A    between atoms: N_21  and  C_22
REMARK                            x       y       z     vdW  Elec       q    Type
REMARK                         _______ _______ _______ _____ _____    ______ ____
ROOT
ATOM      1  C   UNL     1       1.492   8.238  20.097  0.00  0.00    +0.000 A 
ATOM      2  C   UNL     1       1.905   6.918  20.369  0.00  0.00    +0.000 A 
ATOM      3  C   UNL     1       2.749   6.208  19.492  0.00  0.00    +0.000 A 
ATOM      4  C   UNL     1       3.190   6.866  18.328  0.00  0.00    +0.000 A 
ATOM      5  C   UNL     1       2.761   8.154  18.013  0.00  0.00    +0.000 A 
ATOM      6  C   UNL     1       1.923   8.822  18.894  0.00  0.00    +0.000 A 
ATOM      7  F   UNL     1       1.546  10.066  18.567  0.00  0.00    +0.000 F 
ATOM      8  C   UNL     1       4.156   6.196  17.429  0.00  0.00    +0.000 A 
ATOM      9  O   UNL     1       4.533   6.721  16.383  0.00  0.00    +0.000 OA
ATOM     10  C   UNL     1       4.702   4.885  17.838  0.00  0.00    +0.000 A 
ATOM     11  C   UNL     1       4.179   4.330  18.938  0.00  0.00    +0.000 A 
ATOM     12  N   UNL     1       3.181   4.873  19.732  0.00  0.00    +0.000 N 
ENDROOT
BRANCH   1  17
ATOM     13  C   UNL     1       0.631  11.388  20.997  0.00  0.00    +0.000 C 
ATOM     14  C   UNL     1       0.904  10.123  21.793  0.00  0.00    +0.000 C 
ATOM     15  C   UNL     1      -0.223   9.616  22.730  0.00  0.00    +0.000 C 
ATOM     16  C   UNL     1      -0.558   8.609  21.617  0.00  0.00    +0.000 C 
ATOM     17  N   UNL     1       0.687   8.949  21.003  0.00  0.00    +0.000 N 
BRANCH  15  18
ATOM     18  O   UNL     1      -1.250  10.543  23.142  0.00  0.00    +0.000 OA
ATOM     19  H   UNL     1      -1.846  10.031  23.717  0.00  0.00    +0.000 HD
ENDBRANCH  15  18
ENDBRANCH   1  17
BRANCH  12  20
ATOM     20  C   UNL     1       2.673   4.061  20.855  0.00  0.00    +0.000 C 
ATOM     21  C   UNL     1       1.255   3.548  20.898  0.00  0.00    +0.000 C 
ATOM     22  C   UNL     1       2.379   2.586  20.682  0.00  0.00    +0.000 C 
ENDBRANCH  12  20
BRANCH  10  23
ATOM     23  C   UNL     1       5.770   4.184  17.098  0.00  0.00    +0.000 C 
ATOM     24  O   UNL     1       5.610   3.700  15.986  0.00  0.00    +0.000 OA
BRANCH  23  25
ATOM     25  O   UNL     1       6.950   4.106  17.752  0.00  0.00    +0.000 OA
ATOM     26  H   UNL     1       7.553   3.397  17.417  0.00  0.00    +0.000 HD
ENDBRANCH  23  25
ENDBRANCH  10  23
TORSDOF 5
ENDMDL
MODEL 3
REMARK VINA RESULT:      -7.7      2.456      3.712
REMARK  Name = 
REMARK  6 active torsions:
REMARK  status: ('A' for Active; 'I' for Inactive)
REMARK    1  A    between atoms: C_1  and  C_2
REMARK    2  A    between atoms: C_3  and  O_4
REMARK    3  A    between atoms: N_6  and  C_7
REMARK    4  A    between atoms: C_16  and  C_17
REMARK    5  A    between atoms: C_17  and  O_19
REMARK    6  A    between atoms: N_21  and  C_22
REMARK                            x       y       z     vdW  Elec       q    Type
REMARK                         _______ _______ _______ _____ _____    ______ ____
ROOT
ATOM      1  C   UNL     1       1.555   8.287  19.686  0.00  0.00    +0.000 A 
ATOM      2  C   UNL     1       2.553   7.745  18.852  0.00  0.00    +0.000 A 
ATOM      3  C   UNL     1       3.025   6.428  19.017  0.00  0.00    +0.000 A 
ATOM      4  C   UNL     1       2.455   5.650  20.042  0.00  0.00    +0.000 A 
ATOM      5  C   UNL     1       1.499   6.175  20.910  0.00  0.00    +0.000 A 
ATOM      6  C   UNL     1       1.062   7.479  20.724  0.00  0.00    +0.000 A 
ATOM      7  F   UNL     1       0.129   7.945  21.566  0.00  0.00    +0.000 F 
ATOM      8  C   UNL     1       2.848   4.231  20.190  0.00  0.00    +0.000 A 
ATOM      9  O   UNL     1       2.403   3.530  21.098  0.00  0.00    +0.000 OA
ATOM     10  C   UNL     1       3.764   3.648  19.188  0.00  0.00    +0.000 A 
ATOM     11  C   UNL     1       4.283   4.489  18.284  0.00  0.00    +0.000 A 
ATOM     12  N   UNL     1       4.034   5.850  18.197  0.00  0.00    +0.000 N 
ENDROOT
BRANCH   1  17
ATOM     13  C   UNL     1      -0.845   9.996  18.014  0.00  0.00    +0.000 C 
ATOM     14  C   UNL     1       0.614  10.291  18.317  0.00  0.00    +0.000 C 
ATOM     15  C   UNL     1       0.931  11.606  19.076  0.00  0.00    +0.000 C 
ATOM     16  C   UNL     1       1.051  10.732  20.336  0.00  0.00    +0.000 C 
ATOM     17  N   UNL     1       1.062   9.587  19.480  0.00  0.00    +0.000 N 
BRANCH  15  18
ATOM     18  O   UNL     1      -0.052  12.662  19.070  0.00  0.00    +0.000 OA
ATOM     19  H   UNL     1       0.040  13.098  18.205  0.00  0.00    +0.000 HD
ENDBRANCH  15  18
ENDBRANCH   1  17
BRANCH  12  20
ATOM     20  C   UNL     1       4.778   6.624  17.184  0.00  0.00    +0.000 C 
ATOM     21  C   UNL     1       6.204   6.301  16.812  0.00  0.00    +0.000 C 
ATOM     22  C   UNL     1       5.108   6.028  15.832  0.00  0.00    +0.000 C 
ENDBRANCH  12  20
BRANCH  10  23
ATOM     23  C   UNL     1       4.120   2.216  19.148  0.00  0.00    +0.000 C 
ATOM     24  O   UNL     1       3.648   1.429  18.339  0.00  0.00    +0.000 OA
BRANCH  23  25
ATOM     25  O   UNL     1       5.009   1.831  20.089  0.00  0.00    +0.000 OA
ATOM     26  H   UNL     1       4.740   1.025  20.596  0.00  0.00    +0.000 HD
ENDBRANCH  23  25
ENDBRANCH  10  23
TORSDOF 5
ENDMDL
MODEL 4
REMARK VINA RESULT:      -7.7      1.002      1.407
REMARK  Name = 
REMARK  6 active torsions:
REMARK  status: ('A' for Active; 'I' for Inactive)
REMARK    1  A    between atoms: C_1  and  C_2
REMARK    2  A    between atoms: C_3  and  O_4
REMARK    3  A    between atoms: N_6  and  C_7
REMARK    4  A    between atoms: C_16  and  C_17
REMARK    5  A    between atoms: C_17  and  O_19
REMARK    6  A    between atoms: N_21  and  C_22
REMARK                            x       y       z     vdW  Elec       q    Type
REMARK                         _______ _______ _______ _____ _____    ______ ____
ROOT
ATOM      1  C   UNL     1       1.529   8.821  19.606  0.00  0.00    +0.000 A 
ATOM      2  C   UNL     1       1.842   7.519  20.043  0.00  0.00    +0.000 A 
ATOM      3  C   UNL     1       2.680   6.666  19.297  0.00  0.00    +0.000 A 
ATOM      4  C   UNL     1       3.218   7.161  18.094  0.00  0.00    +0.000 A 
ATOM      5  C   UNL     1       2.889   8.428  17.617  0.00  0.00    +0.000 A 
ATOM      6  C   UNL     1       2.055   9.239  18.372  0.00  0.00    +0.000 A 
ATOM      7  F   UNL     1       1.775  10.459  17.890  0.00  0.00    +0.000 F 
ATOM      8  C   UNL     1       4.181   6.338  17.329  0.00  0.00    +0.000 A 
ATOM      9  O   UNL     1       4.641   6.719  16.254  0.00  0.00    +0.000 OA
ATOM     10  C   UNL     1       4.621   5.052  17.908  0.00  0.00    +0.000 A 
ATOM     11  C   UNL     1       4.010   4.656  19.033  0.00  0.00    +0.000 A 
ATOM     12  N   UNL     1       3.013   5.344  19.706  0.00  0.00    +0.000 N 
ENDROOT
BRANCH   1  17
ATOM     13  C   UNL     1      -0.466   8.851  22.344  0.00  0.00    +0.000 C 
ATOM     14  C   UNL     1      -0.560   9.529  20.987  0.00  0.00    +0.000 C 
ATOM     15  C   UNL     1      -0.667  11.077  20.971  0.00  0.00    +0.000 C 
ATOM     16  C   UNL     1       0.836  11.077  20.647  0.00  0.00    +0.000 C 
ATOM     17  N   UNL     1       0.729   9.677  20.383  0.00  0.00    +0.000 N 
BRANCH  15  18
ATOM     18  O   UNL     1      -1.106  11.752  22.169  0.00  0.00    +0.000 OA
ATOM     19  H   UNL     1      -2.076  11.797  22.101  0.00  0.00    +0.000 HD
ENDBRANCH  15  18
ENDBRANCH   1  17
BRANCH  12  20
ATOM     20  C   UNL     1       2.400   4.695  20.881  0.00  0.00    +0.000 C 
ATOM     21  C   UNL     1       1.155   3.850  20.774  0.00  0.00    +0.000 C 
ATOM     22  C   UNL     1       2.466   3.194  21.068  0.00  0.00    +0.000 C 
ENDBRANCH  12  20
BRANCH  10  23
ATOM     23  C   UNL     1       5.676   4.211  17.310  0.00  0.00    +0.000 C 
ATOM     24  O   UNL     1       5.552   3.641  16.234  0.00  0.00    +0.000 OA
BRANCH  23  25
ATOM     25  O   UNL     1       6.801   4.106  18.052  0.00  0.00    +0.000 OA
ATOM     26  H   UNL     1       6.711   4.451  18.974  0.00  0.00    +0.000 HD
ENDBRANCH  23  25
ENDBRANCH  10  23
TORSDOF 5
ENDMDL
MODEL 5
REMARK VINA RESULT:      -7.7      2.603      3.868
REMARK  Name = 
REMARK  6 active torsions:
REMARK  status: ('A' for Active; 'I' for Inactive)
REMARK    1  A    between atoms: C_1  and  C_2
REMARK    2  A    between atoms: C_3  and  O_4
REMARK    3  A    between atoms: N_6  and  C_7
REMARK    4  A    between atoms: C_16  and  C_17
REMARK    5  A    between atoms: C_17  and  O_19
REMARK    6  A    between atoms: N_21  and  C_22
REMARK                            x       y       z     vdW  Elec       q    Type
REMARK                         _______ _______ _______ _____ _____    ______ ____
ROOT
ATOM      1  C   UNL     1       1.443   8.749  19.258  0.00  0.00    +0.000 A 
ATOM      2  C   UNL     1       2.387   8.079  18.454  0.00  0.00    +0.000 A 
ATOM      3  C   UNL     1       2.871   6.799  18.787  0.00  0.00    +0.000 A 
ATOM      4  C   UNL     1       2.367   6.188  19.951  0.00  0.00    +0.000 A 
ATOM      5  C   UNL     1       1.467   6.846  20.787  0.00  0.00    +0.000 A 
ATOM      6  C   UNL     1       1.017   8.111  20.434  0.00  0.00    +0.000 A 
ATOM      7  F   UNL     1       0.138   8.706  21.253  0.00  0.00    +0.000 F 
ATOM      8  C   UNL     1       2.771   4.805  20.287  0.00  0.00    +0.000 A 
ATOM      9  O   UNL     1       2.385   4.253  21.316  0.00  0.00    +0.000 OA
ATOM     10  C   UNL     1       3.624   4.070  19.329  0.00  0.00    +0.000 A 
ATOM     11  C   UNL     1       4.083   4.761  18.278  0.00  0.00    +0.000 A 
ATOM     12  N   UNL     1       3.827   6.095  18.002  0.00  0.00    +0.000 N 
ENDROOT
BRANCH   1  17
ATOM     13  C   UNL     1       2.412  11.779  18.094  0.00  0.00    +0.000 C 
ATOM     14  C   UNL     1       1.379  11.348  19.122  0.00  0.00    +0.000 C 
ATOM     15  C   UNL     1      -0.086  11.799  18.889  0.00  0.00    +0.000 C 
ATOM     16  C   UNL     1      -0.329  10.383  18.340  0.00  0.00    +0.000 C 
ATOM     17  N   UNL     1       0.936  10.007  18.889  0.00  0.00    +0.000 N 
BRANCH  15  18
ATOM     18  O   UNL     1      -0.335  12.921  18.016  0.00  0.00    +0.000 OA
ATOM     19  H   UNL     1      -0.494  13.678  18.605  0.00  0.00    +0.000 HD
ENDBRANCH  15  18
ENDBRANCH   1  17
BRANCH  12  20
ATOM     20  C   UNL     1       4.504   6.702  16.839  0.00  0.00    +0.000 C 
ATOM     21  C   UNL     1       6.005   6.685  16.684  0.00  0.00    +0.000 C 
ATOM     22  C   UNL     1       5.162   5.842  15.781  0.00  0.00    +0.000 C 
ENDBRANCH  12  20
BRANCH  10  23
ATOM     23  C   UNL     1       3.978   2.646  19.483  0.00  0.00    +0.000 C 
ATOM     24  O   UNL     1       3.223   1.730  19.188  0.00  0.00    +0.000 OA
BRANCH  23  25
ATOM     25  O   UNL     1       5.210   2.425  19.992  0.00  0.00    +0.000 OA
ATOM     26  H   UNL     1       5.379   1.485  20.252  0.00  0.00    +0.000 HD
ENDBRANCH  23  25
ENDBRANCH  10  23
TORSDOF 5
ENDMDL
MODEL 6
REMARK VINA RESULT:      -7.6      2.513      3.803
REMARK  Name = 
REMARK  6 active torsions:
REMARK  status: ('A' for Active; 'I' for Inactive)
REMARK    1  A    between atoms: C_1  and  C_2
REMARK    2  A    between atoms: C_3  and  O_4
REMARK    3  A    between atoms: N_6  and  C_7
REMARK    4  A    between atoms: C_16  and  C_17
REMARK    5  A    between atoms: C_17  and  O_19
REMARK    6  A    between atoms: N_21  and  C_22
REMARK                            x       y       z     vdW  Elec       q    Type
REMARK                         _______ _______ _______ _____ _____    ______ ____
ROOT
ATOM      1  C   UNL     1       1.837   7.870  19.540  0.00  0.00    +0.000 A 
ATOM      2  C   UNL     1       2.919   7.305  18.834  0.00  0.00    +0.000 A 
ATOM      3  C   UNL     1       3.393   6.009  19.115  0.00  0.00    +0.000 A 
ATOM      4  C   UNL     1       2.740   5.274  20.122  0.00  0.00    +0.000 A 
ATOM      5  C   UNL     1       1.698   5.825  20.865  0.00  0.00    +0.000 A 
ATOM      6  C   UNL     1       1.260   7.107  20.568  0.00  0.00    +0.000 A 
ATOM      7  F   UNL     1       0.244   7.597  21.292  0.00  0.00    +0.000 F 
ATOM      8  C   UNL     1       3.140   3.873  20.384  0.00  0.00    +0.000 A 
ATOM      9  O   UNL     1       2.621   3.213  21.282  0.00  0.00    +0.000 OA
ATOM     10  C   UNL     1       4.157   3.258  19.505  0.00  0.00    +0.000 A 
ATOM     11  C   UNL     1       4.746   4.061  18.610  0.00  0.00    +0.000 A 
ATOM     12  N   UNL     1       4.485   5.410  18.426  0.00  0.00    +0.000 N 
ENDROOT
BRANCH   1  17
ATOM     13  C   UNL     1       0.862  10.789  20.956  0.00  0.00    +0.000 C 
ATOM     14  C   UNL     1       0.328   9.976  19.787  0.00  0.00    +0.000 C 
ATOM     15  C   UNL     1       0.234  10.687  18.412  0.00  0.00    +0.000 C 
ATOM     16  C   UNL     1       1.546   9.963  18.062  0.00  0.00    +0.000 C 
ATOM     17  N   UNL     1       1.346   9.147  19.217  0.00  0.00    +0.000 N 
BRANCH  15  18
ATOM     18  O   UNL     1       0.222  12.130  18.378  0.00  0.00    +0.000 OA
ATOM     19  H   UNL     1       1.132  12.392  18.154  0.00  0.00    +0.000 HD
ENDBRANCH  15  18
ENDBRANCH   1  17
BRANCH  12  20
ATOM     20  C   UNL     1       5.310   6.145  17.447  0.00  0.00    +0.000 C 
ATOM     21  C   UNL     1       6.388   5.470  16.636  0.00  0.00    +0.000 C 
ATOM     22  C   UNL     1       5.136   5.928  15.959  0.00  0.00    +0.000 C 
ENDBRANCH  12  20
BRANCH  10  23
ATOM     23  C   UNL     1       4.537   1.833  19.577  0.00  0.00    +0.000 C 
ATOM     24  O   UNL     1       5.223   1.366  20.476  0.00  0.00    +0.000 OA
BRANCH  23  25
ATOM     25  O   UNL     1       4.074   1.075  18.559  0.00  0.00    +0.000 OA
ATOM     26  H   UNL     1       3.853   1.586  17.741  0.00  0.00    +0.000 HD
ENDBRANCH  23  25
ENDBRANCH  10  23
TORSDOF 5
ENDMDL
MODEL 7
REMARK VINA RESULT:      -7.6      1.112      1.350
REMARK  Name = 
REMARK  6 active torsions:
REMARK  status: ('A' for Active; 'I' for Inactive)
REMARK    1  A    between atoms: C_1  and  C_2
REMARK    2  A    between atoms: C_3  and  O_4
REMARK    3  A    between atoms: N_6  and  C_7
REMARK    4  A    between atoms: C_16  and  C_17
REMARK    5  A    between atoms: C_17  and  O_19
REMARK    6  A    between atoms: N_21  and  C_22
REMARK                            x       y       z     vdW  Elec       q    Type
REMARK                         _______ _______ _______ _____ _____    ______ ____
ROOT
ATOM      1  C   UNL     1       1.480   9.002  19.344  0.00  0.00    +0.000 A 
ATOM      2  C   UNL     1       1.721   7.716  19.869  0.00  0.00    +0.000 A 
ATOM      3  C   UNL     1       2.617   6.819  19.254  0.00  0.00    +0.000 A 
ATOM      4  C   UNL     1       3.288   7.252  18.094  0.00  0.00    +0.000 A 
ATOM      5  C   UNL     1       3.034   8.500  17.530  0.00  0.00    +0.000 A 
ATOM      6  C   UNL     1       2.140   9.356  18.157  0.00  0.00    +0.000 A 
ATOM      7  F   UNL     1       1.935  10.556  17.595  0.00  0.00    +0.000 F 
ATOM      8  C   UNL     1       4.310   6.382  17.472  0.00  0.00    +0.000 A 
ATOM      9  O   UNL     1       4.888   6.707  16.436  0.00  0.00    +0.000 OA
ATOM     10  C   UNL     1       4.663   5.117  18.150  0.00  0.00    +0.000 A 
ATOM     11  C   UNL     1       3.930   4.781  19.219  0.00  0.00    +0.000 A 
ATOM     12  N   UNL     1       2.880   5.512  19.753  0.00  0.00    +0.000 N 
ENDROOT
BRANCH   1  17
ATOM     13  C   UNL     1       1.332  12.175  20.522  0.00  0.00    +0.000 C 
ATOM     14  C   UNL     1       0.808  10.850  21.050  0.00  0.00    +0.000 C 
ATOM     15  C   UNL     1      -0.715  10.746  21.323  0.00  0.00    +0.000 C 
ATOM     16  C   UNL     1      -0.806  10.018  19.971  0.00  0.00    +0.000 C 
ATOM     17  N   UNL     1       0.618   9.902  19.994  0.00  0.00    +0.000 N 
BRANCH  15  18
ATOM     18  O   UNL     1      -1.472  11.962  21.494  0.00  0.00    +0.000 OA
ATOM     19  H   UNL     1      -0.810  12.665  21.618  0.00  0.00    +0.000 HD
ENDBRANCH  15  18
ENDBRANCH   1  17
BRANCH  12  20
ATOM     20  C   UNL     1       2.135   4.925  20.883  0.00  0.00    +0.000 C 
ATOM     21  C   UNL     1       1.063   3.882  20.684  0.00  0.00    +0.000 C 
ATOM     22  C   UNL     1       2.364   3.491  21.310  0.00  0.00    +0.000 C 
ENDBRANCH  12  20
BRANCH  10  23
ATOM     23  C   UNL     1       5.759   4.235  17.704  0.00  0.00    +0.000 C 
ATOM     24  O   UNL     1       6.897   4.302  18.147  0.00  0.00    +0.000 OA
BRANCH  23  25
ATOM     25  O   UNL     1       5.412   3.343  16.751  0.00  0.00    +0.000 OA
ATOM     26  H   UNL     1       4.441   3.308  16.563  0.00  0.00    +0.000 HD
ENDBRANCH  23  25
ENDBRANCH  10  23
TORSDOF 5
ENDMDL
MODEL 8
REMARK VINA RESULT:      -7.5      0.406      1.067
REMARK  Name = 
REMARK  6 active torsions:
REMARK  status: ('A' for Active; 'I' for Inactive)
REMARK    1  A    between atoms: C_1  and  C_2
REMARK    2  A    between atoms: C_3  and  O_4
REMARK    3  A    between atoms: N_6  and  C_7
REMARK    4  A    between atoms: C_16  and  C_17
REMARK    5  A    between atoms: C_17  and  O_19
REMARK    6  A    between atoms: N_21  and  C_22
REMARK                            x       y       z     vdW  Elec       q    Type
REMARK                         _______ _______ _______ _____ _____    ______ ____
ROOT
ATOM      1  C   UNL     1       1.954   8.258  19.195  0.00  0.00    +0.000 A 
ATOM      2  C   UNL     1       2.362   6.951  19.526  0.00  0.00    +0.000 A 
ATOM      3  C   UNL     1       3.268   6.230  18.723  0.00  0.00    +0.000 A 
ATOM      4  C   UNL     1       3.775   6.864  17.572  0.00  0.00    +0.000 A 
ATOM      5  C   UNL     1       3.353   8.138  17.198  0.00  0.00    +0.000 A 
ATOM      6  C   UNL     1       2.454   8.817  18.007  0.00  0.00    +0.000 A 
ATOM      7  F   UNL     1       2.085  10.048  17.625  0.00  0.00    +0.000 F 
ATOM      8  C   UNL     1       4.803   6.183  16.754  0.00  0.00    +0.000 A 
ATOM      9  O   UNL     1       5.240   6.687  15.720  0.00  0.00    +0.000 OA
ATOM     10  C   UNL     1       5.336   4.890  17.229  0.00  0.00    +0.000 A 
ATOM     11  C   UNL     1       4.749   4.356  18.309  0.00  0.00    +0.000 A 
ATOM     12  N   UNL     1       3.698   4.907  19.024  0.00  0.00    +0.000 N 
ENDROOT
BRANCH   1  17
ATOM     13  C   UNL     1       1.478   9.133  22.433  0.00  0.00    +0.000 C 
ATOM     14  C   UNL     1       0.527   8.722  21.322  0.00  0.00    +0.000 C 
ATOM     15  C   UNL     1      -0.608   9.714  20.955  0.00  0.00    +0.000 C 
ATOM     16  C   UNL     1       0.280  10.134  19.771  0.00  0.00    +0.000 C 
ATOM     17  N   UNL     1       1.085   8.982  20.030  0.00  0.00    +0.000 N 
BRANCH  15  18
ATOM     18  O   UNL     1      -0.984  10.722  21.916  0.00  0.00    +0.000 OA
ATOM     19  H   UNL     1      -1.149  11.528  21.396  0.00  0.00    +0.000 HD
ENDBRANCH  15  18
ENDBRANCH   1  17
BRANCH  12  20
ATOM     20  C   UNL     1       3.128   4.117  20.132  0.00  0.00    +0.000 C 
ATOM     21  C   UNL     1       1.662   3.767  20.199  0.00  0.00    +0.000 C 
ATOM     22  C   UNL     1       2.663   2.692  19.918  0.00  0.00    +0.000 C 
ENDBRANCH  12  20
BRANCH  10  23
ATOM     23  C   UNL     1       6.456   4.184  16.577  0.00  0.00    +0.000 C 
ATOM     24  O   UNL     1       7.629   4.483  16.749  0.00  0.00    +0.000 OA
BRANCH  23  25
ATOM     25  O   UNL     1       6.085   3.176  15.757  0.00  0.00    +0.000 OA
ATOM     26  H   UNL     1       5.266   2.701  16.043  0.00  0.00    +0.000 HD
ENDBRANCH  23  25
ENDBRANCH  10  23
TORSDOF 5
ENDMDL
MODEL 9
REMARK VINA RESULT:      -7.2      3.301      6.625
REMARK  Name = 
REMARK  6 active torsions:
REMARK  status: ('A' for Active; 'I' for Inactive)
REMARK    1  A    between atoms: C_1  and  C_2
REMARK    2  A    between atoms: C_3  and  O_4
REMARK    3  A    between atoms: N_6  and  C_7
REMARK    4  A    between atoms: C_16  and  C_17
REMARK    5  A    between atoms: C_17  and  O_19
REMARK    6  A    between atoms: N_21  and  C_22
REMARK                            x       y       z     vdW  Elec       q    Type
REMARK                         _______ _______ _______ _____ _____    ______ ____
ROOT
ATOM      1  C   UNL     1       1.947   6.158  19.936  0.00  0.00    +0.000 A 
ATOM      2  C   UNL     1       1.462   7.231  20.710  0.00  0.00    +0.000 A 
ATOM      3  C   UNL     1       1.436   8.550  20.217  0.00  0.00    +0.000 A 
ATOM      4  C   UNL     1       1.898   8.771  18.905  0.00  0.00    +0.000 A 
ATOM      5  C   UNL     1       2.424   7.736  18.135  0.00  0.00    +0.000 A 
ATOM      6  C   UNL     1       2.443   6.450  18.654  0.00  0.00    +0.000 A 
ATOM      7  F   UNL     1       2.940   5.476  17.877  0.00  0.00    +0.000 F 
ATOM      8  C   UNL     1       1.797  10.123  18.310  0.00  0.00    +0.000 A 
ATOM      9  O   UNL     1       2.226  10.364  17.183  0.00  0.00    +0.000 OA
ATOM     10  C   UNL     1       1.121  11.183  19.087  0.00  0.00    +0.000 A 
ATOM     11  C   UNL     1       0.762  10.877  20.341  0.00  0.00    +0.000 A 
ATOM     12  N   UNL     1       0.958   9.658  20.972  0.00  0.00    +0.000 N 
ENDROOT
BRANCH   1  17
ATOM     13  C   UNL     1       1.027   3.011  19.083  0.00  0.00    +0.000 C 
ATOM     14  C   UNL     1       0.947   3.797  20.382  0.00  0.00    +0.000 C 
ATOM     15  C   UNL     1       1.644   3.187  21.625  0.00  0.00    +0.000 C 
ATOM     16  C   UNL     1       2.796   4.164  21.334  0.00  0.00    +0.000 C 
ATOM     17  N   UNL     1       1.925   4.840  20.425  0.00  0.00    +0.000 N 
BRANCH  15  18
ATOM     18  O   UNL     1       1.936   1.773  21.632  0.00  0.00    +0.000 OA
ATOM     19  H   UNL     1       2.121   1.542  20.705  0.00  0.00    +0.000 HD
ENDBRANCH  15  18
ENDBRANCH   1  17
BRANCH  12  20
ATOM     20  C   UNL     1       0.574   9.548  22.393  0.00  0.00    +0.000 C 
ATOM     21  C   UNL     1      -0.498  10.414  23.006  0.00  0.00    +0.000 C 
ATOM     22  C   UNL     1      -0.759   8.956  22.799  0.00  0.00    +0.000 C 
ENDBRANCH  12  20
BRANCH  10  23
ATOM     23  C   UNL     1       0.836  12.528  18.549  0.00  0.00    +0.000 C 
ATOM     24  O   UNL     1      -0.224  13.111  18.727  0.00  0.00    +0.000 OA
BRANCH  23  25
ATOM     25  O   UNL     1       1.843  13.070  17.829  0.00  0.00    +0.000 OA
ATOM     26  H   UNL     1       1.827  14.058  17.791  0.00  0.00    +0.000 HD
ENDBRANCH  23  25
ENDBRANCH  10  23
TORSDOF 5
ENDMDL
