MODEL 1
REMARK VINA RESULT:      -7.1      0.000      0.000
REMARK  Name = 
REMARK  2 active torsions:
REMARK  status: ('A' for Active; 'I' for Inactive)
REMARK    1  A    between atoms: C_7  and  N_8
REMARK    2  A    between atoms: C_11  and  C_12
REMARK                            x       y       z     vdW  Elec       q    Type
REMARK                         _______ _______ _______ _____ _____    ______ ____
ROOT
ATOM      1  N   UNL     1       4.687   3.464  17.517  0.00  0.00    +0.000 N 
ATOM      2  C   UNL     1       3.884   4.198  18.320  0.00  0.00    +0.000 A 
ATOM      3  N   UNL     1       3.343   5.357  18.018  0.00  0.00    +0.000 NA
ATOM      4  C   UNL     1       2.750   5.923  19.131  0.00  0.00    +0.000 A 
ATOM      5  C   UNL     1       2.696   5.100  20.237  0.00  0.00    +0.000 A 
ATOM      6  S   UNL     1       3.467   3.609  19.889  0.00  0.00    +0.000 S 
ATOM      7  H   UNL     1       4.998   2.567  17.872  0.00  0.00    +0.000 HD
ENDROOT
BRANCH   1  14
ATOM      8 CL   UNL     1       7.533   4.810  18.222  0.00  0.00    +0.000 Cl
ATOM      9  C   UNL     1       6.748   4.651  16.684  0.00  0.00    +0.000 A 
ATOM     10  C   UNL     1       7.471   5.135  15.585  0.00  0.00    +0.000 A 
ATOM     11  C   UNL     1       7.017   4.920  14.286  0.00  0.00    +0.000 A 
ATOM     12  C   UNL     1       5.839   4.211  14.078  0.00  0.00    +0.000 A 
ATOM     13  C   UNL     1       5.103   3.744  15.172  0.00  0.00    +0.000 A 
ATOM     14  C   UNL     1       5.526   3.968  16.496  0.00  0.00    +0.000 A 
ENDBRANCH   1  14
BRANCH   4  15
ATOM     15  C   UNL     1       2.262   7.294  19.089  0.00  0.00    +0.000 A 
ATOM     16  C   UNL     1       1.697   7.859  20.232  0.00  0.00    +0.000 A 
ATOM     17  C   UNL     1       1.194   9.146  20.156  0.00  0.00    +0.000 A 
ATOM     18  N   UNL     1       1.212   9.891  19.031  0.00  0.00    +0.000 NA
ATOM     19  C   UNL     1       1.746   9.319  17.933  0.00  0.00    +0.000 A 
ATOM     20  C   UNL     1       2.280   8.042  17.910  0.00  0.00    +0.000 A 
ENDBRANCH   4  15
TORSDOF 2
ENDMDL
MODEL 2
REMARK VINA RESULT:      -7.0      0.135      1.086
REMARK  Name = 
REMARK  2 active torsions:
REMARK  status: ('A' for Active; 'I' for Inactive)
REMARK    1  A    between atoms: C_7  and  N_8
REMARK    2  A    between atoms: C_11  and  C_12
REMARK                            x       y       z     vdW  Elec       q    Type
REMARK                         _______ _______ _______ _____ _____    ______ ____
ROOT
ATOM      1  N   UNL     1       4.773   3.405  17.490  0.00  0.00    +0.000 N 
ATOM      2  C   UNL     1       3.971   4.128  18.305  0.00  0.00    +0.000 A 
ATOM      3  N   UNL     1       3.384   5.264  18.001  0.00  0.00    +0.000 NA
ATOM      4  C   UNL     1       2.809   5.831  19.123  0.00  0.00    +0.000 A 
ATOM      5  C   UNL     1       2.816   5.027  20.244  0.00  0.00    +0.000 A 
ATOM      6  S   UNL     1       3.624   3.555  19.896  0.00  0.00    +0.000 S 
ATOM      7  H   UNL     1       5.123   2.525  17.850  0.00  0.00    +0.000 HD
ENDROOT
BRANCH   1  14
ATOM      8 CL   UNL     1       7.647   4.751  18.070  0.00  0.00    +0.000 Cl
ATOM      9  C   UNL     1       6.791   4.601  16.570  0.00  0.00    +0.000 A 
ATOM     10  C   UNL     1       7.461   5.094  15.441  0.00  0.00    +0.000 A 
ATOM     11  C   UNL     1       6.948   4.886  14.164  0.00  0.00    +0.000 A 
ATOM     12  C   UNL     1       5.762   4.178  14.006  0.00  0.00    +0.000 A 
ATOM     13  C   UNL     1       5.078   3.702  15.130  0.00  0.00    +0.000 A 
ATOM     14  C   UNL     1       5.563   3.918  16.434  0.00  0.00    +0.000 A 
ENDBRANCH   1  14
BRANCH   4  15
ATOM     15  C   UNL     1       2.276   7.184  19.074  0.00  0.00    +0.000 A 
ATOM     16  C   UNL     1       2.379   7.923  17.895  0.00  0.00    +0.000 A 
ATOM     17  C   UNL     1       1.910   9.225  17.885  0.00  0.00    +0.000 A 
ATOM     18  N   UNL     1       1.360   9.830  18.958  0.00  0.00    +0.000 NA
ATOM     19  C   UNL     1       1.286   9.105  20.093  0.00  0.00    +0.000 A 
ATOM     20  C   UNL     1       1.721   7.794  20.201  0.00  0.00    +0.000 A 
ENDBRANCH   4  15
TORSDOF 2
ENDMDL
MODEL 3
REMARK VINA RESULT:      -7.0      4.122      5.595
REMARK  Name = 
REMARK  2 active torsions:
REMARK  status: ('A' for Active; 'I' for Inactive)
REMARK    1  A    between atoms: C_7  and  N_8
REMARK    2  A    between atoms: C_11  and  C_12
REMARK                            x       y       z     vdW  Elec       q    Type
REMARK                         _______ _______ _______ _____ _____    ______ ____
ROOT
ATOM      1  N   UNL     1       2.652   6.219  18.899  0.00  0.00    +0.000 N 
ATOM      2  C   UNL     1       2.207   7.475  19.129  0.00  0.00    +0.000 A 
ATOM      3  N   UNL     1       1.694   7.917  20.255  0.00  0.00    +0.000 NA
ATOM      4  C   UNL     1       1.159   9.181  20.083  0.00  0.00    +0.000 A 
ATOM      5  C   UNL     1       1.428   9.761  18.861  0.00  0.00    +0.000 A 
ATOM      6  S   UNL     1       2.314   8.665  17.883  0.00  0.00    +0.000 S 
ATOM      7  H   UNL     1       3.061   6.034  17.990  0.00  0.00    +0.000 HD
ENDROOT
BRANCH   1  14
ATOM      8 CL   UNL     1       1.095   3.922  17.252  0.00  0.00    +0.000 Cl
ATOM      9  C   UNL     1       1.433   4.014  18.950  0.00  0.00    +0.000 A 
ATOM     10  C   UNL     1       1.008   2.914  19.709  0.00  0.00    +0.000 A 
ATOM     11  C   UNL     1       1.362   2.799  21.051  0.00  0.00    +0.000 A 
ATOM     12  C   UNL     1       2.149   3.782  21.641  0.00  0.00    +0.000 A 
ATOM     13  C   UNL     1       2.558   4.891  20.894  0.00  0.00    +0.000 A 
ATOM     14  C   UNL     1       2.194   5.045  19.542  0.00  0.00    +0.000 A 
ENDBRANCH   1  14
BRANCH   4  15
ATOM     15  C   UNL     1       0.361   9.792  21.135  0.00  0.00    +0.000 A 
ATOM     16  C   UNL     1      -0.230  11.036  20.918  0.00  0.00    +0.000 A 
ATOM     17  C   UNL     1      -0.943  11.622  21.949  0.00  0.00    +0.000 A 
ATOM     18  N   UNL     1      -1.097  11.059  23.166  0.00  0.00    +0.000 NA
ATOM     19  C   UNL     1      -0.504   9.863  23.362  0.00  0.00    +0.000 A 
ATOM     20  C   UNL     1       0.224   9.195  22.391  0.00  0.00    +0.000 A 
ENDBRANCH   4  15
TORSDOF 2
ENDMDL
MODEL 4
REMARK VINA RESULT:      -6.9      3.012      6.422
REMARK  Name = 
REMARK  2 active torsions:
REMARK  status: ('A' for Active; 'I' for Inactive)
REMARK    1  A    between atoms: C_7  and  N_8
REMARK    2  A    between atoms: C_11  and  C_12
REMARK                            x       y       z     vdW  Elec       q    Type
REMARK                         _______ _______ _______ _____ _____    ______ ____
ROOT
ATOM      1  N   UNL     1       4.450   5.027  19.006  0.00  0.00    +0.000 N 
ATOM      2  C   UNL     1       5.394   5.226  18.059  0.00  0.00    +0.000 A 
ATOM      3  N   UNL     1       5.241   5.043  16.766  0.00  0.00    +0.000 NA
ATOM      4  C   UNL     1       6.456   5.141  16.113  0.00  0.00    +0.000 A 
ATOM      5  C   UNL     1       7.502   5.575  16.901  0.00  0.00    +0.000 A 
ATOM      6  S   UNL     1       6.960   5.796  18.513  0.00  0.00    +0.000 S 
ATOM      7  H   UNL     1       4.702   5.250  19.962  0.00  0.00    +0.000 HD
ENDROOT
BRANCH   1  14
ATOM      8 CL   UNL     1       4.664   2.070  20.278  0.00  0.00    +0.000 Cl
ATOM      9  C   UNL     1       3.372   2.778  19.364  0.00  0.00    +0.000 A 
ATOM     10  C   UNL     1       2.242   1.967  19.190  0.00  0.00    +0.000 A 
ATOM     11  C   UNL     1       1.082   2.479  18.614  0.00  0.00    +0.000 A 
ATOM     12  C   UNL     1       1.044   3.809  18.213  0.00  0.00    +0.000 A 
ATOM     13  C   UNL     1       2.175   4.618  18.365  0.00  0.00    +0.000 A 
ATOM     14  C   UNL     1       3.369   4.119  18.923  0.00  0.00    +0.000 A 
ENDBRANCH   1  14
BRANCH   4  15
ATOM     15  C   UNL     1       6.568   4.779  14.708  0.00  0.00    +0.000 A 
ATOM     16  C   UNL     1       5.698   3.832  14.169  0.00  0.00    +0.000 A 
ATOM     17  C   UNL     1       5.854   3.466  12.843  0.00  0.00    +0.000 A 
ATOM     18  N   UNL     1       6.810   3.970  12.035  0.00  0.00    +0.000 NA
ATOM     19  C   UNL     1       7.652   4.871  12.581  0.00  0.00    +0.000 A 
ATOM     20  C   UNL     1       7.573   5.306  13.894  0.00  0.00    +0.000 A 
ENDBRANCH   4  15
TORSDOF 2
ENDMDL
MODEL 5
REMARK VINA RESULT:      -6.9      3.012      6.460
REMARK  Name = 
REMARK  2 active torsions:
REMARK  status: ('A' for Active; 'I' for Inactive)
REMARK    1  A    between atoms: C_7  and  N_8
REMARK    2  A    between atoms: C_11  and  C_12
REMARK                            x       y       z     vdW  Elec       q    Type
REMARK                         _______ _______ _______ _____ _____    ______ ____
ROOT
ATOM      1  N   UNL     1       4.345   5.081  18.942  0.00  0.00    +0.000 N 
ATOM      2  C   UNL     1       5.304   5.268  18.006  0.00  0.00    +0.000 A 
ATOM      3  N   UNL     1       5.188   5.017  16.721  0.00  0.00    +0.000 NA
ATOM      4  C   UNL     1       6.413   5.128  16.090  0.00  0.00    +0.000 A 
ATOM      5  C   UNL     1       7.424   5.637  16.879  0.00  0.00    +0.000 A 
ATOM      6  S   UNL     1       6.837   5.916  18.465  0.00  0.00    +0.000 S 
ATOM      7  H   UNL     1       4.567   5.358  19.891  0.00  0.00    +0.000 HD
ENDROOT
BRANCH   1  14
ATOM      8 CL   UNL     1       4.673   2.161  20.275  0.00  0.00    +0.000 Cl
ATOM      9  C   UNL     1       3.354   2.800  19.349  0.00  0.00    +0.000 A 
ATOM     10  C   UNL     1       2.254   1.944  19.194  0.00  0.00    +0.000 A 
ATOM     11  C   UNL     1       1.076   2.400  18.610  0.00  0.00    +0.000 A 
ATOM     12  C   UNL     1       0.987   3.719  18.182  0.00  0.00    +0.000 A 
ATOM     13  C   UNL     1       2.087   4.573  18.314  0.00  0.00    +0.000 A 
ATOM     14  C   UNL     1       3.299   4.131  18.880  0.00  0.00    +0.000 A 
ENDBRANCH   1  14
BRANCH   4  15
ATOM     15  C   UNL     1       6.570   4.703  14.707  0.00  0.00    +0.000 A 
ATOM     16  C   UNL     1       7.565   5.279  13.919  0.00  0.00    +0.000 A 
ATOM     17  C   UNL     1       7.666   4.896  12.592  0.00  0.00    +0.000 A 
ATOM     18  N   UNL     1       6.846   3.995  12.010  0.00  0.00    +0.000 NA
ATOM     19  C   UNL     1       5.880   3.463  12.785  0.00  0.00    +0.000 A 
ATOM     20  C   UNL     1       5.703   3.777  14.123  0.00  0.00    +0.000 A 
ENDBRANCH   4  15
TORSDOF 2
ENDMDL
MODEL 6
REMARK VINA RESULT:      -6.8      2.556      6.412
REMARK  Name = 
REMARK  2 active torsions:
REMARK  status: ('A' for Active; 'I' for Inactive)
REMARK    1  A    between atoms: C_7  and  N_8
REMARK    2  A    between atoms: C_11  and  C_12
REMARK                            x       y       z     vdW  Elec       q    Type
REMARK                         _______ _______ _______ _____ _____    ______ ____
ROOT
ATOM      1  N   UNL     1       1.915   6.537  20.578  0.00  0.00    +0.000 N 
ATOM      2  C   UNL     1       2.749   5.566  20.140  0.00  0.00    +0.000 A 
ATOM      3  N   UNL     1       3.834   5.747  19.421  0.00  0.00    +0.000 NA
ATOM      4  C   UNL     1       4.334   4.537  18.978  0.00  0.00    +0.000 A 
ATOM      5  C   UNL     1       3.716   3.426  19.516  0.00  0.00    +0.000 A 
ATOM      6  S   UNL     1       2.436   3.917  20.545  0.00  0.00    +0.000 S 
ATOM      7  H   UNL     1       1.136   6.248  21.159  0.00  0.00    +0.000 HD
ENDROOT
BRANCH   1  14
ATOM      8 CL   UNL     1       0.772   9.047  22.250  0.00  0.00    +0.000 Cl
ATOM      9  C   UNL     1       1.127   8.930  20.557  0.00  0.00    +0.000 A 
ATOM     10  C   UNL     1       0.932  10.105  19.817  0.00  0.00    +0.000 A 
ATOM     11  C   UNL     1       1.333  10.180  18.486  0.00  0.00    +0.000 A 
ATOM     12  C   UNL     1       1.938   9.081  17.887  0.00  0.00    +0.000 A 
ATOM     13  C   UNL     1       2.116   7.899  18.614  0.00  0.00    +0.000 A 
ATOM     14  C   UNL     1       1.698   7.788  19.955  0.00  0.00    +0.000 A 
ENDBRANCH   1  14
BRANCH   4  15
ATOM     15  C   UNL     1       5.412   4.497  18.002  0.00  0.00    +0.000 A 
ATOM     16  C   UNL     1       5.136   4.132  16.685  0.00  0.00    +0.000 A 
ATOM     17  C   UNL     1       6.185   4.052  15.785  0.00  0.00    +0.000 A 
ATOM     18  N   UNL     1       7.470   4.304  16.110  0.00  0.00    +0.000 NA
ATOM     19  C   UNL     1       7.718   4.639  17.392  0.00  0.00    +0.000 A 
ATOM     20  C   UNL     1       6.737   4.751  18.364  0.00  0.00    +0.000 A 
ENDBRANCH   4  15
TORSDOF 2
ENDMDL
MODEL 7
REMARK VINA RESULT:      -6.8      3.844      5.266
REMARK  Name = 
REMARK  2 active torsions:
REMARK  status: ('A' for Active; 'I' for Inactive)
REMARK    1  A    between atoms: C_7  and  N_8
REMARK    2  A    between atoms: C_11  and  C_12
REMARK                            x       y       z     vdW  Elec       q    Type
REMARK                         _______ _______ _______ _____ _____    ______ ____
ROOT
ATOM      1  N   UNL     1       2.810   5.969  18.728  0.00  0.00    +0.000 N 
ATOM      2  C   UNL     1       2.370   7.223  18.977  0.00  0.00    +0.000 A 
ATOM      3  N   UNL     1       1.931   7.671  20.132  0.00  0.00    +0.000 NA
ATOM      4  C   UNL     1       1.373   8.928  19.987  0.00  0.00    +0.000 A 
ATOM      5  C   UNL     1       1.553   9.499  18.744  0.00  0.00    +0.000 A 
ATOM      6  S   UNL     1       2.380   8.404  17.718  0.00  0.00    +0.000 S 
ATOM      7  H   UNL     1       3.158   5.780  17.795  0.00  0.00    +0.000 HD
ENDROOT
BRANCH   1  14
ATOM      8 CL   UNL     1       2.224   3.232  17.124  0.00  0.00    +0.000 Cl
ATOM      9  C   UNL     1       2.045   3.570  18.815  0.00  0.00    +0.000 A 
ATOM     10  C   UNL     1       1.628   2.489  19.605  0.00  0.00    +0.000 A 
ATOM     11  C   UNL     1       1.603   2.593  20.993  0.00  0.00    +0.000 A 
ATOM     12  C   UNL     1       2.001   3.778  21.601  0.00  0.00    +0.000 A 
ATOM     13  C   UNL     1       2.396   4.867  20.818  0.00  0.00    +0.000 A 
ATOM     14  C   UNL     1       2.409   4.797  19.411  0.00  0.00    +0.000 A 
ENDBRANCH   1  14
BRANCH   4  15
ATOM     15  C   UNL     1       0.642   9.541  21.087  0.00  0.00    +0.000 A 
ATOM     16  C   UNL     1       0.674   8.950  22.349  0.00  0.00    +0.000 A 
ATOM     17  C   UNL     1      -0.068   9.522  23.368  0.00  0.00    +0.000 A 
ATOM     18  N   UNL     1      -0.832  10.623  23.210  0.00  0.00    +0.000 NA
ATOM     19  C   UNL     1      -0.863  11.169  21.977  0.00  0.00    +0.000 A 
ATOM     20  C   UNL     1      -0.151  10.675  20.896  0.00  0.00    +0.000 A 
ENDBRANCH   4  15
TORSDOF 2
ENDMDL
MODEL 8
REMARK VINA RESULT:      -6.8      3.255      6.479
REMARK  Name = 
REMARK  2 active torsions:
REMARK  status: ('A' for Active; 'I' for Inactive)
REMARK    1  A    between atoms: C_7  and  N_8
REMARK    2  A    between atoms: C_11  and  C_12
REMARK                            x       y       z     vdW  Elec       q    Type
REMARK                         _______ _______ _______ _____ _____    ______ ____
ROOT
ATOM      1  N   UNL     1       4.364   4.955  19.273  0.00  0.00    +0.000 N 
ATOM      2  C   UNL     1       5.345   5.098  18.354  0.00  0.00    +0.000 A 
ATOM      3  N   UNL     1       5.211   4.958  17.054  0.00  0.00    +0.000 NA
ATOM      4  C   UNL     1       6.446   4.972  16.433  0.00  0.00    +0.000 A 
ATOM      5  C   UNL     1       7.503   5.300  17.256  0.00  0.00    +0.000 A 
ATOM      6  S   UNL     1       6.940   5.527  18.860  0.00  0.00    +0.000 S 
ATOM      7  H   UNL     1       4.609   5.133  20.241  0.00  0.00    +0.000 HD
ENDROOT
BRANCH   1  14
ATOM      8 CL   UNL     1       1.585   5.759  20.702  0.00  0.00    +0.000 Cl
ATOM      9  C   UNL     1       1.973   4.342  19.783  0.00  0.00    +0.000 A 
ATOM     10  C   UNL     1       0.919   3.437  19.596  0.00  0.00    +0.000 A 
ATOM     11  C   UNL     1       1.063   2.345  18.744  0.00  0.00    +0.000 A 
ATOM     12  C   UNL     1       2.263   2.154  18.068  0.00  0.00    +0.000 A 
ATOM     13  C   UNL     1       3.325   3.041  18.267  0.00  0.00    +0.000 A 
ATOM     14  C   UNL     1       3.215   4.140  19.141  0.00  0.00    +0.000 A 
ENDBRANCH   1  14
BRANCH   4  15
ATOM     15  C   UNL     1       6.564   4.635  15.022  0.00  0.00    +0.000 A 
ATOM     16  C   UNL     1       7.553   5.244  14.249  0.00  0.00    +0.000 A 
ATOM     17  C   UNL     1       7.616   4.947  12.898  0.00  0.00    +0.000 A 
ATOM     18  N   UNL     1       6.767   4.100  12.278  0.00  0.00    +0.000 NA
ATOM     19  C   UNL     1       5.808   3.536  13.040  0.00  0.00    +0.000 A 
ATOM     20  C   UNL     1       5.667   3.765  14.399  0.00  0.00    +0.000 A 
ENDBRANCH   4  15
TORSDOF 2
ENDMDL
MODEL 9
REMARK VINA RESULT:      -6.8      3.255      6.437
REMARK  Name = 
REMARK  2 active torsions:
REMARK  status: ('A' for Active; 'I' for Inactive)
REMARK    1  A    between atoms: C_7  and  N_8
REMARK    2  A    between atoms: C_11  and  C_12
REMARK                            x       y       z     vdW  Elec       q    Type
REMARK                         _______ _______ _______ _____ _____    ______ ____
ROOT
ATOM      1  N   UNL     1       4.369   4.951  19.305  0.00  0.00    +0.000 N 
ATOM      2  C   UNL     1       5.333   5.117  18.372  0.00  0.00    +0.000 A 
ATOM      3  N   UNL     1       5.175   5.009  17.072  0.00  0.00    +0.000 NA
ATOM      4  C   UNL     1       6.398   5.039  16.428  0.00  0.00    +0.000 A 
ATOM      5  C   UNL     1       7.471   5.347  17.239  0.00  0.00    +0.000 A 
ATOM      6  S   UNL     1       6.937   5.535  18.858  0.00  0.00    +0.000 S 
ATOM      7  H   UNL     1       4.632   5.106  20.272  0.00  0.00    +0.000 HD
ENDROOT
BRANCH   1  14
ATOM      8 CL   UNL     1       1.578   5.793  20.688  0.00  0.00    +0.000 Cl
ATOM      9  C   UNL     1       1.971   4.357  19.799  0.00  0.00    +0.000 A 
ATOM     10  C   UNL     1       0.914   3.453  19.616  0.00  0.00    +0.000 A 
ATOM     11  C   UNL     1       1.063   2.346  18.786  0.00  0.00    +0.000 A 
ATOM     12  C   UNL     1       2.269   2.138  18.127  0.00  0.00    +0.000 A 
ATOM     13  C   UNL     1       3.334   3.024  18.322  0.00  0.00    +0.000 A 
ATOM     14  C   UNL     1       3.218   4.139  19.175  0.00  0.00    +0.000 A 
ENDBRANCH   1  14
BRANCH   4  15
ATOM     15  C   UNL     1       6.490   4.736  15.007  0.00  0.00    +0.000 A 
ATOM     16  C   UNL     1       5.583   3.847  14.432  0.00  0.00    +0.000 A 
ATOM     17  C   UNL     1       5.720   3.535  13.090  0.00  0.00    +0.000 A 
ATOM     18  N   UNL     1       6.690   4.040  12.300  0.00  0.00    +0.000 NA
ATOM     19  C   UNL     1       7.568   4.884  12.880  0.00  0.00    +0.000 A 
ATOM     20  C   UNL     1       7.511   5.262  14.211  0.00  0.00    +0.000 A 
ENDBRANCH   4  15
TORSDOF 2
ENDMDL
