MODEL 1
REMARK VINA RESULT:      -6.6      0.000      0.000
REMARK  Name = 
REMARK  8 active torsions:
REMARK  status: ('A' for Active; 'I' for Inactive)
REMARK    1  A    between atoms: C_1  and  C_2
REMARK    2  A    between atoms: C_5  and  C_6
REMARK    3  A    between atoms: C_6  and  C_7
REMARK    4  A    between atoms: N_9  and  C_10
REMARK    5  A    between atoms: C_10  and  C_11
REMARK    6  A    between atoms: C_11  and  C_12
REMARK    7  A    between atoms: C_11  and  C_13
REMARK    8  A    between atoms: C_11  and  C_14
REMARK                            x       y       z     vdW  Elec       q    Type
REMARK                         _______ _______ _______ _____ _____    ______ ____
ROOT
ATOM      1  C   UNL     1       3.686   5.567  17.374  0.00  0.00    +0.000 C 
ATOM      2  O   UNL     1       4.024   4.538  16.788  0.00  0.00    +0.000 OA
ATOM      3  N   UNL     1       4.563   6.610  17.607  0.00  0.00    +0.000 N 
ATOM      4  H   UNL     1       4.196   7.480  17.977  0.00  0.00    +0.000 HD
ENDROOT
BRANCH   1   5
ATOM      5  C   UNL     1       2.278   5.769  17.908  0.00  0.00    +0.000 C 
BRANCH   5  10
ATOM      6  C   UNL     1       1.558   2.424  22.015  0.00  0.00    +0.000 C 
ATOM      7  C   UNL     1       1.551   3.058  20.665  0.00  0.00    +0.000 A 
ATOM      8  C   UNL     1       1.040   2.557  19.488  0.00  0.00    +0.000 A 
ATOM      9  C   UNL     1       1.224   3.452  18.396  0.00  0.00    +0.000 A 
ATOM     10  C   UNL     1       1.872   4.613  18.770  0.00  0.00    +0.000 A 
ATOM     11  S   UNL     1       2.246   4.605  20.443  0.00  0.00    +0.000 S 
ENDBRANCH   5  10
ENDBRANCH   1   5
BRANCH   3  12
ATOM     12  C   UNL     1       5.943   6.525  17.151  0.00  0.00    +0.000 C 
BRANCH  12  13
ATOM     13  C   UNL     1       6.934   5.871  18.135  0.00  0.00    +0.000 C 
ATOM     14  C   UNL     1       8.072   6.835  18.507  0.00  0.00    +0.000 C 
ATOM     15  C   UNL     1       6.203   5.427  19.417  0.00  0.00    +0.000 C 
BRANCH  13  16
ATOM     16  C   UNL     1       7.536   4.619  17.470  0.00  0.00    +0.000 C 
ATOM     17  N   UNL     1       6.903   4.130  16.365  0.00  0.00    +0.000 N 
ATOM     18  O   UNL     1       8.549   4.052  17.872  0.00  0.00    +0.000 OA
ATOM     19  H   UNL     1       6.065   4.523  15.962  0.00  0.00    +0.000 HD
ATOM     20  H   UNL     1       7.307   3.309  15.930  0.00  0.00    +0.000 HD
ENDBRANCH  13  16
ENDBRANCH  12  13
ENDBRANCH   3  12
TORSDOF 5
ENDMDL
MODEL 2
REMARK VINA RESULT:      -6.4      2.324      3.356
REMARK  Name = 
REMARK  8 active torsions:
REMARK  status: ('A' for Active; 'I' for Inactive)
REMARK    1  A    between atoms: C_1  and  C_2
REMARK    2  A    between atoms: C_5  and  C_6
REMARK    3  A    between atoms: C_6  and  C_7
REMARK    4  A    between atoms: N_9  and  C_10
REMARK    5  A    between atoms: C_10  and  C_11
REMARK    6  A    between atoms: C_11  and  C_12
REMARK    7  A    between atoms: C_11  and  C_13
REMARK    8  A    between atoms: C_11  and  C_14
REMARK                            x       y       z     vdW  Elec       q    Type
REMARK                         _______ _______ _______ _____ _____    ______ ____
ROOT
ATOM      1  C   UNL     1       4.201   3.768  18.130  0.00  0.00    +0.000 C 
ATOM      2  O   UNL     1       5.193   3.650  18.849  0.00  0.00    +0.000 OA
ATOM      3  N   UNL     1       4.284   3.788  16.750  0.00  0.00    +0.000 N 
ATOM      4  H   UNL     1       3.425   3.757  16.211  0.00  0.00    +0.000 HD
ENDROOT
BRANCH   1   5
ATOM      5  C   UNL     1       2.801   3.923  18.700  0.00  0.00    +0.000 C 
BRANCH   5  10
ATOM      6  C   UNL     1       1.300   8.410  21.188  0.00  0.00    +0.000 C 
ATOM      7  C   UNL     1       1.824   7.430  20.194  0.00  0.00    +0.000 A 
ATOM      8  C   UNL     1       2.313   7.672  18.929  0.00  0.00    +0.000 A 
ATOM      9  C   UNL     1       2.721   6.478  18.271  0.00  0.00    +0.000 A 
ATOM     10  C   UNL     1       2.532   5.355  19.052  0.00  0.00    +0.000 A 
ATOM     11  S   UNL     1       1.866   5.763  20.577  0.00  0.00    +0.000 S 
ENDBRANCH   5  10
ENDBRANCH   1   5
BRANCH   3  12
ATOM     12  C   UNL     1       5.574   3.658  16.089  0.00  0.00    +0.000 C 
BRANCH  12  13
ATOM     13  C   UNL     1       6.212   4.975  15.602  0.00  0.00    +0.000 C 
ATOM     14  C   UNL     1       6.887   4.796  14.233  0.00  0.00    +0.000 C 
ATOM     15  C   UNL     1       5.145   6.083  15.503  0.00  0.00    +0.000 C 
BRANCH  13  16
ATOM     16  C   UNL     1       7.270   5.421  16.628  0.00  0.00    +0.000 C 
ATOM     17  N   UNL     1       7.803   4.460  17.437  0.00  0.00    +0.000 N 
ATOM     18  O   UNL     1       7.662   6.579  16.747  0.00  0.00    +0.000 OA
ATOM     19  H   UNL     1       7.544   3.484  17.418  0.00  0.00    +0.000 HD
ATOM     20  H   UNL     1       8.502   4.760  18.107  0.00  0.00    +0.000 HD
ENDBRANCH  13  16
ENDBRANCH  12  13
ENDBRANCH   3  12
TORSDOF 5
ENDMDL
MODEL 3
REMARK VINA RESULT:      -6.4      2.215      3.019
REMARK  Name = 
REMARK  8 active torsions:
REMARK  status: ('A' for Active; 'I' for Inactive)
REMARK    1  A    between atoms: C_1  and  C_2
REMARK    2  A    between atoms: C_5  and  C_6
REMARK    3  A    between atoms: C_6  and  C_7
REMARK    4  A    between atoms: N_9  and  C_10
REMARK    5  A    between atoms: C_10  and  C_11
REMARK    6  A    between atoms: C_11  and  C_12
REMARK    7  A    between atoms: C_11  and  C_13
REMARK    8  A    between atoms: C_11  and  C_14
REMARK                            x       y       z     vdW  Elec       q    Type
REMARK                         _______ _______ _______ _____ _____    ______ ____
ROOT
ATOM      1  C   UNL     1       4.043   3.276  17.489  0.00  0.00    +0.000 C 
ATOM      2  O   UNL     1       3.083   3.394  16.726  0.00  0.00    +0.000 OA
ATOM      3  N   UNL     1       5.352   3.365  17.053  0.00  0.00    +0.000 N 
ATOM      4  H   UNL     1       6.093   3.390  17.744  0.00  0.00    +0.000 HD
ENDROOT
BRANCH   1   5
ATOM      5  C   UNL     1       3.868   3.004  18.973  0.00  0.00    +0.000 C 
BRANCH   5  10
ATOM      6  C   UNL     1       1.587   7.483  20.793  0.00  0.00    +0.000 C 
ATOM      7  C   UNL     1       1.873   6.064  20.438  0.00  0.00    +0.000 A 
ATOM      8  C   UNL     1       1.113   4.945  20.702  0.00  0.00    +0.000 A 
ATOM      9  C   UNL     1       1.717   3.754  20.209  0.00  0.00    +0.000 A 
ATOM     10  C   UNL     1       2.923   3.995  19.582  0.00  0.00    +0.000 A 
ATOM     11  S   UNL     1       3.307   5.665  19.594  0.00  0.00    +0.000 S 
ENDBRANCH   5  10
ENDBRANCH   1   5
BRANCH   3  12
ATOM     12  C   UNL     1       5.643   3.613  15.649  0.00  0.00    +0.000 C 
BRANCH  12  13
ATOM     13  C   UNL     1       6.319   4.964  15.335  0.00  0.00    +0.000 C 
ATOM     14  C   UNL     1       7.048   4.923  13.982  0.00  0.00    +0.000 C 
ATOM     15  C   UNL     1       5.274   6.096  15.317  0.00  0.00    +0.000 C 
BRANCH  13  16
ATOM     16  C   UNL     1       7.341   5.274  16.445  0.00  0.00    +0.000 C 
ATOM     17  N   UNL     1       7.533   6.584  16.772  0.00  0.00    +0.000 N 
ATOM     18  O   UNL     1       7.976   4.413  17.049  0.00  0.00    +0.000 OA
ATOM     19  H   UNL     1       7.063   7.362  16.332  0.00  0.00    +0.000 HD
ATOM     20  H   UNL     1       8.204   6.780  17.507  0.00  0.00    +0.000 HD
ENDBRANCH  13  16
ENDBRANCH  12  13
ENDBRANCH   3  12
TORSDOF 5
ENDMDL
MODEL 4
REMARK VINA RESULT:      -6.3      2.605      3.995
REMARK  Name = 
REMARK  8 active torsions:
REMARK  status: ('A' for Active; 'I' for Inactive)
REMARK    1  A    between atoms: C_1  and  C_2
REMARK    2  A    between atoms: C_5  and  C_6
REMARK    3  A    between atoms: C_6  and  C_7
REMARK    4  A    between atoms: N_9  and  C_10
REMARK    5  A    between atoms: C_10  and  C_11
REMARK    6  A    between atoms: C_11  and  C_12
REMARK    7  A    between atoms: C_11  and  C_13
REMARK    8  A    between atoms: C_11  and  C_14
REMARK                            x       y       z     vdW  Elec       q    Type
REMARK                         _______ _______ _______ _____ _____    ______ ____
ROOT
ATOM      1  C   UNL     1       3.270   4.838  18.332  0.00  0.00    +0.000 C 
ATOM      2  O   UNL     1       2.375   4.286  17.691  0.00  0.00    +0.000 OA
ATOM      3  N   UNL     1       4.600   4.762  17.965  0.00  0.00    +0.000 N 
ATOM      4  H   UNL     1       5.273   5.342  18.454  0.00  0.00    +0.000 HD
ENDROOT
BRANCH   1   5
ATOM      5  C   UNL     1       2.987   5.635  19.595  0.00  0.00    +0.000 C 
BRANCH   5  10
ATOM      6  C   UNL     1       0.540  10.385  19.736  0.00  0.00    +0.000 C 
ATOM      7  C   UNL     1       1.315   9.185  19.309  0.00  0.00    +0.000 A 
ATOM      8  C   UNL     1       1.891   8.930  18.084  0.00  0.00    +0.000 A 
ATOM      9  C   UNL     1       2.550   7.669  18.050  0.00  0.00    +0.000 A 
ATOM     10  C   UNL     1       2.460   6.994  19.251  0.00  0.00    +0.000 A 
ATOM     11  S   UNL     1       1.579   7.901  20.409  0.00  0.00    +0.000 S 
ENDBRANCH   5  10
ENDBRANCH   1   5
BRANCH   3  12
ATOM     12  C   UNL     1       4.994   4.017  16.778  0.00  0.00    +0.000 C 
BRANCH  12  13
ATOM     13  C   UNL     1       5.884   4.778  15.775  0.00  0.00    +0.000 C 
ATOM     14  C   UNL     1       6.197   3.918  14.540  0.00  0.00    +0.000 C 
ATOM     15  C   UNL     1       5.194   6.081  15.327  0.00  0.00    +0.000 C 
BRANCH  13  16
ATOM     16  C   UNL     1       7.205   5.152  16.473  0.00  0.00    +0.000 C 
ATOM     17  N   UNL     1       7.562   6.469  16.475  0.00  0.00    +0.000 N 
ATOM     18  O   UNL     1       7.938   4.339  17.028  0.00  0.00    +0.000 OA
ATOM     19  H   UNL     1       7.030   7.210  16.043  0.00  0.00    +0.000 HD
ATOM     20  H   UNL     1       8.431   6.709  16.940  0.00  0.00    +0.000 HD
ENDBRANCH  13  16
ENDBRANCH  12  13
ENDBRANCH   3  12
TORSDOF 5
ENDMDL
MODEL 5
REMARK VINA RESULT:      -6.2      2.984      5.820
REMARK  Name = 
REMARK  8 active torsions:
REMARK  status: ('A' for Active; 'I' for Inactive)
REMARK    1  A    between atoms: C_1  and  C_2
REMARK    2  A    between atoms: C_5  and  C_6
REMARK    3  A    between atoms: C_6  and  C_7
REMARK    4  A    between atoms: N_9  and  C_10
REMARK    5  A    between atoms: C_10  and  C_11
REMARK    6  A    between atoms: C_11  and  C_12
REMARK    7  A    between atoms: C_11  and  C_13
REMARK    8  A    between atoms: C_11  and  C_14
REMARK                            x       y       z     vdW  Elec       q    Type
REMARK                         _______ _______ _______ _____ _____    ______ ____
ROOT
ATOM      1  C   UNL     1       5.409   5.071  19.088  0.00  0.00    +0.000 C 
ATOM      2  O   UNL     1       5.834   4.028  19.585  0.00  0.00    +0.000 OA
ATOM      3  N   UNL     1       4.112   5.509  19.282  0.00  0.00    +0.000 N 
ATOM      4  H   UNL     1       3.859   6.436  18.958  0.00  0.00    +0.000 HD
ENDROOT
BRANCH   1   5
ATOM      5  C   UNL     1       6.270   5.956  18.203  0.00  0.00    +0.000 C 
BRANCH   5  10
ATOM      6  C   UNL     1       6.483   3.839  13.299  0.00  0.00    +0.000 C 
ATOM      7  C   UNL     1       6.140   4.676  14.484  0.00  0.00    +0.000 A 
ATOM      8  C   UNL     1       5.266   5.739  14.557  0.00  0.00    +0.000 A 
ATOM      9  C   UNL     1       5.203   6.296  15.865  0.00  0.00    +0.000 A 
ATOM     10  C   UNL     1       6.031   5.644  16.757  0.00  0.00    +0.000 A 
ATOM     11  S   UNL     1       6.874   4.359  15.997  0.00  0.00    +0.000 S 
ENDBRANCH   5  10
ENDBRANCH   1   5
BRANCH   3  12
ATOM     12  C   UNL     1       3.191   4.738  20.104  0.00  0.00    +0.000 C 
BRANCH  12  13
ATOM     13  C   UNL     1       2.131   3.922  19.335  0.00  0.00    +0.000 C 
ATOM     14  C   UNL     1       0.824   3.810  20.135  0.00  0.00    +0.000 C 
ATOM     15  C   UNL     1       1.839   4.575  17.969  0.00  0.00    +0.000 C 
BRANCH  13  16
ATOM     16  C   UNL     1       2.686   2.508  19.080  0.00  0.00    +0.000 C 
ATOM     17  N   UNL     1       2.217   1.838  17.989  0.00  0.00    +0.000 N 
ATOM     18  O   UNL     1       3.524   1.965  19.794  0.00  0.00    +0.000 OA
ATOM     19  H   UNL     1       1.526   2.197  17.346  0.00  0.00    +0.000 HD
ATOM     20  H   UNL     1       2.589   0.909  17.825  0.00  0.00    +0.000 HD
ENDBRANCH  13  16
ENDBRANCH  12  13
ENDBRANCH   3  12
TORSDOF 5
ENDMDL
MODEL 6
REMARK VINA RESULT:      -6.1      1.560      1.655
REMARK  Name = 
REMARK  8 active torsions:
REMARK  status: ('A' for Active; 'I' for Inactive)
REMARK    1  A    between atoms: C_1  and  C_2
REMARK    2  A    between atoms: C_5  and  C_6
REMARK    3  A    between atoms: C_6  and  C_7
REMARK    4  A    between atoms: N_9  and  C_10
REMARK    5  A    between atoms: C_10  and  C_11
REMARK    6  A    between atoms: C_11  and  C_12
REMARK    7  A    between atoms: C_11  and  C_13
REMARK    8  A    between atoms: C_11  and  C_14
REMARK                            x       y       z     vdW  Elec       q    Type
REMARK                         _______ _______ _______ _____ _____    ______ ____
ROOT
ATOM      1  C   UNL     1       4.433   4.198  16.856  0.00  0.00    +0.000 C 
ATOM      2  O   UNL     1       4.640   4.503  15.681  0.00  0.00    +0.000 OA
ATOM      3  N   UNL     1       4.766   5.032  17.907  0.00  0.00    +0.000 N 
ATOM      4  H   UNL     1       4.454   4.785  18.840  0.00  0.00    +0.000 HD
ENDROOT
BRANCH   1   5
ATOM      5  C   UNL     1       3.810   2.870  17.249  0.00  0.00    +0.000 C 
BRANCH   5  10
ATOM      6  C   UNL     1       1.382   2.767  22.011  0.00  0.00    +0.000 C 
ATOM      7  C   UNL     1       1.710   2.997  20.575  0.00  0.00    +0.000 A 
ATOM      8  C   UNL     1       0.935   3.597  19.606  0.00  0.00    +0.000 A 
ATOM      9  C   UNL     1       1.586   3.632  18.341  0.00  0.00    +0.000 A 
ATOM     10  C   UNL     1       2.841   3.057  18.377  0.00  0.00    +0.000 A 
ATOM     11  S   UNL     1       3.217   2.485  19.948  0.00  0.00    +0.000 S 
ENDBRANCH   5  10
ENDBRANCH   1   5
BRANCH   3  12
ATOM     12  C   UNL     1       5.379   6.327  17.653  0.00  0.00    +0.000 C 
BRANCH  12  13
ATOM     13  C   UNL     1       6.919   6.367  17.736  0.00  0.00    +0.000 C 
ATOM     14  C   UNL     1       7.449   7.802  17.596  0.00  0.00    +0.000 C 
ATOM     15  C   UNL     1       7.398   5.775  19.076  0.00  0.00    +0.000 C 
BRANCH  13  16
ATOM     16  C   UNL     1       7.497   5.506  16.598  0.00  0.00    +0.000 C 
ATOM     17  N   UNL     1       7.867   4.229  16.904  0.00  0.00    +0.000 N 
ATOM     18  O   UNL     1       7.629   5.901  15.443  0.00  0.00    +0.000 OA
ATOM     19  H   UNL     1       7.801   3.815  17.823  0.00  0.00    +0.000 HD
ATOM     20  H   UNL     1       8.243   3.666  16.149  0.00  0.00    +0.000 HD
ENDBRANCH  13  16
ENDBRANCH  12  13
ENDBRANCH   3  12
TORSDOF 5
ENDMDL
MODEL 7
REMARK VINA RESULT:      -6.1      1.462      1.977
REMARK  Name = 
REMARK  8 active torsions:
REMARK  status: ('A' for Active; 'I' for Inactive)
REMARK    1  A    between atoms: C_1  and  C_2
REMARK    2  A    between atoms: C_5  and  C_6
REMARK    3  A    between atoms: C_6  and  C_7
REMARK    4  A    between atoms: N_9  and  C_10
REMARK    5  A    between atoms: C_10  and  C_11
REMARK    6  A    between atoms: C_11  and  C_12
REMARK    7  A    between atoms: C_11  and  C_13
REMARK    8  A    between atoms: C_11  and  C_14
REMARK                            x       y       z     vdW  Elec       q    Type
REMARK                         _______ _______ _______ _____ _____    ______ ____
ROOT
ATOM      1  C   UNL     1       3.841   6.294  18.031  0.00  0.00    +0.000 C 
ATOM      2  O   UNL     1       4.643   6.264  18.965  0.00  0.00    +0.000 OA
ATOM      3  N   UNL     1       4.244   6.382  16.712  0.00  0.00    +0.000 N 
ATOM      4  H   UNL     1       3.547   6.272  15.983  0.00  0.00    +0.000 HD
ENDROOT
BRANCH   1   5
ATOM      5  C   UNL     1       2.339   6.257  18.253  0.00  0.00    +0.000 C 
BRANCH   5  10
ATOM      6  C   UNL     1       1.331   2.444  21.861  0.00  0.00    +0.000 C 
ATOM      7  C   UNL     1       1.486   3.209  20.591  0.00  0.00    +0.000 A 
ATOM      8  C   UNL     1       1.266   2.779  19.301  0.00  0.00    +0.000 A 
ATOM      9  C   UNL     1       1.526   3.797  18.341  0.00  0.00    +0.000 A 
ATOM     10  C   UNL     1       1.938   4.979  18.925  0.00  0.00    +0.000 A 
ATOM     11  S   UNL     1       2.001   4.840  20.632  0.00  0.00    +0.000 S 
ENDBRANCH   5  10
ENDBRANCH   1   5
BRANCH   3  12
ATOM     12  C   UNL     1       5.659   6.435  16.377  0.00  0.00    +0.000 C 
BRANCH  12  13
ATOM     13  C   UNL     1       6.360   5.069  16.218  0.00  0.00    +0.000 C 
ATOM     14  C   UNL     1       5.363   3.909  16.366  0.00  0.00    +0.000 C 
ATOM     15  C   UNL     1       7.048   4.977  14.842  0.00  0.00    +0.000 C 
BRANCH  13  16
ATOM     16  C   UNL     1       7.444   4.941  17.304  0.00  0.00    +0.000 C 
ATOM     17  N   UNL     1       7.465   5.890  18.284  0.00  0.00    +0.000 N 
ATOM     18  O   UNL     1       8.272   4.035  17.339  0.00  0.00    +0.000 OA
ATOM     19  H   UNL     1       6.829   6.673  18.340  0.00  0.00    +0.000 HD
ATOM     20  H   UNL     1       8.177   5.797  18.999  0.00  0.00    +0.000 HD
ENDBRANCH  13  16
ENDBRANCH  12  13
ENDBRANCH   3  12
TORSDOF 5
ENDMDL
MODEL 8
REMARK VINA RESULT:      -6.1      1.788      2.235
REMARK  Name = 
REMARK  8 active torsions:
REMARK  status: ('A' for Active; 'I' for Inactive)
REMARK    1  A    between atoms: C_1  and  C_2
REMARK    2  A    between atoms: C_5  and  C_6
REMARK    3  A    between atoms: C_6  and  C_7
REMARK    4  A    between atoms: N_9  and  C_10
REMARK    5  A    between atoms: C_10  and  C_11
REMARK    6  A    between atoms: C_11  and  C_12
REMARK    7  A    between atoms: C_11  and  C_13
REMARK    8  A    between atoms: C_11  and  C_14
REMARK                            x       y       z     vdW  Elec       q    Type
REMARK                         _______ _______ _______ _____ _____    ______ ____
ROOT
ATOM      1  C   UNL     1       4.473   3.846  16.614  0.00  0.00    +0.000 C 
ATOM      2  O   UNL     1       4.840   4.373  15.564  0.00  0.00    +0.000 OA
ATOM      3  N   UNL     1       5.293   3.754  17.723  0.00  0.00    +0.000 N 
ATOM      4  H   UNL     1       4.894   3.428  18.597  0.00  0.00    +0.000 HD
ENDROOT
BRANCH   1   5
ATOM      5  C   UNL     1       3.092   3.233  16.772  0.00  0.00    +0.000 C 
BRANCH   5  10
ATOM      6  C   UNL     1       1.407   2.687  21.816  0.00  0.00    +0.000 C 
ATOM      7  C   UNL     1       1.764   3.235  20.477  0.00  0.00    +0.000 A 
ATOM      8  C   UNL     1       1.600   4.521  20.007  0.00  0.00    +0.000 A 
ATOM      9  C   UNL     1       2.058   4.667  18.667  0.00  0.00    +0.000 A 
ATOM     10  C   UNL     1       2.558   3.489  18.149  0.00  0.00    +0.000 A 
ATOM     11  S   UNL     1       2.471   2.218  19.296  0.00  0.00    +0.000 S 
ENDBRANCH   5  10
ENDBRANCH   1   5
BRANCH   3  12
ATOM     12  C   UNL     1       6.643   4.298  17.687  0.00  0.00    +0.000 C 
BRANCH  12  13
ATOM     13  C   UNL     1       6.797   5.742  18.207  0.00  0.00    +0.000 C 
ATOM     14  C   UNL     1       5.458   6.297  18.718  0.00  0.00    +0.000 C 
ATOM     15  C   UNL     1       7.837   5.794  19.343  0.00  0.00    +0.000 C 
BRANCH  13  16
ATOM     16  C   UNL     1       7.301   6.631  17.055  0.00  0.00    +0.000 C 
ATOM     17  N   UNL     1       7.497   7.954  17.323  0.00  0.00    +0.000 N 
ATOM     18  O   UNL     1       7.541   6.214  15.925  0.00  0.00    +0.000 OA
ATOM     19  H   UNL     1       7.325   8.391  18.217  0.00  0.00    +0.000 HD
ATOM     20  H   UNL     1       7.833   8.532  16.562  0.00  0.00    +0.000 HD
ENDBRANCH  13  16
ENDBRANCH  12  13
ENDBRANCH   3  12
TORSDOF 5
ENDMDL
MODEL 9
REMARK VINA RESULT:      -6.1      2.561      6.342
REMARK  Name = 
REMARK  8 active torsions:
REMARK  status: ('A' for Active; 'I' for Inactive)
REMARK    1  A    between atoms: C_1  and  C_2
REMARK    2  A    between atoms: C_5  and  C_6
REMARK    3  A    between atoms: C_6  and  C_7
REMARK    4  A    between atoms: N_9  and  C_10
REMARK    5  A    between atoms: C_10  and  C_11
REMARK    6  A    between atoms: C_11  and  C_12
REMARK    7  A    between atoms: C_11  and  C_13
REMARK    8  A    between atoms: C_11  and  C_14
REMARK                            x       y       z     vdW  Elec       q    Type
REMARK                         _______ _______ _______ _____ _____    ______ ____
ROOT
ATOM      1  C   UNL     1       4.927   3.600  18.499  0.00  0.00    +0.000 C 
ATOM      2  O   UNL     1       5.516   3.544  19.579  0.00  0.00    +0.000 OA
ATOM      3  N   UNL     1       3.674   3.048  18.309  0.00  0.00    +0.000 N 
ATOM      4  H   UNL     1       3.185   3.239  17.440  0.00  0.00    +0.000 HD
ENDROOT
BRANCH   1   5
ATOM      5  C   UNL     1       5.537   4.267  17.278  0.00  0.00    +0.000 C 
BRANCH   5  10
ATOM      6  C   UNL     1       7.980   8.999  17.736  0.00  0.00    +0.000 C 
ATOM      7  C   UNL     1       7.587   7.570  17.890  0.00  0.00    +0.000 A 
ATOM      8  C   UNL     1       8.176   6.599  18.671  0.00  0.00    +0.000 A 
ATOM      9  C   UNL     1       7.520   5.342  18.555  0.00  0.00    +0.000 A 
ATOM     10  C   UNL     1       6.446   5.385  17.689  0.00  0.00    +0.000 A 
ATOM     11  S   UNL     1       6.243   6.954  17.028  0.00  0.00    +0.000 S 
ENDBRANCH   5  10
ENDBRANCH   1   5
BRANCH   3  12
ATOM     12  C   UNL     1       2.993   2.374  19.405  0.00  0.00    +0.000 C 
BRANCH  12  13
ATOM     13  C   UNL     1       1.749   3.095  19.964  0.00  0.00    +0.000 C 
ATOM     14  C   UNL     1       0.500   2.787  19.123  0.00  0.00    +0.000 C 
ATOM     15  C   UNL     1       1.497   2.674  21.425  0.00  0.00    +0.000 C 
BRANCH  13  16
ATOM     16  C   UNL     1       2.007   4.614  19.941  0.00  0.00    +0.000 C 
ATOM     17  N   UNL     1       2.325   5.214  21.124  0.00  0.00    +0.000 N 
ATOM     18  O   UNL     1       1.951   5.300  18.924  0.00  0.00    +0.000 OA
ATOM     19  H   UNL     1       2.391   4.736  22.011  0.00  0.00    +0.000 HD
ATOM     20  H   UNL     1       2.497   6.212  21.100  0.00  0.00    +0.000 HD
ENDBRANCH  13  16
ENDBRANCH  12  13
ENDBRANCH   3  12
TORSDOF 5
ENDMDL
