MODEL 1
REMARK VINA RESULT:      -7.0      0.000      0.000
REMARK  Name = 
REMARK  5 active torsions:
REMARK  status: ('A' for Active; 'I' for Inactive)
REMARK    1  A    between atoms: C_2  and  C_3
REMARK    2  A    between atoms: C_3  and  S_4
REMARK    3  A    between atoms: S_4  and  C_5
REMARK    4  A    between atoms: C_8  and  C_9
REMARK    5  A    between atoms: C_13  and  N_14
REMARK                            x       y       z     vdW  Elec       q    Type
REMARK                         _______ _______ _______ _____ _____    ______ ____
ROOT
ATOM      1  C   UNL     1       6.722   4.743  13.993  0.00  0.00    +0.000 A 
ATOM      2  N   UNL     1       7.681   5.356  14.656  0.00  0.00    +0.000 NA
ATOM      3  N   UNL     1       7.169   5.671  15.896  0.00  0.00    +0.000 NA
ATOM      4  C   UNL     1       5.934   5.212  15.918  0.00  0.00    +0.000 A 
ATOM      5  O   UNL     1       5.570   4.627  14.730  0.00  0.00    +0.000 OA
ENDROOT
BRANCH   4   6
ATOM      6  C   UNL     1       4.983   5.174  17.023  0.00  0.00    +0.000 A 
ATOM      7  C   UNL     1       4.216   6.315  17.303  0.00  0.00    +0.000 A 
ATOM      8  C   UNL     1       3.393   6.362  18.425  0.00  0.00    +0.000 A 
ATOM      9  C   UNL     1       3.316   5.259  19.275  0.00  0.00    +0.000 A 
ATOM     10  C   UNL     1       4.028   4.083  19.003  0.00  0.00    +0.000 A 
ATOM     11  C   UNL     1       4.864   4.058  17.870  0.00  0.00    +0.000 A 
BRANCH  10  12
ATOM     12  N   UNL     1       3.934   3.048  19.954  0.00  0.00    +0.000 NA
ATOM     13  C   UNL     1       2.925   2.973  20.554  0.00  0.00    +0.000 C 
ATOM     14  S   UNL     1       1.574   2.807  21.381  0.00  0.00    +0.000 S 
ENDBRANCH  10  12
ENDBRANCH   4   6
BRANCH   1  15
ATOM     15  S   UNL     1       6.931   4.103  12.393  0.00  0.00    +0.000 S 
BRANCH  15  16
ATOM     16  C   UNL     1       5.520   2.978  12.293  0.00  0.00    +0.000 C 
BRANCH  16  18
ATOM     17  C   UNL     1       3.544   3.016  10.738  0.00  0.00    +0.000 C 
ATOM     18  C   UNL     1       4.402   3.650  11.551  0.00  0.00    +0.000 C 
ENDBRANCH  16  18
ENDBRANCH  15  16
ENDBRANCH   1  15
TORSDOF 5
ENDMDL
MODEL 2
REMARK VINA RESULT:      -6.8      1.348      1.396
REMARK  Name = 
REMARK  5 active torsions:
REMARK  status: ('A' for Active; 'I' for Inactive)
REMARK    1  A    between atoms: C_2  and  C_3
REMARK    2  A    between atoms: C_3  and  S_4
REMARK    3  A    between atoms: S_4  and  C_5
REMARK    4  A    between atoms: C_8  and  C_9
REMARK    5  A    between atoms: C_13  and  N_14
REMARK                            x       y       z     vdW  Elec       q    Type
REMARK                         _______ _______ _______ _____ _____    ______ ____
ROOT
ATOM      1  C   UNL     1       6.756   4.222  13.376  0.00  0.00    +0.000 A 
ATOM      2  N   UNL     1       7.462   5.290  13.686  0.00  0.00    +0.000 NA
ATOM      3  N   UNL     1       7.129   5.625  14.980  0.00  0.00    +0.000 NA
ATOM      4  C   UNL     1       6.255   4.728  15.386  0.00  0.00    +0.000 A 
ATOM      5  O   UNL     1       5.950   3.813  14.409  0.00  0.00    +0.000 OA
ENDROOT
BRANCH   4   6
ATOM      6  C   UNL     1       5.666   4.544  16.708  0.00  0.00    +0.000 A 
ATOM      7  C   UNL     1       6.315   5.091  17.826  0.00  0.00    +0.000 A 
ATOM      8  C   UNL     1       5.855   4.830  19.114  0.00  0.00    +0.000 A 
ATOM      9  C   UNL     1       4.729   4.027  19.299  0.00  0.00    +0.000 A 
ATOM     10  C   UNL     1       4.026   3.503  18.207  0.00  0.00    +0.000 A 
ATOM     11  C   UNL     1       4.511   3.768  16.912  0.00  0.00    +0.000 A 
BRANCH  10  12
ATOM     12  N   UNL     1       2.940   2.653  18.499  0.00  0.00    +0.000 NA
ATOM     13  C   UNL     1       2.135   3.065  19.250  0.00  0.00    +0.000 C 
ATOM     14  S   UNL     1       1.000   3.578  20.243  0.00  0.00    +0.000 S 
ENDBRANCH  10  12
ENDBRANCH   4   6
BRANCH   1  15
ATOM     15  S   UNL     1       6.890   3.401  11.853  0.00  0.00    +0.000 S 
BRANCH  15  16
ATOM     16  C   UNL     1       5.308   2.529  11.799  0.00  0.00    +0.000 C 
BRANCH  16  18
ATOM     17  C   UNL     1       3.389   3.377  10.412  0.00  0.00    +0.000 C 
ATOM     18  C   UNL     1       4.218   3.503  11.459  0.00  0.00    +0.000 C 
ENDBRANCH  16  18
ENDBRANCH  15  16
ENDBRANCH   1  15
TORSDOF 5
ENDMDL
MODEL 3
REMARK VINA RESULT:      -6.7      1.347      1.708
REMARK  Name = 
REMARK  5 active torsions:
REMARK  status: ('A' for Active; 'I' for Inactive)
REMARK    1  A    between atoms: C_2  and  C_3
REMARK    2  A    between atoms: C_3  and  S_4
REMARK    3  A    between atoms: S_4  and  C_5
REMARK    4  A    between atoms: C_8  and  C_9
REMARK    5  A    between atoms: C_13  and  N_14
REMARK                            x       y       z     vdW  Elec       q    Type
REMARK                         _______ _______ _______ _____ _____    ______ ____
ROOT
ATOM      1  C   UNL     1       6.366   4.246  13.544  0.00  0.00    +0.000 A 
ATOM      2  N   UNL     1       7.421   5.017  13.708  0.00  0.00    +0.000 NA
ATOM      3  N   UNL     1       7.312   5.578  14.962  0.00  0.00    +0.000 NA
ATOM      4  C   UNL     1       6.205   5.098  15.492  0.00  0.00    +0.000 A 
ATOM      5  O   UNL     1       5.536   4.258  14.637  0.00  0.00    +0.000 OA
ENDROOT
BRANCH   4   6
ATOM      6  C   UNL     1       5.676   5.272  16.839  0.00  0.00    +0.000 A 
ATOM      7  C   UNL     1       6.538   5.120  17.936  0.00  0.00    +0.000 A 
ATOM      8  C   UNL     1       6.046   5.152  19.239  0.00  0.00    +0.000 A 
ATOM      9  C   UNL     1       4.683   5.351  19.460  0.00  0.00    +0.000 A 
ATOM     10  C   UNL     1       3.798   5.556  18.393  0.00  0.00    +0.000 A 
ATOM     11  C   UNL     1       4.312   5.509  17.083  0.00  0.00    +0.000 A 
BRANCH  10  12
ATOM     12  N   UNL     1       2.432   5.684  18.716  0.00  0.00    +0.000 NA
ATOM     13  C   UNL     1       1.990   4.891  19.464  0.00  0.00    +0.000 C 
ATOM     14  S   UNL     1       1.341   3.860  20.489  0.00  0.00    +0.000 S 
ENDBRANCH  10  12
ENDBRANCH   4   6
BRANCH   1  15
ATOM     15  S   UNL     1       6.105   3.280  12.125  0.00  0.00    +0.000 S 
BRANCH  15  16
ATOM     16  C   UNL     1       4.306   3.367  11.984  0.00  0.00    +0.000 C 
BRANCH  16  18
ATOM     17  C   UNL     1       3.105   4.085   9.894  0.00  0.00    +0.000 C 
ATOM     18  C   UNL     1       3.915   3.234  10.541  0.00  0.00    +0.000 C 
ENDBRANCH  16  18
ENDBRANCH  15  16
ENDBRANCH   1  15
TORSDOF 5
ENDMDL
MODEL 4
REMARK VINA RESULT:      -6.7      2.193      2.667
REMARK  Name = 
REMARK  5 active torsions:
REMARK  status: ('A' for Active; 'I' for Inactive)
REMARK    1  A    between atoms: C_2  and  C_3
REMARK    2  A    between atoms: C_3  and  S_4
REMARK    3  A    between atoms: S_4  and  C_5
REMARK    4  A    between atoms: C_8  and  C_9
REMARK    5  A    between atoms: C_13  and  N_14
REMARK                            x       y       z     vdW  Elec       q    Type
REMARK                         _______ _______ _______ _____ _____    ______ ____
ROOT
ATOM      1  C   UNL     1       6.740   4.922  13.926  0.00  0.00    +0.000 A 
ATOM      2  N   UNL     1       7.622   5.459  14.743  0.00  0.00    +0.000 NA
ATOM      3  N   UNL     1       6.990   5.626  15.956  0.00  0.00    +0.000 NA
ATOM      4  C   UNL     1       5.767   5.163  15.807  0.00  0.00    +0.000 A 
ATOM      5  O   UNL     1       5.526   4.716  14.531  0.00  0.00    +0.000 OA
ENDROOT
BRANCH   4   6
ATOM      6  C   UNL     1       4.716   4.992  16.805  0.00  0.00    +0.000 A 
ATOM      7  C   UNL     1       4.099   3.740  16.939  0.00  0.00    +0.000 A 
ATOM      8  C   UNL     1       3.008   3.571  17.788  0.00  0.00    +0.000 A 
ATOM      9  C   UNL     1       2.530   4.654  18.526  0.00  0.00    +0.000 A 
ATOM     10  C   UNL     1       3.150   5.908  18.458  0.00  0.00    +0.000 A 
ATOM     11  C   UNL     1       4.245   6.063  17.585  0.00  0.00    +0.000 A 
BRANCH  10  12
ATOM     12  N   UNL     1       2.554   6.953  19.192  0.00  0.00    +0.000 NA
ATOM     13  C   UNL     1       2.318   7.943  18.603  0.00  0.00    +0.000 C 
ATOM     14  S   UNL     1       1.953   9.301  17.854  0.00  0.00    +0.000 S 
ENDBRANCH  10  12
ENDBRANCH   4   6
BRANCH   1  15
ATOM     15  S   UNL     1       7.108   4.473  12.290  0.00  0.00    +0.000 S 
BRANCH  15  16
ATOM     16  C   UNL     1       6.028   3.039  12.083  0.00  0.00    +0.000 C 
BRANCH  16  18
ATOM     17  C   UNL     1       3.860   3.224  10.821  0.00  0.00    +0.000 C 
ATOM     18  C   UNL     1       4.615   3.506  11.893  0.00  0.00    +0.000 C 
ENDBRANCH  16  18
ENDBRANCH  15  16
ENDBRANCH   1  15
TORSDOF 5
ENDMDL
MODEL 5
REMARK VINA RESULT:      -6.6      1.510      1.844
REMARK  Name = 
REMARK  5 active torsions:
REMARK  status: ('A' for Active; 'I' for Inactive)
REMARK    1  A    between atoms: C_2  and  C_3
REMARK    2  A    between atoms: C_3  and  S_4
REMARK    3  A    between atoms: S_4  and  C_5
REMARK    4  A    between atoms: C_8  and  C_9
REMARK    5  A    between atoms: C_13  and  N_14
REMARK                            x       y       z     vdW  Elec       q    Type
REMARK                         _______ _______ _______ _____ _____    ______ ____
ROOT
ATOM      1  C   UNL     1       6.968   4.719  13.826  0.00  0.00    +0.000 A 
ATOM      2  N   UNL     1       7.929   5.486  14.298  0.00  0.00    +0.000 NA
ATOM      3  N   UNL     1       7.543   5.874  15.563  0.00  0.00    +0.000 NA
ATOM      4  C   UNL     1       6.378   5.304  15.790  0.00  0.00    +0.000 A 
ATOM      5  O   UNL     1       5.936   4.568  14.718  0.00  0.00    +0.000 OA
ENDROOT
BRANCH   4   6
ATOM      6  C   UNL     1       5.581   5.286  17.011  0.00  0.00    +0.000 A 
ATOM      7  C   UNL     1       6.234   5.224  18.251  0.00  0.00    +0.000 A 
ATOM      8  C   UNL     1       5.509   5.077  19.432  0.00  0.00    +0.000 A 
ATOM      9  C   UNL     1       4.117   5.004  19.385  0.00  0.00    +0.000 A 
ATOM     10  C   UNL     1       3.425   5.112  18.171  0.00  0.00    +0.000 A 
ATOM     11  C   UNL     1       4.175   5.249  16.987  0.00  0.00    +0.000 A 
BRANCH  10  12
ATOM     12  N   UNL     1       2.025   4.963  18.222  0.00  0.00    +0.000 NA
ATOM     13  C   UNL     1       1.618   3.887  18.466  0.00  0.00    +0.000 C 
ATOM     14  S   UNL     1       1.007   2.457  18.814  0.00  0.00    +0.000 S 
ENDBRANCH  10  12
ENDBRANCH   4   6
BRANCH   1  15
ATOM     15  S   UNL     1       7.045   3.943  12.275  0.00  0.00    +0.000 S 
BRANCH  15  16
ATOM     16  C   UNL     1       5.435   3.124  12.227  0.00  0.00    +0.000 C 
BRANCH  16  18
ATOM     17  C   UNL     1       6.561   1.165  11.122  0.00  0.00    +0.000 C 
ATOM     18  C   UNL     1       5.496   1.967  11.274  0.00  0.00    +0.000 C 
ENDBRANCH  16  18
ENDBRANCH  15  16
ENDBRANCH   1  15
TORSDOF 5
ENDMDL
MODEL 6
REMARK VINA RESULT:      -6.5      1.593      2.249
REMARK  Name = 
REMARK  5 active torsions:
REMARK  status: ('A' for Active; 'I' for Inactive)
REMARK    1  A    between atoms: C_2  and  C_3
REMARK    2  A    between atoms: C_3  and  S_4
REMARK    3  A    between atoms: S_4  and  C_5
REMARK    4  A    between atoms: C_8  and  C_9
REMARK    5  A    between atoms: C_13  and  N_14
REMARK                            x       y       z     vdW  Elec       q    Type
REMARK                         _______ _______ _______ _____ _____    ______ ____
ROOT
ATOM      1  C   UNL     1       6.028   3.666  12.792  0.00  0.00    +0.000 A 
ATOM      2  N   UNL     1       7.081   4.437  12.617  0.00  0.00    +0.000 NA
ATOM      3  N   UNL     1       7.302   5.085  13.813  0.00  0.00    +0.000 NA
ATOM      4  C   UNL     1       6.380   4.653  14.648  0.00  0.00    +0.000 A 
ATOM      5  O   UNL     1       5.517   3.761  14.062  0.00  0.00    +0.000 OA
ENDROOT
BRANCH   4   6
ATOM      6  C   UNL     1       6.225   4.925  16.073  0.00  0.00    +0.000 A 
ATOM      7  C   UNL     1       7.361   4.924  16.896  0.00  0.00    +0.000 A 
ATOM      8  C   UNL     1       7.240   5.052  18.278  0.00  0.00    +0.000 A 
ATOM      9  C   UNL     1       5.978   5.198  18.852  0.00  0.00    +0.000 A 
ATOM     10  C   UNL     1       4.823   5.254  18.060  0.00  0.00    +0.000 A 
ATOM     11  C   UNL     1       4.964   5.111  16.666  0.00  0.00    +0.000 A 
BRANCH  10  12
ATOM     12  N   UNL     1       3.591   5.340  18.738  0.00  0.00    +0.000 NA
ATOM     13  C   UNL     1       3.287   4.415  19.399  0.00  0.00    +0.000 C 
ATOM     14  S   UNL     1       2.833   3.204  20.328  0.00  0.00    +0.000 S 
ENDBRANCH  10  12
ENDBRANCH   4   6
BRANCH   1  15
ATOM     15  S   UNL     1       5.411   2.606  11.563  0.00  0.00    +0.000 S 
BRANCH  15  16
ATOM     16  C   UNL     1       3.752   3.285  11.334  0.00  0.00    +0.000 C 
BRANCH  16  18
ATOM     17  C   UNL     1       2.613   4.485   9.440  0.00  0.00    +0.000 C 
ATOM     18  C   UNL     1       3.563   3.653   9.892  0.00  0.00    +0.000 C 
ENDBRANCH  16  18
ENDBRANCH  15  16
ENDBRANCH   1  15
TORSDOF 5
ENDMDL
MODEL 7
REMARK VINA RESULT:      -6.5      1.304      1.629
REMARK  Name = 
REMARK  5 active torsions:
REMARK  status: ('A' for Active; 'I' for Inactive)
REMARK    1  A    between atoms: C_2  and  C_3
REMARK    2  A    between atoms: C_3  and  S_4
REMARK    3  A    between atoms: S_4  and  C_5
REMARK    4  A    between atoms: C_8  and  C_9
REMARK    5  A    between atoms: C_13  and  N_14
REMARK                            x       y       z     vdW  Elec       q    Type
REMARK                         _______ _______ _______ _____ _____    ______ ____
ROOT
ATOM      1  C   UNL     1       6.023   3.626  12.727  0.00  0.00    +0.000 A 
ATOM      2  N   UNL     1       7.114   4.362  12.795  0.00  0.00    +0.000 NA
ATOM      3  N   UNL     1       7.050   5.059  13.982  0.00  0.00    +0.000 NA
ATOM      4  C   UNL     1       5.932   4.690  14.573  0.00  0.00    +0.000 A 
ATOM      5  O   UNL     1       5.212   3.794  13.822  0.00  0.00    +0.000 OA
ENDROOT
BRANCH   4   6
ATOM      6  C   UNL     1       5.434   5.032  15.900  0.00  0.00    +0.000 A 
ATOM      7  C   UNL     1       5.060   6.357  16.168  0.00  0.00    +0.000 A 
ATOM      8  C   UNL     1       4.702   6.750  17.456  0.00  0.00    +0.000 A 
ATOM      9  C   UNL     1       4.699   5.814  18.490  0.00  0.00    +0.000 A 
ATOM     10  C   UNL     1       5.018   4.470  18.253  0.00  0.00    +0.000 A 
ATOM     11  C   UNL     1       5.389   4.094  16.947  0.00  0.00    +0.000 A 
BRANCH  10  12
ATOM     12  N   UNL     1       5.048   3.617  19.373  0.00  0.00    +0.000 NA
ATOM     13  C   UNL     1       4.008   3.296  19.820  0.00  0.00    +0.000 C 
ATOM     14  S   UNL     1       2.631   2.808  20.454  0.00  0.00    +0.000 S 
ENDBRANCH  10  12
ENDBRANCH   4   6
BRANCH   1  15
ATOM     15  S   UNL     1       5.696   2.527  11.424  0.00  0.00    +0.000 S 
BRANCH  15  16
ATOM     16  C   UNL     1       3.920   2.781  11.205  0.00  0.00    +0.000 C 
BRANCH  16  18
ATOM     17  C   UNL     1       2.826   4.210   9.448  0.00  0.00    +0.000 C 
ATOM     18  C   UNL     1       3.693   4.065  10.462  0.00  0.00    +0.000 C 
ENDBRANCH  16  18
ENDBRANCH  15  16
ENDBRANCH   1  15
TORSDOF 5
ENDMDL
MODEL 8
REMARK VINA RESULT:      -6.4      4.457      7.495
REMARK  Name = 
REMARK  5 active torsions:
REMARK  status: ('A' for Active; 'I' for Inactive)
REMARK    1  A    between atoms: C_2  and  C_3
REMARK    2  A    between atoms: C_3  and  S_4
REMARK    3  A    between atoms: S_4  and  C_5
REMARK    4  A    between atoms: C_8  and  C_9
REMARK    5  A    between atoms: C_13  and  N_14
REMARK                            x       y       z     vdW  Elec       q    Type
REMARK                         _______ _______ _______ _____ _____    ______ ____
ROOT
ATOM      1  C   UNL     1       1.254   9.262  19.347  0.00  0.00    +0.000 A 
ATOM      2  N   UNL     1       1.406   9.725  18.124  0.00  0.00    +0.000 NA
ATOM      3  N   UNL     1       2.200   8.820  17.452  0.00  0.00    +0.000 NA
ATOM      4  C   UNL     1       2.466   7.852  18.304  0.00  0.00    +0.000 A 
ATOM      5  O   UNL     1       1.915   8.075  19.542  0.00  0.00    +0.000 OA
ENDROOT
BRANCH   4   6
ATOM      6  C   UNL     1       3.166   6.592  18.080  0.00  0.00    +0.000 A 
ATOM      7  C   UNL     1       4.218   6.551  17.153  0.00  0.00    +0.000 A 
ATOM      8  C   UNL     1       4.826   5.343  16.817  0.00  0.00    +0.000 A 
ATOM      9  C   UNL     1       4.396   4.161  17.419  0.00  0.00    +0.000 A 
ATOM     10  C   UNL     1       3.382   4.167  18.386  0.00  0.00    +0.000 A 
ATOM     11  C   UNL     1       2.772   5.395  18.704  0.00  0.00    +0.000 A 
BRANCH  10  12
ATOM     12  N   UNL     1       2.976   2.914  18.888  0.00  0.00    +0.000 NA
ATOM     13  C   UNL     1       2.520   2.903  19.972  0.00  0.00    +0.000 C 
ATOM     14  S   UNL     1       1.873   2.829  21.426  0.00  0.00    +0.000 S 
ENDBRANCH  10  12
ENDBRANCH   4   6
BRANCH   1  15
ATOM     15  S   UNL     1       0.272  10.045  20.546  0.00  0.00    +0.000 S 
BRANCH  15  16
ATOM     16  C   UNL     1       0.788   9.161  22.035  0.00  0.00    +0.000 C 
BRANCH  16  18
ATOM     17  C   UNL     1      -0.999  10.554  23.126  0.00  0.00    +0.000 C 
ATOM     18  C   UNL     1      -0.083   9.577  23.184  0.00  0.00    +0.000 C 
ENDBRANCH  16  18
ENDBRANCH  15  16
ENDBRANCH   1  15
TORSDOF 5
ENDMDL
MODEL 9
REMARK VINA RESULT:      -6.4      1.609      1.881
REMARK  Name = 
REMARK  5 active torsions:
REMARK  status: ('A' for Active; 'I' for Inactive)
REMARK    1  A    between atoms: C_2  and  C_3
REMARK    2  A    between atoms: C_3  and  S_4
REMARK    3  A    between atoms: S_4  and  C_5
REMARK    4  A    between atoms: C_8  and  C_9
REMARK    5  A    between atoms: C_13  and  N_14
REMARK                            x       y       z     vdW  Elec       q    Type
REMARK                         _______ _______ _______ _____ _____    ______ ____
ROOT
ATOM      1  C   UNL     1       6.064   4.577  15.025  0.00  0.00    +0.000 A 
ATOM      2  N   UNL     1       5.887   3.440  15.665  0.00  0.00    +0.000 NA
ATOM      3  N   UNL     1       5.068   3.712  16.740  0.00  0.00    +0.000 NA
ATOM      4  C   UNL     1       4.782   4.996  16.676  0.00  0.00    +0.000 A 
ATOM      5  O   UNL     1       5.400   5.620  15.621  0.00  0.00    +0.000 OA
ENDROOT
BRANCH   4   6
ATOM      6  C   UNL     1       3.865   5.779  17.497  0.00  0.00    +0.000 A 
ATOM      7  C   UNL     1       3.706   7.146  17.228  0.00  0.00    +0.000 A 
ATOM      8  C   UNL     1       2.941   7.953  18.066  0.00  0.00    +0.000 A 
ATOM      9  C   UNL     1       2.311   7.396  19.179  0.00  0.00    +0.000 A 
ATOM     10  C   UNL     1       2.405   6.025  19.454  0.00  0.00    +0.000 A 
ATOM     11  C   UNL     1       3.192   5.227  18.602  0.00  0.00    +0.000 A 
BRANCH  10  12
ATOM     12  N   UNL     1       1.786   5.570  20.636  0.00  0.00    +0.000 NA
ATOM     13  C   UNL     1       1.979   4.449  20.934  0.00  0.00    +0.000 C 
ATOM     14  S   UNL     1       2.222   2.946  21.401  0.00  0.00    +0.000 S 
ENDBRANCH  10  12
ENDBRANCH   4   6
BRANCH   1  15
ATOM     15  S   UNL     1       6.984   4.711  13.559  0.00  0.00    +0.000 S 
BRANCH  15  16
ATOM     16  C   UNL     1       6.272   3.362  12.590  0.00  0.00    +0.000 C 
BRANCH  16  18
ATOM     17  C   UNL     1       4.159   3.116  11.249  0.00  0.00    +0.000 C 
ATOM     18  C   UNL     1       4.856   3.705  12.231  0.00  0.00    +0.000 C 
ENDBRANCH  16  18
ENDBRANCH  15  16
ENDBRANCH   1  15
TORSDOF 5
ENDMDL
