MODEL 1
REMARK VINA RESULT:      -7.7      0.000      0.000
REMARK  Name = 
REMARK  8 active torsions:
REMARK  status: ('A' for Active; 'I' for Inactive)
REMARK    1  A    between atoms: C_1  and  C_2
REMARK    2  A    between atoms: C_2  and  C_4
REMARK    3  A    between atoms: C_7  and  O_8
REMARK    4  A    between atoms: O_8  and  C_9
REMARK    5  A    between atoms: C_9  and  C_10
REMARK    6  A    between atoms: N_12  and  C_13
REMARK    7  A    between atoms: C_13  and  C_14
REMARK    8  A    between atoms: C_24  and  O_25
REMARK                            x       y       z     vdW  Elec       q    Type
REMARK                         _______ _______ _______ _____ _____    ______ ____
ROOT
ATOM      1  C   UNL     1       2.512   5.592  19.429  0.00  0.00    +0.000 C 
ENDROOT
BRANCH   1   2
ATOM      2  C   UNL     1       2.116   7.020  19.528  0.00  0.00    +0.000 A 
ATOM      3  C   UNL     1       2.168   8.014  18.574  0.00  0.00    +0.000 A 
ATOM      4  N   UNL     1       1.584   9.086  19.184  0.00  0.00    +0.000 N 
ATOM      5  N   UNL     1       1.202   8.786  20.438  0.00  0.00    +0.000 NA
ATOM      6  N   UNL     1       1.531   7.521  20.663  0.00  0.00    +0.000 NA
BRANCH   4   7
ATOM      7  C   UNL     1       1.264  10.376  18.602  0.00  0.00    +0.000 C 
BRANCH   7   8
ATOM      8  C   UNL     1      -0.227  10.559  18.477  0.00  0.00    +0.000 A 
ATOM      9  C   UNL     1      -0.966   9.806  17.553  0.00  0.00    +0.000 A 
ATOM     10  C   UNL     1      -2.337  10.025  17.398  0.00  0.00    +0.000 A 
ATOM     11  C   UNL     1      -2.973  10.996  18.169  0.00  0.00    +0.000 A 
ATOM     12 BR   UNL     1      -4.822  11.313  17.938  0.00  0.00    +0.000 Br
ATOM     13  C   UNL     1      -2.255  11.744  19.100  0.00  0.00    +0.000 A 
ATOM     14  C   UNL     1      -0.884  11.528  19.251  0.00  0.00    +0.000 A 
ENDBRANCH   7   8
ENDBRANCH   4   7
ENDBRANCH   1   2
BRANCH   1  15
ATOM     15  O   UNL     1       3.932   5.425  19.486  0.00  0.00    +0.000 OA
BRANCH  15  19
ATOM     16  C   UNL     1       6.017   4.994  15.875  0.00  0.00    +0.000 A 
ATOM     17  C   UNL     1       4.994   4.082  16.192  0.00  0.00    +0.000 A 
ATOM     18  C   UNL     1       4.276   4.184  17.388  0.00  0.00    +0.000 A 
ATOM     19  C   UNL     1       4.565   5.206  18.290  0.00  0.00    +0.000 A 
ATOM     20  C   UNL     1       5.579   6.117  17.987  0.00  0.00    +0.000 A 
ATOM     21  C   UNL     1       6.300   6.013  16.791  0.00  0.00    +0.000 A 
BRANCH  16  23
ATOM     22  C   UNL     1       6.117   3.904  13.512  0.00  0.00    +0.000 C 
ATOM     23  C   UNL     1       6.719   4.788  14.570  0.00  0.00    +0.000 C 
ATOM     24  O   UNL     1       7.797   5.351  14.367  0.00  0.00    +0.000 OA
ENDBRANCH  16  23
BRANCH  21  25
ATOM     25  O   UNL     1       7.279   6.935  16.547  0.00  0.00    +0.000 OA
ATOM     26  H   UNL     1       6.882   7.818  16.461  0.00  0.00    +0.000 HD
ENDBRANCH  21  25
ENDBRANCH  15  19
ENDBRANCH   1  15
TORSDOF 7
ENDMDL
MODEL 2
REMARK VINA RESULT:      -7.6      5.965      8.344
REMARK  Name = 
REMARK  8 active torsions:
REMARK  status: ('A' for Active; 'I' for Inactive)
REMARK    1  A    between atoms: C_1  and  C_2
REMARK    2  A    between atoms: C_2  and  C_4
REMARK    3  A    between atoms: C_7  and  O_8
REMARK    4  A    between atoms: O_8  and  C_9
REMARK    5  A    between atoms: C_9  and  C_10
REMARK    6  A    between atoms: N_12  and  C_13
REMARK    7  A    between atoms: C_13  and  C_14
REMARK    8  A    between atoms: C_24  and  O_25
REMARK                            x       y       z     vdW  Elec       q    Type
REMARK                         _______ _______ _______ _____ _____    ______ ____
ROOT
ATOM      1  C   UNL     1       8.141   7.993  18.206  0.00  0.00    +0.000 C 
ENDROOT
BRANCH   1   2
ATOM      2  C   UNL     1       7.329   6.990  17.472  0.00  0.00    +0.000 A 
ATOM      3  C   UNL     1       6.070   6.503  17.751  0.00  0.00    +0.000 A 
ATOM      4  N   UNL     1       5.787   5.694  16.691  0.00  0.00    +0.000 N 
ATOM      5  N   UNL     1       6.804   5.668  15.811  0.00  0.00    +0.000 NA
ATOM      6  N   UNL     1       7.761   6.455  16.285  0.00  0.00    +0.000 NA
BRANCH   4   7
ATOM      7  C   UNL     1       4.541   5.009  16.400  0.00  0.00    +0.000 C 
BRANCH   7   8
ATOM      8  C   UNL     1       3.883   4.519  17.665  0.00  0.00    +0.000 A 
ATOM      9  C   UNL     1       4.460   3.486  18.418  0.00  0.00    +0.000 A 
ATOM     10  C   UNL     1       3.815   2.995  19.555  0.00  0.00    +0.000 A 
ATOM     11  C   UNL     1       2.591   3.537  19.944  0.00  0.00    +0.000 A 
ATOM     12 BR   UNL     1       1.703   2.851  21.465  0.00  0.00    +0.000 Br
ATOM     13  C   UNL     1       2.012   4.572  19.213  0.00  0.00    +0.000 A 
ATOM     14  C   UNL     1       2.655   5.060  18.074  0.00  0.00    +0.000 A 
ENDBRANCH   7   8
ENDBRANCH   4   7
ENDBRANCH   1   2
BRANCH   1  15
ATOM     15  O   UNL     1       7.872   9.327  17.762  0.00  0.00    +0.000 OA
BRANCH  15  19
ATOM     16  C   UNL     1      10.091  12.530  19.310  0.00  0.00    +0.000 A 
ATOM     17  C   UNL     1      10.090  11.300  19.992  0.00  0.00    +0.000 A 
ATOM     18  C   UNL     1       9.361  10.207  19.515  0.00  0.00    +0.000 A 
ATOM     19  C   UNL     1       8.618  10.321  18.341  0.00  0.00    +0.000 A 
ATOM     20  C   UNL     1       8.610  11.537  17.655  0.00  0.00    +0.000 A 
ATOM     21  C   UNL     1       9.339  12.633  18.134  0.00  0.00    +0.000 A 
BRANCH  16  23
ATOM     22  C   UNL     1      10.455  14.311  21.175  0.00  0.00    +0.000 C 
ATOM     23  C   UNL     1      10.906  13.631  19.911  0.00  0.00    +0.000 C 
ATOM     24  O   UNL     1      11.954  13.978  19.360  0.00  0.00    +0.000 OA
ENDBRANCH  16  23
BRANCH  21  25
ATOM     25  O   UNL     1       9.295  13.798  17.419  0.00  0.00    +0.000 OA
ATOM     26  H   UNL     1       9.083  14.537  18.013  0.00  0.00    +0.000 HD
ENDBRANCH  21  25
ENDBRANCH  15  19
ENDBRANCH   1  15
TORSDOF 7
ENDMDL
MODEL 3
REMARK VINA RESULT:      -7.4      6.234      8.669
REMARK  Name = 
REMARK  8 active torsions:
REMARK  status: ('A' for Active; 'I' for Inactive)
REMARK    1  A    between atoms: C_1  and  C_2
REMARK    2  A    between atoms: C_2  and  C_4
REMARK    3  A    between atoms: C_7  and  O_8
REMARK    4  A    between atoms: O_8  and  C_9
REMARK    5  A    between atoms: C_9  and  C_10
REMARK    6  A    between atoms: N_12  and  C_13
REMARK    7  A    between atoms: C_13  and  C_14
REMARK    8  A    between atoms: C_24  and  O_25
REMARK                            x       y       z     vdW  Elec       q    Type
REMARK                         _______ _______ _______ _____ _____    ______ ____
ROOT
ATOM      1  C   UNL     1       8.144   8.954  17.937  0.00  0.00    +0.000 C 
ENDROOT
BRANCH   1   2
ATOM      2  C   UNL     1       7.674   7.545  17.948  0.00  0.00    +0.000 A 
ATOM      3  C   UNL     1       6.764   6.916  17.127  0.00  0.00    +0.000 A 
ATOM      4  N   UNL     1       6.806   5.612  17.527  0.00  0.00    +0.000 N 
ATOM      5  N   UNL     1       7.677   5.439  18.537  0.00  0.00    +0.000 NA
ATOM      6  N   UNL     1       8.211   6.623  18.811  0.00  0.00    +0.000 NA
BRANCH   4   7
ATOM      7  C   UNL     1       6.134   4.475  16.927  0.00  0.00    +0.000 C 
BRANCH   7   8
ATOM      8  C   UNL     1       4.869   4.137  17.674  0.00  0.00    +0.000 A 
ATOM      9  C   UNL     1       3.622   4.203  17.036  0.00  0.00    +0.000 A 
ATOM     10  C   UNL     1       2.448   3.948  17.750  0.00  0.00    +0.000 A 
ATOM     11  C   UNL     1       2.519   3.625  19.103  0.00  0.00    +0.000 A 
ATOM     12 BR   UNL     1       0.929   3.311  20.076  0.00  0.00    +0.000 Br
ATOM     13  C   UNL     1       3.751   3.544  19.748  0.00  0.00    +0.000 A 
ATOM     14  C   UNL     1       4.924   3.802  19.035  0.00  0.00    +0.000 A 
ENDBRANCH   7   8
ENDBRANCH   4   7
ENDBRANCH   1   2
BRANCH   1  15
ATOM     15  O   UNL     1       8.995   9.243  19.051  0.00  0.00    +0.000 OA
BRANCH  15  19
ATOM     16  C   UNL     1      10.558  13.133  19.048  0.00  0.00    +0.000 A 
ATOM     17  C   UNL     1       9.899  12.657  20.196  0.00  0.00    +0.000 A 
ATOM     18  C   UNL     1       9.358  11.368  20.240  0.00  0.00    +0.000 A 
ATOM     19  C   UNL     1       9.469  10.527  19.135  0.00  0.00    +0.000 A 
ATOM     20  C   UNL     1      10.119  10.988  17.989  0.00  0.00    +0.000 A 
ATOM     21  C   UNL     1      10.659  12.280  17.944  0.00  0.00    +0.000 A 
BRANCH  16  23
ATOM     22  C   UNL     1      11.203  15.243  20.433  0.00  0.00    +0.000 C 
ATOM     23  C   UNL     1      11.097  14.527  19.113  0.00  0.00    +0.000 C 
ATOM     24  O   UNL     1      11.454  15.087  18.074  0.00  0.00    +0.000 OA
ENDBRANCH  16  23
BRANCH  21  25
ATOM     25  O   UNL     1      11.287  12.676  16.796  0.00  0.00    +0.000 OA
ATOM     26  H   UNL     1      10.763  13.369  16.360  0.00  0.00    +0.000 HD
ENDBRANCH  21  25
ENDBRANCH  15  19
ENDBRANCH   1  15
TORSDOF 7
ENDMDL
MODEL 4
REMARK VINA RESULT:      -7.4      1.115      1.358
REMARK  Name = 
REMARK  8 active torsions:
REMARK  status: ('A' for Active; 'I' for Inactive)
REMARK    1  A    between atoms: C_1  and  C_2
REMARK    2  A    between atoms: C_2  and  C_4
REMARK    3  A    between atoms: C_7  and  O_8
REMARK    4  A    between atoms: O_8  and  C_9
REMARK    5  A    between atoms: C_9  and  C_10
REMARK    6  A    between atoms: N_12  and  C_13
REMARK    7  A    between atoms: C_13  and  C_14
REMARK    8  A    between atoms: C_24  and  O_25
REMARK                            x       y       z     vdW  Elec       q    Type
REMARK                         _______ _______ _______ _____ _____    ______ ____
ROOT
ATOM      1  C   UNL     1       3.176   5.147  19.718  0.00  0.00    +0.000 C 
ENDROOT
BRANCH   1   2
ATOM      2  C   UNL     1       2.644   6.519  19.520  0.00  0.00    +0.000 A 
ATOM      3  C   UNL     1       2.693   7.328  18.405  0.00  0.00    +0.000 A 
ATOM      4  N   UNL     1       1.958   8.422  18.759  0.00  0.00    +0.000 N 
ATOM      5  N   UNL     1       1.489   8.309  20.015  0.00  0.00    +0.000 NA
ATOM      6  N   UNL     1       1.911   7.147  20.495  0.00  0.00    +0.000 NA
BRANCH   4   7
ATOM      7  C   UNL     1       1.577   9.546  17.926  0.00  0.00    +0.000 C 
BRANCH   7   8
ATOM      8  C   UNL     1       0.565  10.420  18.622  0.00  0.00    +0.000 A 
ATOM      9  C   UNL     1      -0.807  10.256  18.383  0.00  0.00    +0.000 A 
ATOM     10  C   UNL     1      -1.736  11.109  18.984  0.00  0.00    +0.000 A 
ATOM     11  C   UNL     1      -1.295  12.126  19.829  0.00  0.00    +0.000 A 
ATOM     12 BR   UNL     1      -2.550  13.299  20.617  0.00  0.00    +0.000 Br
ATOM     13  C   UNL     1       0.064  12.292  20.086  0.00  0.00    +0.000 A 
ATOM     14  C   UNL     1       0.992  11.443  19.482  0.00  0.00    +0.000 A 
ENDBRANCH   7   8
ENDBRANCH   4   7
ENDBRANCH   1   2
BRANCH   1  15
ATOM     15  O   UNL     1       4.602   5.104  19.599  0.00  0.00    +0.000 OA
BRANCH  15  19
ATOM     16  C   UNL     1       6.286   4.905  15.765  0.00  0.00    +0.000 A 
ATOM     17  C   UNL     1       5.271   3.999  16.118  0.00  0.00    +0.000 A 
ATOM     18  C   UNL     1       4.684   4.025  17.387  0.00  0.00    +0.000 A 
ATOM     19  C   UNL     1       5.100   4.964  18.330  0.00  0.00    +0.000 A 
ATOM     20  C   UNL     1       6.108   5.869  17.991  0.00  0.00    +0.000 A 
ATOM     21  C   UNL     1       6.697   5.841  16.721  0.00  0.00    +0.000 A 
BRANCH  16  23
ATOM     22  C   UNL     1       6.255   3.800  13.407  0.00  0.00    +0.000 C 
ATOM     23  C   UNL     1       6.841   4.785  14.381  0.00  0.00    +0.000 C 
ATOM     24  O   UNL     1       7.786   5.503  14.044  0.00  0.00    +0.000 OA
ENDBRANCH  16  23
BRANCH  21  25
ATOM     25  O   UNL     1       7.677   6.753  16.445  0.00  0.00    +0.000 OA
ATOM     26  H   UNL     1       7.511   7.159  15.578  0.00  0.00    +0.000 HD
ENDBRANCH  21  25
ENDBRANCH  15  19
ENDBRANCH   1  15
TORSDOF 7
ENDMDL
MODEL 5
REMARK VINA RESULT:      -7.3      6.021      8.443
REMARK  Name = 
REMARK  8 active torsions:
REMARK  status: ('A' for Active; 'I' for Inactive)
REMARK    1  A    between atoms: C_1  and  C_2
REMARK    2  A    between atoms: C_2  and  C_4
REMARK    3  A    between atoms: C_7  and  O_8
REMARK    4  A    between atoms: O_8  and  C_9
REMARK    5  A    between atoms: C_9  and  C_10
REMARK    6  A    between atoms: N_12  and  C_13
REMARK    7  A    between atoms: C_13  and  C_14
REMARK    8  A    between atoms: C_24  and  O_25
REMARK                            x       y       z     vdW  Elec       q    Type
REMARK                         _______ _______ _______ _____ _____    ______ ____
ROOT
ATOM      1  C   UNL     1       8.109   8.026  18.302  0.00  0.00    +0.000 C 
ENDROOT
BRANCH   1   2
ATOM      2  C   UNL     1       7.371   7.020  17.497  0.00  0.00    +0.000 A 
ATOM      3  C   UNL     1       6.145   6.435  17.731  0.00  0.00    +0.000 A 
ATOM      4  N   UNL     1       5.924   5.677  16.618  0.00  0.00    +0.000 N 
ATOM      5  N   UNL     1       6.947   5.773  15.751  0.00  0.00    +0.000 NA
ATOM      6  N   UNL     1       7.847   6.590  16.284  0.00  0.00    +0.000 NA
BRANCH   4   7
ATOM      7  C   UNL     1       4.729   4.932  16.271  0.00  0.00    +0.000 C 
BRANCH   7   8
ATOM      8  C   UNL     1       4.010   4.453  17.507  0.00  0.00    +0.000 A 
ATOM      9  C   UNL     1       2.786   5.022  17.888  0.00  0.00    +0.000 A 
ATOM     10  C   UNL     1       2.155   4.618  19.067  0.00  0.00    +0.000 A 
ATOM     11  C   UNL     1       2.746   3.641  19.867  0.00  0.00    +0.000 A 
ATOM     12 BR   UNL     1       1.908   3.117  21.478  0.00  0.00    +0.000 Br
ATOM     13  C   UNL     1       3.955   3.058  19.495  0.00  0.00    +0.000 A 
ATOM     14  C   UNL     1       4.587   3.466  18.319  0.00  0.00    +0.000 A 
ENDBRANCH   7   8
ENDBRANCH   4   7
ENDBRANCH   1   2
BRANCH   1  15
ATOM     15  O   UNL     1       8.214   9.282  17.622  0.00  0.00    +0.000 OA
BRANCH  15  19
ATOM     16  C   UNL     1       9.985  12.565  19.535  0.00  0.00    +0.000 A 
ATOM     17  C   UNL     1      10.082  11.292  20.123  0.00  0.00    +0.000 A 
ATOM     18  C   UNL     1       9.502  10.169  19.524  0.00  0.00    +0.000 A 
ATOM     19  C   UNL     1       8.816  10.298  18.318  0.00  0.00    +0.000 A 
ATOM     20  C   UNL     1       8.712  11.558  17.724  0.00  0.00    +0.000 A 
ATOM     21  C   UNL     1       9.290  12.683  18.325  0.00  0.00    +0.000 A 
BRANCH  16  23
ATOM     22  C   UNL     1      11.814  14.416  19.655  0.00  0.00    +0.000 C 
ATOM     23  C   UNL     1      10.642  13.694  20.264  0.00  0.00    +0.000 C 
ATOM     24  O   UNL     1      10.215  14.029  21.371  0.00  0.00    +0.000 OA
ENDBRANCH  16  23
BRANCH  21  25
ATOM     25  O   UNL     1       9.158  13.889  17.696  0.00  0.00    +0.000 OA
ATOM     26  H   UNL     1       9.107  14.598  18.359  0.00  0.00    +0.000 HD
ENDBRANCH  21  25
ENDBRANCH  15  19
ENDBRANCH   1  15
TORSDOF 7
ENDMDL
MODEL 6
REMARK VINA RESULT:      -7.2      1.343      1.791
REMARK  Name = 
REMARK  8 active torsions:
REMARK  status: ('A' for Active; 'I' for Inactive)
REMARK    1  A    between atoms: C_1  and  C_2
REMARK    2  A    between atoms: C_2  and  C_4
REMARK    3  A    between atoms: C_7  and  O_8
REMARK    4  A    between atoms: O_8  and  C_9
REMARK    5  A    between atoms: C_9  and  C_10
REMARK    6  A    between atoms: N_12  and  C_13
REMARK    7  A    between atoms: C_13  and  C_14
REMARK    8  A    between atoms: C_24  and  O_25
REMARK                            x       y       z     vdW  Elec       q    Type
REMARK                         _______ _______ _______ _____ _____    ______ ____
ROOT
ATOM      1  C   UNL     1       2.269   6.661  19.924  0.00  0.00    +0.000 C 
ENDROOT
BRANCH   1   2
ATOM      2  C   UNL     1       1.712   8.037  19.960  0.00  0.00    +0.000 A 
ATOM      3  C   UNL     1       1.622   8.975  18.954  0.00  0.00    +0.000 A 
ATOM      4  N   UNL     1       0.933  10.005  19.525  0.00  0.00    +0.000 N 
ATOM      5  N   UNL     1       0.621   9.733  20.805  0.00  0.00    +0.000 NA
ATOM      6  N   UNL     1       1.103   8.529  21.086  0.00  0.00    +0.000 NA
BRANCH   4   7
ATOM      7  C   UNL     1       0.450  11.215  18.887  0.00  0.00    +0.000 C 
BRANCH   7   8
ATOM      8  C   UNL     1      -1.045  11.168  18.699  0.00  0.00    +0.000 A 
ATOM      9  C   UNL     1      -1.628  10.242  17.822  0.00  0.00    +0.000 A 
ATOM     10  C   UNL     1      -3.008  10.246  17.605  0.00  0.00    +0.000 A 
ATOM     11  C   UNL     1      -3.809  11.173  18.267  0.00  0.00    +0.000 A 
ATOM     12 BR   UNL     1      -5.673  11.198  17.950  0.00  0.00    +0.000 Br
ATOM     13  C   UNL     1      -3.246  12.091  19.151  0.00  0.00    +0.000 A 
ATOM     14  C   UNL     1      -1.867  12.091  19.364  0.00  0.00    +0.000 A 
ENDBRANCH   7   8
ENDBRANCH   4   7
ENDBRANCH   1   2
BRANCH   1  15
ATOM     15  O   UNL     1       2.105   6.050  18.640  0.00  0.00    +0.000 OA
BRANCH  15  19
ATOM     16  C   UNL     1       5.575   5.018  16.527  0.00  0.00    +0.000 A 
ATOM     17  C   UNL     1       5.275   6.376  16.735  0.00  0.00    +0.000 A 
ATOM     18  C   UNL     1       4.125   6.766  17.430  0.00  0.00    +0.000 A 
ATOM     19  C   UNL     1       3.254   5.804  17.935  0.00  0.00    +0.000 A 
ATOM     20  C   UNL     1       3.541   4.452  17.734  0.00  0.00    +0.000 A 
ATOM     21  C   UNL     1       4.691   4.060  17.036  0.00  0.00    +0.000 A 
BRANCH  16  23
ATOM     22  C   UNL     1       6.811   4.624  14.269  0.00  0.00    +0.000 C 
ATOM     23  C   UNL     1       6.830   4.716  15.770  0.00  0.00    +0.000 C 
ATOM     24  O   UNL     1       7.883   4.543  16.389  0.00  0.00    +0.000 OA
ENDBRANCH  16  23
BRANCH  21  25
ATOM     25  O   UNL     1       4.921   2.723  16.873  0.00  0.00    +0.000 OA
ATOM     26  H   UNL     1       5.581   2.589  16.172  0.00  0.00    +0.000 HD
ENDBRANCH  21  25
ENDBRANCH  15  19
ENDBRANCH   1  15
TORSDOF 7
ENDMDL
MODEL 7
REMARK VINA RESULT:      -7.2      1.046      1.523
REMARK  Name = 
REMARK  8 active torsions:
REMARK  status: ('A' for Active; 'I' for Inactive)
REMARK    1  A    between atoms: C_1  and  C_2
REMARK    2  A    between atoms: C_2  and  C_4
REMARK    3  A    between atoms: C_7  and  O_8
REMARK    4  A    between atoms: O_8  and  C_9
REMARK    5  A    between atoms: C_9  and  C_10
REMARK    6  A    between atoms: N_12  and  C_13
REMARK    7  A    between atoms: C_13  and  C_14
REMARK    8  A    between atoms: C_24  and  O_25
REMARK                            x       y       z     vdW  Elec       q    Type
REMARK                         _______ _______ _______ _____ _____    ______ ____
ROOT
ATOM      1  C   UNL     1       2.407   4.638  19.583  0.00  0.00    +0.000 C 
ENDROOT
BRANCH   1   2
ATOM      2  C   UNL     1       2.288   6.115  19.485  0.00  0.00    +0.000 A 
ATOM      3  C   UNL     1       2.503   6.945  18.406  0.00  0.00    +0.000 A 
ATOM      4  N   UNL     1       2.144   8.179  18.864  0.00  0.00    +0.000 N 
ATOM      5  N   UNL     1       1.740   8.127  20.146  0.00  0.00    +0.000 NA
ATOM      6  N   UNL     1       1.833   6.864  20.541  0.00  0.00    +0.000 NA
BRANCH   4   7
ATOM      7  C   UNL     1       2.057   9.417  18.112  0.00  0.00    +0.000 C 
BRANCH   7   8
ATOM      8  C   UNL     1       0.817  10.190  18.480  0.00  0.00    +0.000 A 
ATOM      9  C   UNL     1       0.881  11.253  19.393  0.00  0.00    +0.000 A 
ATOM     10  C   UNL     1      -0.282  11.926  19.777  0.00  0.00    +0.000 A 
ATOM     11  C   UNL     1      -1.511  11.538  19.247  0.00  0.00    +0.000 A 
ATOM     12 BR   UNL     1      -3.088  12.428  19.791  0.00  0.00    +0.000 Br
ATOM     13  C   UNL     1      -1.589  10.492  18.331  0.00  0.00    +0.000 A 
ATOM     14  C   UNL     1      -0.428   9.817  17.950  0.00  0.00    +0.000 A 
ENDBRANCH   7   8
ENDBRANCH   4   7
ENDBRANCH   1   2
BRANCH   1  15
ATOM     15  O   UNL     1       3.773   4.211  19.603  0.00  0.00    +0.000 OA
BRANCH  15  19
ATOM     16  C   UNL     1       6.019   4.550  16.079  0.00  0.00    +0.000 A 
ATOM     17  C   UNL     1       4.793   3.861  16.050  0.00  0.00    +0.000 A 
ATOM     18  C   UNL     1       4.014   3.719  17.203  0.00  0.00    +0.000 A 
ATOM     19  C   UNL     1       4.444   4.268  18.409  0.00  0.00    +0.000 A 
ATOM     20  C   UNL     1       5.660   4.954  18.451  0.00  0.00    +0.000 A 
ATOM     21  C   UNL     1       6.442   5.094  17.297  0.00  0.00    +0.000 A 
BRANCH  16  23
ATOM     22  C   UNL     1       6.307   3.866  13.583  0.00  0.00    +0.000 C 
ATOM     23  C   UNL     1       6.769   4.639  14.788  0.00  0.00    +0.000 C 
ATOM     24  O   UNL     1       7.772   5.354  14.719  0.00  0.00    +0.000 OA
ENDBRANCH  16  23
BRANCH  21  25
ATOM     25  O   UNL     1       7.622   5.777  17.398  0.00  0.00    +0.000 OA
ATOM     26  H   UNL     1       7.944   5.739  18.314  0.00  0.00    +0.000 HD
ENDBRANCH  21  25
ENDBRANCH  15  19
ENDBRANCH   1  15
TORSDOF 7
ENDMDL
MODEL 8
REMARK VINA RESULT:      -7.2      0.808      1.269
REMARK  Name = 
REMARK  8 active torsions:
REMARK  status: ('A' for Active; 'I' for Inactive)
REMARK    1  A    between atoms: C_1  and  C_2
REMARK    2  A    between atoms: C_2  and  C_4
REMARK    3  A    between atoms: C_7  and  O_8
REMARK    4  A    between atoms: O_8  and  C_9
REMARK    5  A    between atoms: C_9  and  C_10
REMARK    6  A    between atoms: N_12  and  C_13
REMARK    7  A    between atoms: C_13  and  C_14
REMARK    8  A    between atoms: C_24  and  O_25
REMARK                            x       y       z     vdW  Elec       q    Type
REMARK                         _______ _______ _______ _____ _____    ______ ____
ROOT
ATOM      1  C   UNL     1       2.551   5.993  19.391  0.00  0.00    +0.000 C 
ENDROOT
BRANCH   1   2
ATOM      2  C   UNL     1       2.082   7.394  19.536  0.00  0.00    +0.000 A 
ATOM      3  C   UNL     1       2.122   8.433  18.631  0.00  0.00    +0.000 A 
ATOM      4  N   UNL     1       1.462   9.446  19.263  0.00  0.00    +0.000 N 
ATOM      5  N   UNL     1       1.046   9.070  20.485  0.00  0.00    +0.000 NA
ATOM      6  N   UNL     1       1.429   7.813  20.668  0.00  0.00    +0.000 NA
BRANCH   4   7
ATOM      7  C   UNL     1       1.102  10.745  18.726  0.00  0.00    +0.000 C 
BRANCH   7   8
ATOM      8  C   UNL     1      -0.388  10.853  18.522  0.00  0.00    +0.000 A 
ATOM      9  C   UNL     1      -1.138  11.814  19.216  0.00  0.00    +0.000 A 
ATOM     10  C   UNL     1      -2.526  11.868  19.069  0.00  0.00    +0.000 A 
ATOM     11  C   UNL     1      -3.167  10.964  18.225  0.00  0.00    +0.000 A 
ATOM     12 BR   UNL     1      -5.049  11.018  18.050  0.00  0.00    +0.000 Br
ATOM     13  C   UNL     1      -2.435  10.012  17.519  0.00  0.00    +0.000 A 
ATOM     14  C   UNL     1      -1.048   9.954  17.670  0.00  0.00    +0.000 A 
ENDBRANCH   7   8
ENDBRANCH   4   7
ENDBRANCH   1   2
BRANCH   1  15
ATOM     15  O   UNL     1       3.973   5.888  19.522  0.00  0.00    +0.000 OA
BRANCH  15  19
ATOM     16  C   UNL     1       5.969   5.135  15.914  0.00  0.00    +0.000 A 
ATOM     17  C   UNL     1       6.109   4.229  16.980  0.00  0.00    +0.000 A 
ATOM     18  C   UNL     1       5.466   4.442  18.203  0.00  0.00    +0.000 A 
ATOM     19  C   UNL     1       4.664   5.567  18.383  0.00  0.00    +0.000 A 
ATOM     20  C   UNL     1       4.518   6.475  17.333  0.00  0.00    +0.000 A 
ATOM     21  C   UNL     1       5.164   6.263  16.108  0.00  0.00    +0.000 A 
BRANCH  16  23
ATOM     22  C   UNL     1       6.130   3.819  13.673  0.00  0.00    +0.000 C 
ATOM     23  C   UNL     1       6.703   4.807  14.652  0.00  0.00    +0.000 C 
ATOM     24  O   UNL     1       7.784   5.354  14.421  0.00  0.00    +0.000 OA
ENDBRANCH  16  23
BRANCH  21  25
ATOM     25  O   UNL     1       4.982   7.185  15.115  0.00  0.00    +0.000 OA
ATOM     26  H   UNL     1       4.922   8.074  15.503  0.00  0.00    +0.000 HD
ENDBRANCH  21  25
ENDBRANCH  15  19
ENDBRANCH   1  15
TORSDOF 7
ENDMDL
MODEL 9
REMARK VINA RESULT:      -7.1      6.155      8.689
REMARK  Name = 
REMARK  8 active torsions:
REMARK  status: ('A' for Active; 'I' for Inactive)
REMARK    1  A    between atoms: C_1  and  C_2
REMARK    2  A    between atoms: C_2  and  C_4
REMARK    3  A    between atoms: C_7  and  O_8
REMARK    4  A    between atoms: O_8  and  C_9
REMARK    5  A    between atoms: C_9  and  C_10
REMARK    6  A    between atoms: N_12  and  C_13
REMARK    7  A    between atoms: C_13  and  C_14
REMARK    8  A    between atoms: C_24  and  O_25
REMARK                            x       y       z     vdW  Elec       q    Type
REMARK                         _______ _______ _______ _____ _____    ______ ____
ROOT
ATOM      1  C   UNL     1       7.929   9.249  17.848  0.00  0.00    +0.000 C 
ENDROOT
BRANCH   1   2
ATOM      2  C   UNL     1       7.442   7.890  17.500  0.00  0.00    +0.000 A 
ATOM      3  C   UNL     1       7.682   6.683  18.123  0.00  0.00    +0.000 A 
ATOM      4  N   UNL     1       6.901   5.799  17.439  0.00  0.00    +0.000 N 
ATOM      5  N   UNL     1       6.224   6.408  16.449  0.00  0.00    +0.000 NA
ATOM      6  N   UNL     1       6.556   7.693  16.472  0.00  0.00    +0.000 NA
BRANCH   4   7
ATOM      7  C   UNL     1       6.670   4.398  17.739  0.00  0.00    +0.000 C 
BRANCH   7   8
ATOM      8  C   UNL     1       5.269   4.176  18.247  0.00  0.00    +0.000 A 
ATOM      9  C   UNL     1       4.365   3.377  17.531  0.00  0.00    +0.000 A 
ATOM     10  C   UNL     1       3.050   3.225  17.976  0.00  0.00    +0.000 A 
ATOM     11  C   UNL     1       2.635   3.870  19.139  0.00  0.00    +0.000 A 
ATOM     12 BR   UNL     1       0.846   3.690  19.723  0.00  0.00    +0.000 Br
ATOM     13  C   UNL     1       3.524   4.657  19.868  0.00  0.00    +0.000 A 
ATOM     14  C   UNL     1       4.838   4.812  19.421  0.00  0.00    +0.000 A 
ENDBRANCH   7   8
ENDBRANCH   4   7
ENDBRANCH   1   2
BRANCH   1  15
ATOM     15  O   UNL     1       8.879   9.219  18.919  0.00  0.00    +0.000 OA
BRANCH  15  19
ATOM     16  C   UNL     1      10.626  12.934  19.769  0.00  0.00    +0.000 A 
ATOM     17  C   UNL     1      10.013  12.208  20.806  0.00  0.00    +0.000 A 
ATOM     18  C   UNL     1       9.414  10.967  20.567  0.00  0.00    +0.000 A 
ATOM     19  C   UNL     1       9.419  10.425  19.284  0.00  0.00    +0.000 A 
ATOM     20  C   UNL     1      10.024  11.136  18.245  0.00  0.00    +0.000 A 
ATOM     21  C   UNL     1      10.622  12.380  18.483  0.00  0.00    +0.000 A 
BRANCH  16  23
ATOM     22  C   UNL     1      10.551  15.155  21.126  0.00  0.00    +0.000 C 
ATOM     23  C   UNL     1      11.236  14.249  20.138  0.00  0.00    +0.000 C 
ATOM     24  O   UNL     1      12.306  14.586  19.626  0.00  0.00    +0.000 OA
ENDBRANCH  16  23
BRANCH  21  25
ATOM     25  O   UNL     1      11.201  13.029  17.429  0.00  0.00    +0.000 OA
ATOM     26  H   UNL     1      11.675  13.814  17.750  0.00  0.00    +0.000 HD
ENDBRANCH  21  25
ENDBRANCH  15  19
ENDBRANCH   1  15
TORSDOF 7
ENDMDL
