MODEL 1
REMARK VINA RESULT:      -6.5      0.000      0.000
REMARK  Name = 
REMARK  0 active torsions:
REMARK  status: ('A' for Active; 'I' for Inactive)
REMARK                            x       y       z     vdW  Elec       q    Type
REMARK                         _______ _______ _______ _____ _____    ______ ____
ROOT
ATOM      1  N   UNL     1       7.888   4.486  16.708  0.00  0.00    +0.000 N 
ATOM      2  C   UNL     1       6.639   4.619  17.184  0.00  0.00    +0.000 A 
ATOM      3  N   UNL     1       5.580   4.128  16.580  0.00  0.00    +0.000 NA
ATOM      4  C   UNL     1       4.467   4.337  17.361  0.00  0.00    +0.000 A 
ATOM      5  C   UNL     1       4.703   4.975  18.562  0.00  0.00    +0.000 A 
ATOM      6  S   UNL     1       6.340   5.407  18.687  0.00  0.00    +0.000 S 
ATOM      7  C   UNL     1       3.682   5.207  19.620  0.00  0.00    +0.000 C 
ATOM      8  C   UNL     1       2.491   4.238  19.395  0.00  0.00    +0.000 C 
ATOM      9  C   UNL     1       2.025   4.305  17.924  0.00  0.00    +0.000 C 
ATOM     10  C   UNL     1       3.129   3.794  16.977  0.00  0.00    +0.000 C 
ATOM     11  O   UNL     1       2.890   2.878  19.687  0.00  0.00    +0.000 OA
ATOM     12  C   UNL     1       1.760   2.319  20.348  0.00  0.00    +0.000 C 
ATOM     13  C   UNL     1       1.295   3.483  21.175  0.00  0.00    +0.000 C 
ATOM     14  O   UNL     1       1.401   4.590  20.269  0.00  0.00    +0.000 OA
ATOM     15  H   UNL     1       8.004   3.720  16.054  0.00  0.00    +0.000 HD
ATOM     16  H   UNL     1       8.641   4.559  17.382  0.00  0.00    +0.000 HD
ENDROOT
TORSDOF 0
ENDMDL
MODEL 2
REMARK VINA RESULT:      -6.4      2.109      3.184
REMARK  Name = 
REMARK  0 active torsions:
REMARK  status: ('A' for Active; 'I' for Inactive)
REMARK                            x       y       z     vdW  Elec       q    Type
REMARK                         _______ _______ _______ _____ _____    ______ ____
ROOT
ATOM      1  N   UNL     1       7.865   5.502  13.574  0.00  0.00    +0.000 N 
ATOM      2  C   UNL     1       7.204   5.149  14.689  0.00  0.00    +0.000 A 
ATOM      3  N   UNL     1       7.465   5.656  15.873  0.00  0.00    +0.000 NA
ATOM      4  C   UNL     1       6.556   5.177  16.789  0.00  0.00    +0.000 A 
ATOM      5  C   UNL     1       5.603   4.319  16.277  0.00  0.00    +0.000 A 
ATOM      6  S   UNL     1       5.896   4.030  14.630  0.00  0.00    +0.000 S 
ATOM      7  C   UNL     1       4.453   3.767  17.044  0.00  0.00    +0.000 C 
ATOM      8  C   UNL     1       4.216   4.642  18.303  0.00  0.00    +0.000 C 
ATOM      9  C   UNL     1       5.547   4.851  19.059  0.00  0.00    +0.000 C 
ATOM     10  C   UNL     1       6.542   5.658  18.203  0.00  0.00    +0.000 C 
ATOM     11  O   UNL     1       3.699   5.939  17.921  0.00  0.00    +0.000 OA
ATOM     12  C   UNL     1       2.724   6.230  18.916  0.00  0.00    +0.000 C 
ATOM     13  C   UNL     1       2.116   4.875  19.140  0.00  0.00    +0.000 C 
ATOM     14  O   UNL     1       3.257   4.006  19.169  0.00  0.00    +0.000 OA
ATOM     15  H   UNL     1       8.334   6.399  13.634  0.00  0.00    +0.000 HD
ATOM     16  H   UNL     1       7.382   5.357  12.695  0.00  0.00    +0.000 HD
ENDROOT
TORSDOF 0
ENDMDL
MODEL 3
REMARK VINA RESULT:      -6.4      3.245      5.028
REMARK  Name = 
REMARK  0 active torsions:
REMARK  status: ('A' for Active; 'I' for Inactive)
REMARK                            x       y       z     vdW  Elec       q    Type
REMARK                         _______ _______ _______ _____ _____    ______ ____
ROOT
ATOM      1  N   UNL     1       1.510   2.557  21.990  0.00  0.00    +0.000 N 
ATOM      2  C   UNL     1       2.004   3.114  20.872  0.00  0.00    +0.000 A 
ATOM      3  N   UNL     1       2.485   4.336  20.826  0.00  0.00    +0.000 NA
ATOM      4  C   UNL     1       3.008   4.578  19.576  0.00  0.00    +0.000 A 
ATOM      5  C   UNL     1       2.929   3.521  18.692  0.00  0.00    +0.000 A 
ATOM      6  S   UNL     1       2.103   2.219  19.403  0.00  0.00    +0.000 S 
ATOM      7  C   UNL     1       3.525   3.504  17.328  0.00  0.00    +0.000 C 
ATOM      8  C   UNL     1       4.617   4.604  17.239  0.00  0.00    +0.000 C 
ATOM      9  C   UNL     1       4.057   5.947  17.758  0.00  0.00    +0.000 C 
ATOM     10  C   UNL     1       3.717   5.854  19.258  0.00  0.00    +0.000 C 
ATOM     11  O   UNL     1       5.761   4.242  18.048  0.00  0.00    +0.000 OA
ATOM     12  C   UNL     1       6.879   4.649  17.269  0.00  0.00    +0.000 C 
ATOM     13  C   UNL     1       6.416   4.305  15.882  0.00  0.00    +0.000 C 
ATOM     14  O   UNL     1       5.053   4.752  15.874  0.00  0.00    +0.000 OA
ATOM     15  H   UNL     1       1.826   2.995  22.848  0.00  0.00    +0.000 HD
ATOM     16  H   UNL     1       1.508   1.545  22.030  0.00  0.00    +0.000 HD
ENDROOT
TORSDOF 0
ENDMDL
MODEL 4
REMARK VINA RESULT:      -6.3      1.290      1.335
REMARK  Name = 
REMARK  0 active torsions:
REMARK  status: ('A' for Active; 'I' for Inactive)
REMARK                            x       y       z     vdW  Elec       q    Type
REMARK                         _______ _______ _______ _____ _____    ______ ____
ROOT
ATOM      1  N   UNL     1       7.318   6.147  16.283  0.00  0.00    +0.000 N 
ATOM      2  C   UNL     1       6.124   5.641  16.634  0.00  0.00    +0.000 A 
ATOM      3  N   UNL     1       5.854   4.355  16.623  0.00  0.00    +0.000 NA
ATOM      4  C   UNL     1       4.592   4.146  17.131  0.00  0.00    +0.000 A 
ATOM      5  C   UNL     1       3.926   5.284  17.537  0.00  0.00    +0.000 A 
ATOM      6  S   UNL     1       4.857   6.663  17.198  0.00  0.00    +0.000 S 
ATOM      7  C   UNL     1       2.604   5.301  18.222  0.00  0.00    +0.000 C 
ATOM      8  C   UNL     1       2.328   3.897  18.824  0.00  0.00    +0.000 C 
ATOM      9  C   UNL     1       2.567   2.808  17.755  0.00  0.00    +0.000 C 
ATOM     10  C   UNL     1       4.049   2.769  17.336  0.00  0.00    +0.000 C 
ATOM     11  O   UNL     1       3.216   3.646  19.939  0.00  0.00    +0.000 OA
ATOM     12  C   UNL     1       2.397   2.977  20.890  0.00  0.00    +0.000 C 
ATOM     13  C   UNL     1       1.093   3.704  20.722  0.00  0.00    +0.000 C 
ATOM     14  O   UNL     1       0.970   3.826  19.298  0.00  0.00    +0.000 OA
ATOM     15  H   UNL     1       8.082   5.482  16.329  0.00  0.00    +0.000 HD
ATOM     16  H   UNL     1       7.552   7.059  16.657  0.00  0.00    +0.000 HD
ENDROOT
TORSDOF 0
ENDMDL
MODEL 5
REMARK VINA RESULT:      -6.3      3.253      5.083
REMARK  Name = 
REMARK  0 active torsions:
REMARK  status: ('A' for Active; 'I' for Inactive)
REMARK                            x       y       z     vdW  Elec       q    Type
REMARK                         _______ _______ _______ _____ _____    ______ ____
ROOT
ATOM      1  N   UNL     1       0.430   2.986  20.274  0.00  0.00    +0.000 N 
ATOM      2  C   UNL     1       1.336   3.486  19.418  0.00  0.00    +0.000 A 
ATOM      3  N   UNL     1       1.723   4.741  19.428  0.00  0.00    +0.000 NA
ATOM      4  C   UNL     1       2.730   4.920  18.507  0.00  0.00    +0.000 A 
ATOM      5  C   UNL     1       3.105   3.784  17.819  0.00  0.00    +0.000 A 
ATOM      6  S   UNL     1       2.119   2.474  18.264  0.00  0.00    +0.000 S 
ATOM      7  C   UNL     1       4.242   3.703  16.862  0.00  0.00    +0.000 C 
ATOM      8  C   UNL     1       5.201   4.896  17.113  0.00  0.00    +0.000 C 
ATOM      9  C   UNL     1       4.400   6.216  17.162  0.00  0.00    +0.000 C 
ATOM     10  C   UNL     1       3.439   6.227  18.367  0.00  0.00    +0.000 C 
ATOM     11  O   UNL     1       5.888   4.731  18.376  0.00  0.00    +0.000 OA
ATOM     12  C   UNL     1       7.212   5.178  18.112  0.00  0.00    +0.000 C 
ATOM     13  C   UNL     1       7.427   4.661  16.718  0.00  0.00    +0.000 C 
ATOM     14  O   UNL     1       6.187   4.962  16.064  0.00  0.00    +0.000 OA
ATOM     15  H   UNL     1       0.311   3.532  21.121  0.00  0.00    +0.000 HD
ATOM     16  H   UNL     1       0.463   1.987  20.439  0.00  0.00    +0.000 HD
ENDROOT
TORSDOF 0
ENDMDL
MODEL 6
REMARK VINA RESULT:      -6.3      1.629      1.929
REMARK  Name = 
REMARK  0 active torsions:
REMARK  status: ('A' for Active; 'I' for Inactive)
REMARK                            x       y       z     vdW  Elec       q    Type
REMARK                         _______ _______ _______ _____ _____    ______ ____
ROOT
ATOM      1  N   UNL     1       7.651   5.449  14.968  0.00  0.00    +0.000 N 
ATOM      2  C   UNL     1       6.808   5.572  16.006  0.00  0.00    +0.000 A 
ATOM      3  N   UNL     1       5.741   6.338  15.983  0.00  0.00    +0.000 NA
ATOM      4  C   UNL     1       5.029   6.171  17.149  0.00  0.00    +0.000 A 
ATOM      5  C   UNL     1       5.563   5.260  18.038  0.00  0.00    +0.000 A 
ATOM      6  S   UNL     1       7.038   4.660  17.450  0.00  0.00    +0.000 S 
ATOM      7  C   UNL     1       4.916   4.827  19.306  0.00  0.00    +0.000 C 
ATOM      8  C   UNL     1       3.401   5.160  19.243  0.00  0.00    +0.000 C 
ATOM      9  C   UNL     1       3.202   6.627  18.802  0.00  0.00    +0.000 C 
ATOM     10  C   UNL     1       3.710   6.840  17.363  0.00  0.00    +0.000 C 
ATOM     11  O   UNL     1       2.739   4.301  18.285  0.00  0.00    +0.000 OA
ATOM     12  C   UNL     1       1.496   3.988  18.901  0.00  0.00    +0.000 C 
ATOM     13  C   UNL     1       1.907   3.846  20.340  0.00  0.00    +0.000 C 
ATOM     14  O   UNL     1       2.799   4.952  20.534  0.00  0.00    +0.000 OA
ATOM     15  H   UNL     1       7.251   5.710  14.074  0.00  0.00    +0.000 HD
ATOM     16  H   UNL     1       8.205   4.602  14.930  0.00  0.00    +0.000 HD
ENDROOT
TORSDOF 0
ENDMDL
MODEL 7
REMARK VINA RESULT:      -6.1      3.363      5.026
REMARK  Name = 
REMARK  0 active torsions:
REMARK  status: ('A' for Active; 'I' for Inactive)
REMARK                            x       y       z     vdW  Elec       q    Type
REMARK                         _______ _______ _______ _____ _____    ______ ____
ROOT
ATOM      1  N   UNL     1       1.921   2.789  22.185  0.00  0.00    +0.000 N 
ATOM      2  C   UNL     1       2.272   3.422  21.053  0.00  0.00    +0.000 A 
ATOM      3  N   UNL     1       2.278   4.730  20.931  0.00  0.00    +0.000 NA
ATOM      4  C   UNL     1       2.780   5.074  19.697  0.00  0.00    +0.000 A 
ATOM      5  C   UNL     1       3.165   4.013  18.903  0.00  0.00    +0.000 A 
ATOM      6  S   UNL     1       2.811   2.542  19.674  0.00  0.00    +0.000 S 
ATOM      7  C   UNL     1       3.840   4.137  17.581  0.00  0.00    +0.000 C 
ATOM      8  C   UNL     1       4.461   5.554  17.460  0.00  0.00    +0.000 C 
ATOM      9  C   UNL     1       3.411   6.624  17.831  0.00  0.00    +0.000 C 
ATOM     10  C   UNL     1       3.003   6.500  19.312  0.00  0.00    +0.000 C 
ATOM     11  O   UNL     1       5.586   5.686  18.361  0.00  0.00    +0.000 OA
ATOM     12  C   UNL     1       6.542   6.430  17.615  0.00  0.00    +0.000 C 
ATOM     13  C   UNL     1       6.353   5.859  16.239  0.00  0.00    +0.000 C 
ATOM     14  O   UNL     1       4.927   5.771  16.115  0.00  0.00    +0.000 OA
ATOM     15  H   UNL     1       1.983   3.362  23.019  0.00  0.00    +0.000 HD
ATOM     16  H   UNL     1       2.283   1.851  22.311  0.00  0.00    +0.000 HD
ENDROOT
TORSDOF 0
ENDMDL
MODEL 8
REMARK VINA RESULT:      -5.9      3.441      5.362
REMARK  Name = 
REMARK  0 active torsions:
REMARK  status: ('A' for Active; 'I' for Inactive)
REMARK                            x       y       z     vdW  Elec       q    Type
REMARK                         _______ _______ _______ _____ _____    ______ ____
ROOT
ATOM      1  N   UNL     1       1.735   6.095  20.250  0.00  0.00    +0.000 N 
ATOM      2  C   UNL     1       2.860   6.086  19.515  0.00  0.00    +0.000 A 
ATOM      3  N   UNL     1       3.861   5.266  19.739  0.00  0.00    +0.000 NA
ATOM      4  C   UNL     1       4.815   5.427  18.761  0.00  0.00    +0.000 A 
ATOM      5  C   UNL     1       4.512   6.363  17.793  0.00  0.00    +0.000 A 
ATOM      6  S   UNL     1       3.040   7.129  18.156  0.00  0.00    +0.000 S 
ATOM      7  C   UNL     1       5.329   6.629  16.578  0.00  0.00    +0.000 C 
ATOM      8  C   UNL     1       6.264   5.417  16.320  0.00  0.00    +0.000 C 
ATOM      9  C   UNL     1       7.013   5.043  17.619  0.00  0.00    +0.000 C 
ATOM     10  C   UNL     1       6.027   4.555  18.697  0.00  0.00    +0.000 C 
ATOM     11  O   UNL     1       5.492   4.271  15.891  0.00  0.00    +0.000 OA
ATOM     12  C   UNL     1       6.295   3.670  14.883  0.00  0.00    +0.000 C 
ATOM     13  C   UNL     1       6.861   4.880  14.194  0.00  0.00    +0.000 C 
ATOM     14  O   UNL     1       7.213   5.741  15.286  0.00  0.00    +0.000 OA
ATOM     15  H   UNL     1       1.565   5.236  20.761  0.00  0.00    +0.000 HD
ATOM     16  H   UNL     1       0.906   6.473  19.807  0.00  0.00    +0.000 HD
ENDROOT
TORSDOF 0
ENDMDL
MODEL 9
REMARK VINA RESULT:      -5.9      1.622      1.909
REMARK  Name = 
REMARK  0 active torsions:
REMARK  status: ('A' for Active; 'I' for Inactive)
REMARK                            x       y       z     vdW  Elec       q    Type
REMARK                         _______ _______ _______ _____ _____    ______ ____
ROOT
ATOM      1  N   UNL     1       7.529   6.592  16.365  0.00  0.00    +0.000 N 
ATOM      2  C   UNL     1       6.587   6.153  17.216  0.00  0.00    +0.000 A 
ATOM      3  N   UNL     1       5.422   6.742  17.368  0.00  0.00    +0.000 NA
ATOM      4  C   UNL     1       4.642   6.001  18.226  0.00  0.00    +0.000 A 
ATOM      5  C   UNL     1       5.226   4.844  18.701  0.00  0.00    +0.000 A 
ATOM      6  S   UNL     1       6.823   4.717  18.138  0.00  0.00    +0.000 S 
ATOM      7  C   UNL     1       4.542   3.827  19.546  0.00  0.00    +0.000 C 
ATOM      8  C   UNL     1       3.006   4.005  19.408  0.00  0.00    +0.000 C 
ATOM      9  C   UNL     1       2.625   5.487  19.623  0.00  0.00    +0.000 C 
ATOM     10  C   UNL     1       3.223   6.372  18.511  0.00  0.00    +0.000 C 
ATOM     11  O   UNL     1       2.572   3.609  18.086  0.00  0.00    +0.000 OA
ATOM     12  C   UNL     1       1.341   2.933  18.314  0.00  0.00    +0.000 C 
ATOM     13  C   UNL     1       1.637   2.201  19.592  0.00  0.00    +0.000 C 
ATOM     14  O   UNL     1       2.329   3.182  20.377  0.00  0.00    +0.000 OA
ATOM     15  H   UNL     1       7.176   7.187  15.623  0.00  0.00    +0.000 HD
ATOM     16  H   UNL     1       8.207   5.910  16.046  0.00  0.00    +0.000 HD
ENDROOT
TORSDOF 0
ENDMDL
