MODEL 1
REMARK VINA RESULT:      -8.6      0.000      0.000
REMARK  Name = 
REMARK  7 active torsions:
REMARK  status: ('A' for Active; 'I' for Inactive)
REMARK    1  A    between atoms: C_1  and  O_2
REMARK    2  A    between atoms: O_2  and  C_3
REMARK    3  A    between atoms: N_11  and  C_12
REMARK    4  A    between atoms: C_12  and  C_13
REMARK    5  A    between atoms: C_13  and  N_14
REMARK    6  A    between atoms: C_17  and  C_18
REMARK    7  A    between atoms: C_24  and  C_25
REMARK                            x       y       z     vdW  Elec       q    Type
REMARK                         _______ _______ _______ _____ _____    ______ ____
ROOT
ATOM      1  N   UNL     1       1.089   4.339  20.537  0.00  0.00    +0.000 NA
ATOM      2  C   UNL     1       1.219   3.969  19.118  0.00  0.00    +0.000 C 
ATOM      3  C   UNL     1       1.640   2.507  18.959  0.00  0.00    +0.000 C 
ATOM      4  C   UNL     1       2.963   2.206  19.666  0.00  0.00    +0.000 C 
ATOM      5  C   UNL     1       2.903   2.714  21.111  0.00  0.00    +0.000 C 
ATOM      6  C   UNL     1       2.378   4.153  21.232  0.00  0.00    +0.000 C 
ENDROOT
BRANCH   4   7
ATOM      7  C   UNL     1       4.099   2.804  18.887  0.00  0.00    +0.000 A 
ATOM      8  N   UNL     1       5.032   3.589  19.379  0.00  0.00    +0.000 NA
ATOM      9  C   UNL     1       5.641   4.159  18.301  0.00  0.00    +0.000 A 
ATOM     10  C   UNL     1       6.498   5.258  18.255  0.00  0.00    +0.000 A 
ATOM     11  C   UNL     1       6.921   5.704  17.001  0.00  0.00    +0.000 A 
ATOM     12 CL   UNL     1       7.717   7.240  16.948  0.00  0.00    +0.000 Cl
ATOM     13  C   UNL     1       6.642   4.979  15.826  0.00  0.00    +0.000 A 
ATOM     14  C   UNL     1       7.261   5.359  14.507  0.00  0.00    +0.000 C 
ATOM     15  C   UNL     1       5.786   3.860  15.878  0.00  0.00    +0.000 A 
ATOM     16  C   UNL     1       5.233   3.553  17.123  0.00  0.00    +0.000 A 
ATOM     17  N   UNL     1       4.181   2.759  17.513  0.00  0.00    +0.000 N 
ATOM     18  H   UNL     1       3.474   2.386  16.895  0.00  0.00    +0.000 HD
ENDBRANCH   4   7
BRANCH   1  19
ATOM     19  C   UNL     1       0.635   5.745  20.676  0.00  0.00    +0.000 C 
BRANCH  19  20
ATOM     20  C   UNL     1       1.808   6.747  20.784  0.00  0.00    +0.000 C 
BRANCH  20  29
ATOM     21  C   UNL     1      -0.356  10.421  21.681  0.00  0.00    +0.000 A 
ATOM     22  C   UNL     1      -0.350  11.462  20.761  0.00  0.00    +0.000 A 
ATOM     23  C   UNL     1       0.342  11.307  19.555  0.00  0.00    +0.000 A 
ATOM     24  C   UNL     1       1.036  10.135  19.261  0.00  0.00    +0.000 A 
ATOM     25  N   UNL     1       1.721  10.077  18.035  0.00  0.00    +0.000 NA
ATOM     26  C   UNL     1       2.343   8.978  17.751  0.00  0.00    +0.000 A 
ATOM     27  C   UNL     1       2.366   7.757  18.631  0.00  0.00    +0.000 A 
ATOM     28  O   UNL     1       2.967   6.775  18.206  0.00  0.00    +0.000 OA
ATOM     29  N   UNL     1       1.723   7.870  19.853  0.00  0.00    +0.000 N 
ATOM     30  C   UNL     1       1.024   9.063  20.181  0.00  0.00    +0.000 A 
ATOM     31  C   UNL     1       0.333   9.233  21.389  0.00  0.00    +0.000 A 
BRANCH  21  33
ATOM     32  C   UNL     1      -1.793  11.554  23.188  0.00  0.00    +0.000 C 
ATOM     33  O   UNL     1      -0.983  10.437  22.897  0.00  0.00    +0.000 OA
ENDBRANCH  21  33
ENDBRANCH  20  29
ENDBRANCH  19  20
ENDBRANCH   1  19
TORSDOF 5
ENDMDL
MODEL 2
REMARK VINA RESULT:      -7.8      2.916      8.021
REMARK  Name = 
REMARK  7 active torsions:
REMARK  status: ('A' for Active; 'I' for Inactive)
REMARK    1  A    between atoms: C_1  and  O_2
REMARK    2  A    between atoms: O_2  and  C_3
REMARK    3  A    between atoms: N_11  and  C_12
REMARK    4  A    between atoms: C_12  and  C_13
REMARK    5  A    between atoms: C_13  and  N_14
REMARK    6  A    between atoms: C_17  and  C_18
REMARK    7  A    between atoms: C_24  and  C_25
REMARK                            x       y       z     vdW  Elec       q    Type
REMARK                         _______ _______ _______ _____ _____    ______ ____
ROOT
ATOM      1  N   UNL     1       3.181   2.649  18.584  0.00  0.00    +0.000 NA
ATOM      2  C   UNL     1       3.827   3.402  19.673  0.00  0.00    +0.000 C 
ATOM      3  C   UNL     1       2.940   3.451  20.918  0.00  0.00    +0.000 C 
ATOM      4  C   UNL     1       1.575   4.080  20.632  0.00  0.00    +0.000 C 
ATOM      5  C   UNL     1       0.944   3.406  19.408  0.00  0.00    +0.000 C 
ATOM      6  C   UNL     1       1.902   3.286  18.214  0.00  0.00    +0.000 C 
ENDROOT
BRANCH   4   7
ATOM      7  C   UNL     1       1.728   5.564  20.464  0.00  0.00    +0.000 A 
ATOM      8  N   UNL     1       1.275   6.477  21.294  0.00  0.00    +0.000 NA
ATOM      9  C   UNL     1       1.328   7.656  20.611  0.00  0.00    +0.000 A 
ATOM     10  C   UNL     1       0.725   8.875  20.915  0.00  0.00    +0.000 A 
ATOM     11  C   UNL     1       0.862   9.919  19.997  0.00  0.00    +0.000 A 
ATOM     12 CL   UNL     1      -0.145  11.307  20.237  0.00  0.00    +0.000 Cl
ATOM     13  C   UNL     1       1.717   9.815  18.882  0.00  0.00    +0.000 A 
ATOM     14  C   UNL     1       2.010  11.004  18.006  0.00  0.00    +0.000 C 
ATOM     15  C   UNL     1       2.337   8.583  18.586  0.00  0.00    +0.000 A 
ATOM     16  C   UNL     1       2.030   7.511  19.425  0.00  0.00    +0.000 A 
ATOM     17  N   UNL     1       2.191   6.150  19.307  0.00  0.00    +0.000 N 
ATOM     18  H   UNL     1       2.411   5.664  18.450  0.00  0.00    +0.000 HD
ENDBRANCH   4   7
BRANCH   1  19
ATOM     19  C   UNL     1       4.071   2.568  17.399  0.00  0.00    +0.000 C 
BRANCH  19  20
ATOM     20  C   UNL     1       3.933   3.791  16.461  0.00  0.00    +0.000 C 
BRANCH  20  29
ATOM     21  C   UNL     1       5.955   3.401  12.620  0.00  0.00    +0.000 A 
ATOM     22  C   UNL     1       7.132   4.102  12.390  0.00  0.00    +0.000 A 
ATOM     23  C   UNL     1       7.654   4.914  13.403  0.00  0.00    +0.000 A 
ATOM     24  C   UNL     1       7.013   5.044  14.634  0.00  0.00    +0.000 A 
ATOM     25  N   UNL     1       7.600   5.898  15.583  0.00  0.00    +0.000 NA
ATOM     26  C   UNL     1       7.019   5.997  16.736  0.00  0.00    +0.000 A 
ATOM     27  C   UNL     1       5.776   5.248  17.133  0.00  0.00    +0.000 A 
ATOM     28  O   UNL     1       5.364   5.415  18.278  0.00  0.00    +0.000 OA
ATOM     29  N   UNL     1       5.198   4.455  16.155  0.00  0.00    +0.000 N 
ATOM     30  C   UNL     1       5.825   4.322  14.885  0.00  0.00    +0.000 A 
ATOM     31  C   UNL     1       5.307   3.517  13.861  0.00  0.00    +0.000 A 
BRANCH  21  33
ATOM     32  C   UNL     1       6.061   1.468  11.252  0.00  0.00    +0.000 C 
ATOM     33  O   UNL     1       5.330   2.578  11.723  0.00  0.00    +0.000 OA
ENDBRANCH  21  33
ENDBRANCH  20  29
ENDBRANCH  19  20
ENDBRANCH   1  19
TORSDOF 5
ENDMDL
MODEL 3
REMARK VINA RESULT:      -7.6      3.572      8.796
REMARK  Name = 
REMARK  7 active torsions:
REMARK  status: ('A' for Active; 'I' for Inactive)
REMARK    1  A    between atoms: C_1  and  O_2
REMARK    2  A    between atoms: O_2  and  C_3
REMARK    3  A    between atoms: N_11  and  C_12
REMARK    4  A    between atoms: C_12  and  C_13
REMARK    5  A    between atoms: C_13  and  N_14
REMARK    6  A    between atoms: C_17  and  C_18
REMARK    7  A    between atoms: C_24  and  C_25
REMARK                            x       y       z     vdW  Elec       q    Type
REMARK                         _______ _______ _______ _____ _____    ______ ____
ROOT
ATOM      1  N   UNL     1       2.173   7.882  19.939  0.00  0.00    +0.000 NA
ATOM      2  C   UNL     1       1.997   8.597  18.664  0.00  0.00    +0.000 C 
ATOM      3  C   UNL     1       2.012  10.113  18.869  0.00  0.00    +0.000 C 
ATOM      4  C   UNL     1       0.926  10.576  19.843  0.00  0.00    +0.000 C 
ATOM      5  C   UNL     1       0.998   9.743  21.128  0.00  0.00    +0.000 C 
ATOM      6  C   UNL     1       1.084   8.231  20.873  0.00  0.00    +0.000 C 
ENDROOT
BRANCH   4   7
ATOM      7  C   UNL     1      -0.417  10.499  19.175  0.00  0.00    +0.000 A 
ATOM      8  N   UNL     1      -0.717   9.733  18.150  0.00  0.00    +0.000 NA
ATOM      9  C   UNL     1      -1.897  10.211  17.664  0.00  0.00    +0.000 A 
ATOM     10  C   UNL     1      -2.515   9.948  16.442  0.00  0.00    +0.000 A 
ATOM     11  C   UNL     1      -3.690  10.641  16.142  0.00  0.00    +0.000 A 
ATOM     12 CL   UNL     1      -4.262  10.537  14.511  0.00  0.00    +0.000 Cl
ATOM     13  C   UNL     1      -4.334  11.452  17.097  0.00  0.00    +0.000 A 
ATOM     14  C   UNL     1      -5.695  12.040  16.834  0.00  0.00    +0.000 C 
ATOM     15  C   UNL     1      -3.712  11.705  18.337  0.00  0.00    +0.000 A 
ATOM     16  C   UNL     1      -2.449  11.141  18.530  0.00  0.00    +0.000 A 
ATOM     17  N   UNL     1      -1.444  11.379  19.437  0.00  0.00    +0.000 N 
ATOM     18  H   UNL     1      -1.385  12.186  20.041  0.00  0.00    +0.000 HD
ENDBRANCH   4   7
BRANCH   1  19
ATOM     19  C   UNL     1       2.204   6.414  19.721  0.00  0.00    +0.000 C 
BRANCH  19  20
ATOM     20  C   UNL     1       2.008   6.023  18.237  0.00  0.00    +0.000 C 
BRANCH  20  29
ATOM     21  C   UNL     1       6.160   6.509  17.009  0.00  0.00    +0.000 A 
ATOM     22  C   UNL     1       6.904   5.393  16.648  0.00  0.00    +0.000 A 
ATOM     23  C   UNL     1       6.301   4.131  16.675  0.00  0.00    +0.000 A 
ATOM     24  C   UNL     1       4.973   3.967  17.066  0.00  0.00    +0.000 A 
ATOM     25  N   UNL     1       4.459   2.660  17.083  0.00  0.00    +0.000 NA
ATOM     26  C   UNL     1       3.218   2.511  17.421  0.00  0.00    +0.000 A 
ATOM     27  C   UNL     1       2.289   3.640  17.776  0.00  0.00    +0.000 A 
ATOM     28  O   UNL     1       1.126   3.345  18.037  0.00  0.00    +0.000 OA
ATOM     29  N   UNL     1       2.845   4.909  17.797  0.00  0.00    +0.000 N 
ATOM     30  C   UNL     1       4.202   5.097  17.419  0.00  0.00    +0.000 A 
ATOM     31  C   UNL     1       4.819   6.356  17.395  0.00  0.00    +0.000 A 
BRANCH  21  33
ATOM     32  C   UNL     1       7.870   8.022  17.649  0.00  0.00    +0.000 C 
ATOM     33  O   UNL     1       6.620   7.798  17.034  0.00  0.00    +0.000 OA
ENDBRANCH  21  33
ENDBRANCH  20  29
ENDBRANCH  19  20
ENDBRANCH   1  19
TORSDOF 5
ENDMDL
MODEL 4
REMARK VINA RESULT:      -7.5      3.154      8.487
REMARK  Name = 
REMARK  7 active torsions:
REMARK  status: ('A' for Active; 'I' for Inactive)
REMARK    1  A    between atoms: C_1  and  O_2
REMARK    2  A    between atoms: O_2  and  C_3
REMARK    3  A    between atoms: N_11  and  C_12
REMARK    4  A    between atoms: C_12  and  C_13
REMARK    5  A    between atoms: C_13  and  N_14
REMARK    6  A    between atoms: C_17  and  C_18
REMARK    7  A    between atoms: C_24  and  C_25
REMARK                            x       y       z     vdW  Elec       q    Type
REMARK                         _______ _______ _______ _____ _____    ______ ____
ROOT
ATOM      1  N   UNL     1       1.122   8.459  19.498  0.00  0.00    +0.000 NA
ATOM      2  C   UNL     1       1.051   9.346  20.670  0.00  0.00    +0.000 C 
ATOM      3  C   UNL     1      -0.217  10.202  20.646  0.00  0.00    +0.000 C 
ATOM      4  C   UNL     1      -0.315  11.056  19.380  0.00  0.00    +0.000 C 
ATOM      5  C   UNL     1      -0.100  10.173  18.145  0.00  0.00    +0.000 C 
ATOM      6  C   UNL     1       1.128   9.256  18.255  0.00  0.00    +0.000 C 
ENDROOT
BRANCH   4   7
ATOM      7  C   UNL     1       0.665  12.191  19.460  0.00  0.00    +0.000 A 
ATOM      8  N   UNL     1       1.219  12.795  18.432  0.00  0.00    +0.000 NA
ATOM      9  C   UNL     1       2.264  13.507  18.942  0.00  0.00    +0.000 A 
ATOM     10  C   UNL     1       3.334  14.099  18.272  0.00  0.00    +0.000 A 
ATOM     11  C   UNL     1       4.332  14.702  19.040  0.00  0.00    +0.000 A 
ATOM     12 CL   UNL     1       5.789  15.147  18.216  0.00  0.00    +0.000 Cl
ATOM     13  C   UNL     1       4.195  14.867  20.433  0.00  0.00    +0.000 A 
ATOM     14  C   UNL     1       5.180  15.685  21.225  0.00  0.00    +0.000 C 
ATOM     15  C   UNL     1       3.104  14.278  21.105  0.00  0.00    +0.000 A 
ATOM     16  C   UNL     1       2.223  13.525  20.327  0.00  0.00    +0.000 A 
ATOM     17  N   UNL     1       1.252  12.602  20.636  0.00  0.00    +0.000 N 
ATOM     18  H   UNL     1       1.140  12.156  21.536  0.00  0.00    +0.000 HD
ENDBRANCH   4   7
BRANCH   1  19
ATOM     19  C   UNL     1       2.332   7.602  19.557  0.00  0.00    +0.000 C 
BRANCH  19  20
ATOM     20  C   UNL     1       2.452   6.647  18.346  0.00  0.00    +0.000 C 
BRANCH  20  29
ATOM     21  C   UNL     1       6.724   6.809  17.502  0.00  0.00    +0.000 A 
ATOM     22  C   UNL     1       7.521   5.705  17.780  0.00  0.00    +0.000 A 
ATOM     23  C   UNL     1       6.932   4.555  18.316  0.00  0.00    +0.000 A 
ATOM     24  C   UNL     1       5.567   4.495  18.588  0.00  0.00    +0.000 A 
ATOM     25  N   UNL     1       5.069   3.305  19.146  0.00  0.00    +0.000 NA
ATOM     26  C   UNL     1       3.796   3.241  19.374  0.00  0.00    +0.000 A 
ATOM     27  C   UNL     1       2.816   4.340  19.064  0.00  0.00    +0.000 A 
ATOM     28  O   UNL     1       1.632   4.116  19.300  0.00  0.00    +0.000 OA
ATOM     29  N   UNL     1       3.351   5.516  18.563  0.00  0.00    +0.000 N 
ATOM     30  C   UNL     1       4.745   5.605  18.295  0.00  0.00    +0.000 A 
ATOM     31  C   UNL     1       5.345   6.756  17.764  0.00  0.00    +0.000 A 
BRANCH  21  33
ATOM     32  C   UNL     1       8.063   8.748  17.770  0.00  0.00    +0.000 C 
ATOM     33  O   UNL     1       7.163   7.998  16.984  0.00  0.00    +0.000 OA
ENDBRANCH  21  33
ENDBRANCH  20  29
ENDBRANCH  19  20
ENDBRANCH   1  19
TORSDOF 5
ENDMDL
MODEL 5
REMARK VINA RESULT:      -7.4      3.589      8.897
REMARK  Name = 
REMARK  7 active torsions:
REMARK  status: ('A' for Active; 'I' for Inactive)
REMARK    1  A    between atoms: C_1  and  O_2
REMARK    2  A    between atoms: O_2  and  C_3
REMARK    3  A    between atoms: N_11  and  C_12
REMARK    4  A    between atoms: C_12  and  C_13
REMARK    5  A    between atoms: C_13  and  N_14
REMARK    6  A    between atoms: C_17  and  C_18
REMARK    7  A    between atoms: C_24  and  C_25
REMARK                            x       y       z     vdW  Elec       q    Type
REMARK                         _______ _______ _______ _____ _____    ______ ____
ROOT
ATOM      1  N   UNL     1       1.092   8.444  19.355  0.00  0.00    +0.000 NA
ATOM      2  C   UNL     1       0.913   9.321  20.524  0.00  0.00    +0.000 C 
ATOM      3  C   UNL     1      -0.405  10.095  20.442  0.00  0.00    +0.000 C 
ATOM      4  C   UNL     1      -0.498  10.946  19.173  0.00  0.00    +0.000 C 
ATOM      5  C   UNL     1      -0.172  10.083  17.949  0.00  0.00    +0.000 C 
ATOM      6  C   UNL     1       1.105   9.244  18.114  0.00  0.00    +0.000 C 
ENDROOT
BRANCH   4   7
ATOM      7  C   UNL     1       0.403  12.140  19.299  0.00  0.00    +0.000 A 
ATOM      8  N   UNL     1       0.309  13.074  20.220  0.00  0.00    +0.000 NA
ATOM      9  C   UNL     1       1.077  14.109  19.776  0.00  0.00    +0.000 A 
ATOM     10  C   UNL     1       1.113  15.430  20.220  0.00  0.00    +0.000 A 
ATOM     11  C   UNL     1       1.932  16.329  19.532  0.00  0.00    +0.000 A 
ATOM     12 CL   UNL     1       1.724  18.008  19.896  0.00  0.00    +0.000 Cl
ATOM     13  C   UNL     1       2.825  15.897  18.532  0.00  0.00    +0.000 A 
ATOM     14  C   UNL     1       3.839  16.835  17.931  0.00  0.00    +0.000 C 
ATOM     15  C   UNL     1       2.795  14.557  18.094  0.00  0.00    +0.000 A 
ATOM     16  C   UNL     1       1.834  13.730  18.679  0.00  0.00    +0.000 A 
ATOM     17  N   UNL     1       1.318  12.503  18.335  0.00  0.00    +0.000 N 
ATOM     18  H   UNL     1       1.433  12.055  17.437  0.00  0.00    +0.000 HD
ENDBRANCH   4   7
BRANCH   1  19
ATOM     19  C   UNL     1       2.350   7.664  19.469  0.00  0.00    +0.000 C 
BRANCH  19  20
ATOM     20  C   UNL     1       2.576   6.710  18.273  0.00  0.00    +0.000 C 
BRANCH  20  29
ATOM     21  C   UNL     1       6.857   6.686  17.461  0.00  0.00    +0.000 A 
ATOM     22  C   UNL     1       7.617   5.579  17.819  0.00  0.00    +0.000 A 
ATOM     23  C   UNL     1       6.989   4.485  18.424  0.00  0.00    +0.000 A 
ATOM     24  C   UNL     1       5.621   4.484  18.687  0.00  0.00    +0.000 A 
ATOM     25  N   UNL     1       5.082   3.351  19.318  0.00  0.00    +0.000 NA
ATOM     26  C   UNL     1       3.806   3.340  19.537  0.00  0.00    +0.000 A 
ATOM     27  C   UNL     1       2.863   4.446  19.146  0.00  0.00    +0.000 A 
ATOM     28  O   UNL     1       1.671   4.274  19.385  0.00  0.00    +0.000 OA
ATOM     29  N   UNL     1       3.438   5.569  18.573  0.00  0.00    +0.000 N 
ATOM     30  C   UNL     1       4.835   5.597  18.313  0.00  0.00    +0.000 A 
ATOM     31  C   UNL     1       5.476   6.691  17.713  0.00  0.00    +0.000 A 
BRANCH  21  33
ATOM     32  C   UNL     1       7.921   8.789  17.715  0.00  0.00    +0.000 C 
ATOM     33  O   UNL     1       7.337   7.823  16.870  0.00  0.00    +0.000 OA
ENDBRANCH  21  33
ENDBRANCH  20  29
ENDBRANCH  19  20
ENDBRANCH   1  19
TORSDOF 5
ENDMDL
MODEL 6
REMARK VINA RESULT:      -7.4      3.147      8.540
REMARK  Name = 
REMARK  7 active torsions:
REMARK  status: ('A' for Active; 'I' for Inactive)
REMARK    1  A    between atoms: C_1  and  O_2
REMARK    2  A    between atoms: O_2  and  C_3
REMARK    3  A    between atoms: N_11  and  C_12
REMARK    4  A    between atoms: C_12  and  C_13
REMARK    5  A    between atoms: C_13  and  N_14
REMARK    6  A    between atoms: C_17  and  C_18
REMARK    7  A    between atoms: C_24  and  C_25
REMARK                            x       y       z     vdW  Elec       q    Type
REMARK                         _______ _______ _______ _____ _____    ______ ____
ROOT
ATOM      1  N   UNL     1       1.223   8.478  18.943  0.00  0.00    +0.000 NA
ATOM      2  C   UNL     1       1.491   9.136  20.233  0.00  0.00    +0.000 C 
ATOM      3  C   UNL     1       0.260   9.889  20.741  0.00  0.00    +0.000 C 
ATOM      4  C   UNL     1      -0.225  10.945  19.745  0.00  0.00    +0.000 C 
ATOM      5  C   UNL     1      -0.374  10.313  18.356  0.00  0.00    +0.000 C 
ATOM      6  C   UNL     1       0.845   9.482  17.928  0.00  0.00    +0.000 C 
ENDROOT
BRANCH   4   7
ATOM      7  C   UNL     1       0.715  12.115  19.753  0.00  0.00    +0.000 A 
ATOM      8  N   UNL     1       1.121  12.775  18.690  0.00  0.00    +0.000 NA
ATOM      9  C   UNL     1       2.193  13.511  19.100  0.00  0.00    +0.000 A 
ATOM     10  C   UNL     1       3.153  14.168  18.332  0.00  0.00    +0.000 A 
ATOM     11  C   UNL     1       4.214  14.785  18.999  0.00  0.00    +0.000 A 
ATOM     12 CL   UNL     1       5.544  15.316  18.026  0.00  0.00    +0.000 Cl
ATOM     13  C   UNL     1       4.238  14.897  20.403  0.00  0.00    +0.000 A 
ATOM     14  C   UNL     1       5.281  15.727  21.104  0.00  0.00    +0.000 C 
ATOM     15  C   UNL     1       3.257  14.242  21.177  0.00  0.00    +0.000 A 
ATOM     16  C   UNL     1       2.317  13.481  20.480  0.00  0.00    +0.000 A 
ATOM     17  N   UNL     1       1.424  12.510  20.866  0.00  0.00    +0.000 N 
ATOM     18  H   UNL     1       1.436  12.030  21.754  0.00  0.00    +0.000 HD
ENDBRANCH   4   7
BRANCH   1  19
ATOM     19  C   UNL     1       2.409   7.713  18.484  0.00  0.00    +0.000 C 
BRANCH  19  20
ATOM     20  C   UNL     1       2.718   6.490  19.378  0.00  0.00    +0.000 C 
BRANCH  20  29
ATOM     21  C   UNL     1       6.096   6.046  16.662  0.00  0.00    +0.000 A 
ATOM     22  C   UNL     1       6.312   4.829  16.028  0.00  0.00    +0.000 A 
ATOM     23  C   UNL     1       5.431   3.768  16.266  0.00  0.00    +0.000 A 
ATOM     24  C   UNL     1       4.348   3.902  17.133  0.00  0.00    +0.000 A 
ATOM     25  N   UNL     1       3.530   2.776  17.327  0.00  0.00    +0.000 NA
ATOM     26  C   UNL     1       2.509   2.909  18.112  0.00  0.00    +0.000 A 
ATOM     27  C   UNL     1       2.130   4.187  18.811  0.00  0.00    +0.000 A 
ATOM     28  O   UNL     1       1.109   4.168  19.492  0.00  0.00    +0.000 OA
ATOM     29  N   UNL     1       2.988   5.260  18.636  0.00  0.00    +0.000 N 
ATOM     30  C   UNL     1       4.109   5.140  17.770  0.00  0.00    +0.000 A 
ATOM     31  C   UNL     1       5.002   6.194  17.530  0.00  0.00    +0.000 A 
BRANCH  21  33
ATOM     32  C   UNL     1       7.638   7.553  17.648  0.00  0.00    +0.000 C 
ATOM     33  O   UNL     1       6.876   7.163  16.527  0.00  0.00    +0.000 OA
ENDBRANCH  21  33
ENDBRANCH  20  29
ENDBRANCH  19  20
ENDBRANCH   1  19
TORSDOF 5
ENDMDL
MODEL 7
REMARK VINA RESULT:      -7.4      3.518      8.616
REMARK  Name = 
REMARK  7 active torsions:
REMARK  status: ('A' for Active; 'I' for Inactive)
REMARK    1  A    between atoms: C_1  and  O_2
REMARK    2  A    between atoms: O_2  and  C_3
REMARK    3  A    between atoms: N_11  and  C_12
REMARK    4  A    between atoms: C_12  and  C_13
REMARK    5  A    between atoms: C_13  and  N_14
REMARK    6  A    between atoms: C_17  and  C_18
REMARK    7  A    between atoms: C_24  and  C_25
REMARK                            x       y       z     vdW  Elec       q    Type
REMARK                         _______ _______ _______ _____ _____    ______ ____
ROOT
ATOM      1  N   UNL     1       1.822   7.558  20.546  0.00  0.00    +0.000 NA
ATOM      2  C   UNL     1       1.738   7.849  19.105  0.00  0.00    +0.000 C 
ATOM      3  C   UNL     1       2.055   9.317  18.814  0.00  0.00    +0.000 C 
ATOM      4  C   UNL     1       1.119  10.270  19.560  0.00  0.00    +0.000 C 
ATOM      5  C   UNL     1       1.078   9.893  21.046  0.00  0.00    +0.000 C 
ATOM      6  C   UNL     1       0.859   8.393  21.291  0.00  0.00    +0.000 C 
ENDROOT
BRANCH   4   7
ATOM      7  C   UNL     1      -0.239  10.250  18.919  0.00  0.00    +0.000 A 
ATOM      8  N   UNL     1      -0.566   9.562  17.847  0.00  0.00    +0.000 NA
ATOM      9  C   UNL     1      -1.753  10.081  17.423  0.00  0.00    +0.000 A 
ATOM     10  C   UNL     1      -2.399   9.911  16.200  0.00  0.00    +0.000 A 
ATOM     11  C   UNL     1      -3.575  10.631  15.977  0.00  0.00    +0.000 A 
ATOM     12 CL   UNL     1      -4.183  10.650  14.356  0.00  0.00    +0.000 Cl
ATOM     13  C   UNL     1      -4.193  11.374  17.002  0.00  0.00    +0.000 A 
ATOM     14  C   UNL     1      -5.555  11.987  16.813  0.00  0.00    +0.000 C 
ATOM     15  C   UNL     1      -3.542  11.532  18.244  0.00  0.00    +0.000 A 
ATOM     16  C   UNL     1      -2.280  10.949  18.366  0.00  0.00    +0.000 A 
ATOM     17  N   UNL     1      -1.253  11.114  19.266  0.00  0.00    +0.000 N 
ATOM     18  H   UNL     1      -1.176  11.874  19.926  0.00  0.00    +0.000 HD
ENDBRANCH   4   7
BRANCH   1  19
ATOM     19  C   UNL     1       1.558   6.121  20.810  0.00  0.00    +0.000 C 
BRANCH  19  20
ATOM     20  C   UNL     1       2.824   5.242  20.668  0.00  0.00    +0.000 C 
BRANCH  20  29
ATOM     21  C   UNL     1       6.232   5.482  17.964  0.00  0.00    +0.000 A 
ATOM     22  C   UNL     1       6.248   4.708  16.810  0.00  0.00    +0.000 A 
ATOM     23  C   UNL     1       5.161   3.872  16.532  0.00  0.00    +0.000 A 
ATOM     24  C   UNL     1       4.067   3.790  17.391  0.00  0.00    +0.000 A 
ATOM     25  N   UNL     1       3.032   2.908  17.040  0.00  0.00    +0.000 NA
ATOM     26  C   UNL     1       2.004   2.852  17.826  0.00  0.00    +0.000 A 
ATOM     27  C   UNL     1       1.835   3.679  19.072  0.00  0.00    +0.000 A 
ATOM     28  O   UNL     1       0.785   3.544  19.693  0.00  0.00    +0.000 OA
ATOM     29  N   UNL     1       2.898   4.500  19.412  0.00  0.00    +0.000 N 
ATOM     30  C   UNL     1       4.032   4.585  18.559  0.00  0.00    +0.000 A 
ATOM     31  C   UNL     1       5.130   5.414  18.832  0.00  0.00    +0.000 A 
BRANCH  21  33
ATOM     32  C   UNL     1       7.452   7.476  17.565  0.00  0.00    +0.000 C 
ATOM     33  O   UNL     1       7.224   6.336  18.364  0.00  0.00    +0.000 OA
ENDBRANCH  21  33
ENDBRANCH  20  29
ENDBRANCH  19  20
ENDBRANCH   1  19
TORSDOF 5
ENDMDL
MODEL 8
REMARK VINA RESULT:      -7.4      3.599      8.678
REMARK  Name = 
REMARK  7 active torsions:
REMARK  status: ('A' for Active; 'I' for Inactive)
REMARK    1  A    between atoms: C_1  and  O_2
REMARK    2  A    between atoms: O_2  and  C_3
REMARK    3  A    between atoms: N_11  and  C_12
REMARK    4  A    between atoms: C_12  and  C_13
REMARK    5  A    between atoms: C_13  and  N_14
REMARK    6  A    between atoms: C_17  and  C_18
REMARK    7  A    between atoms: C_24  and  C_25
REMARK                            x       y       z     vdW  Elec       q    Type
REMARK                         _______ _______ _______ _____ _____    ______ ____
ROOT
ATOM      1  N   UNL     1       1.121   8.362  19.816  0.00  0.00    +0.000 NA
ATOM      2  C   UNL     1       1.294   9.140  21.054  0.00  0.00    +0.000 C 
ATOM      3  C   UNL     1       0.147  10.133  21.253  0.00  0.00    +0.000 C 
ATOM      4  C   UNL     1       0.014  11.106  20.079  0.00  0.00    +0.000 C 
ATOM      5  C   UNL     1      -0.023  10.322  18.762  0.00  0.00    +0.000 C 
ATOM      6  C   UNL     1       1.086   9.265  18.648  0.00  0.00    +0.000 C 
ENDROOT
BRANCH   4   7
ATOM      7  C   UNL     1       1.130  12.109  20.127  0.00  0.00    +0.000 A 
ATOM      8  N   UNL     1       1.534  12.752  21.201  0.00  0.00    +0.000 NA
ATOM      9  C   UNL     1       2.308  13.778  20.748  0.00  0.00    +0.000 A 
ATOM     10  C   UNL     1       2.755  14.909  21.430  0.00  0.00    +0.000 A 
ATOM     11  C   UNL     1       3.469  15.868  20.708  0.00  0.00    +0.000 A 
ATOM     12 CL   UNL     1       3.738  17.390  21.487  0.00  0.00    +0.000 Cl
ATOM     13  C   UNL     1       3.880  15.638  19.380  0.00  0.00    +0.000 A 
ATOM     14  C   UNL     1       4.810  16.588  18.673  0.00  0.00    +0.000 C 
ATOM     15  C   UNL     1       3.436  14.487  18.697  0.00  0.00    +0.000 A 
ATOM     16  C   UNL     1       2.572  13.641  19.394  0.00  0.00    +0.000 A 
ATOM     17  N   UNL     1       1.733  12.625  19.000  0.00  0.00    +0.000 N 
ATOM     18  H   UNL     1       1.455  12.437  18.048  0.00  0.00    +0.000 HD
ENDBRANCH   4   7
BRANCH   1  19
ATOM     19  C   UNL     1       2.214   7.370  19.658  0.00  0.00    +0.000 C 
BRANCH  19  20
ATOM     20  C   UNL     1       2.380   6.886  18.199  0.00  0.00    +0.000 C 
BRANCH  20  29
ATOM     21  C   UNL     1       6.636   6.833  17.264  0.00  0.00    +0.000 A 
ATOM     22  C   UNL     1       7.308   5.619  17.197  0.00  0.00    +0.000 A 
ATOM     23  C   UNL     1       6.602   4.432  17.421  0.00  0.00    +0.000 A 
ATOM     24  C   UNL     1       5.241   4.440  17.720  0.00  0.00    +0.000 A 
ATOM     25  N   UNL     1       4.620   3.201  17.950  0.00  0.00    +0.000 NA
ATOM     26  C   UNL     1       3.350   3.208  18.202  0.00  0.00    +0.000 A 
ATOM     27  C   UNL     1       2.494   4.446  18.244  0.00  0.00    +0.000 A 
ATOM     28  O   UNL     1       1.295   4.289  18.456  0.00  0.00    +0.000 OA
ATOM     29  N   UNL     1       3.151   5.652  18.062  0.00  0.00    +0.000 N 
ATOM     30  C   UNL     1       4.543   5.667  17.774  0.00  0.00    +0.000 A 
ATOM     31  C   UNL     1       5.262   6.851  17.555  0.00  0.00    +0.000 A 
BRANCH  21  33
ATOM     32  C   UNL     1       8.209   8.457  17.977  0.00  0.00    +0.000 C 
ATOM     33  O   UNL     1       7.198   8.066  17.074  0.00  0.00    +0.000 OA
ENDBRANCH  21  33
ENDBRANCH  20  29
ENDBRANCH  19  20
ENDBRANCH   1  19
TORSDOF 5
ENDMDL
MODEL 9
REMARK VINA RESULT:      -7.3      3.791      9.621
REMARK  Name = 
REMARK  7 active torsions:
REMARK  status: ('A' for Active; 'I' for Inactive)
REMARK    1  A    between atoms: C_1  and  O_2
REMARK    2  A    between atoms: O_2  and  C_3
REMARK    3  A    between atoms: N_11  and  C_12
REMARK    4  A    between atoms: C_12  and  C_13
REMARK    5  A    between atoms: C_13  and  N_14
REMARK    6  A    between atoms: C_17  and  C_18
REMARK    7  A    between atoms: C_24  and  C_25
REMARK                            x       y       z     vdW  Elec       q    Type
REMARK                         _______ _______ _______ _____ _____    ______ ____
ROOT
ATOM      1  N   UNL     1       1.818   9.072  19.210  0.00  0.00    +0.000 NA
ATOM      2  C   UNL     1       1.250  10.074  18.293  0.00  0.00    +0.000 C 
ATOM      3  C   UNL     1       1.328  11.481  18.889  0.00  0.00    +0.000 C 
ATOM      4  C   UNL     1       0.603  11.582  20.233  0.00  0.00    +0.000 C 
ATOM      5  C   UNL     1       1.076  10.455  21.158  0.00  0.00    +0.000 C 
ATOM      6  C   UNL     1       1.078   9.073  20.488  0.00  0.00    +0.000 C 
ENDROOT
BRANCH   4   7
ATOM      7  C   UNL     1      -0.881  11.565  20.008  0.00  0.00    +0.000 A 
ATOM      8  N   UNL     1      -1.489  11.057  18.959  0.00  0.00    +0.000 NA
ATOM      9  C   UNL     1      -2.762  11.543  18.997  0.00  0.00    +0.000 A 
ATOM     10  C   UNL     1      -3.733  11.544  17.997  0.00  0.00    +0.000 A 
ATOM     11  C   UNL     1      -4.941  12.192  18.261  0.00  0.00    +0.000 A 
ATOM     12 CL   UNL     1      -5.997  12.452  16.913  0.00  0.00    +0.000 Cl
ATOM     13  C   UNL     1      -5.252  12.684  19.544  0.00  0.00    +0.000 A 
ATOM     14  C   UNL     1      -6.626  13.206  19.871  0.00  0.00    +0.000 C 
ATOM     15  C   UNL     1      -4.272  12.669  20.557  0.00  0.00    +0.000 A 
ATOM     16  C   UNL     1      -3.013  12.180  20.202  0.00  0.00    +0.000 A 
ATOM     17  N   UNL     1      -1.773  12.265  20.791  0.00  0.00    +0.000 N 
ATOM     18  H   UNL     1      -1.527  12.898  21.538  0.00  0.00    +0.000 HD
ENDBRANCH   4   7
BRANCH   1  19
ATOM     19  C   UNL     1       1.779   7.718  18.602  0.00  0.00    +0.000 C 
BRANCH  19  20
ATOM     20  C   UNL     1       2.553   6.665  19.429  0.00  0.00    +0.000 C 
BRANCH  20  29
ATOM     21  C   UNL     1       5.929   6.221  16.711  0.00  0.00    +0.000 A 
ATOM     22  C   UNL     1       6.159   4.996  16.097  0.00  0.00    +0.000 A 
ATOM     23  C   UNL     1       5.293   3.928  16.354  0.00  0.00    +0.000 A 
ATOM     24  C   UNL     1       4.210   4.062  17.222  0.00  0.00    +0.000 A 
ATOM     25  N   UNL     1       3.407   2.930  17.437  0.00  0.00    +0.000 NA
ATOM     26  C   UNL     1       2.387   3.063  18.222  0.00  0.00    +0.000 A 
ATOM     27  C   UNL     1       1.993   4.347  18.901  0.00  0.00    +0.000 A 
ATOM     28  O   UNL     1       0.974   4.326  19.586  0.00  0.00    +0.000 OA
ATOM     29  N   UNL     1       2.837   5.427  18.707  0.00  0.00    +0.000 N 
ATOM     30  C   UNL     1       3.957   5.308  17.839  0.00  0.00    +0.000 A 
ATOM     31  C   UNL     1       4.836   6.369  17.580  0.00  0.00    +0.000 A 
BRANCH  21  33
ATOM     32  C   UNL     1       7.631   7.630  17.572  0.00  0.00    +0.000 C 
ATOM     33  O   UNL     1       6.695   7.345  16.556  0.00  0.00    +0.000 OA
ENDBRANCH  21  33
ENDBRANCH  20  29
ENDBRANCH  19  20
ENDBRANCH   1  19
TORSDOF 5
ENDMDL
