MODEL 1
REMARK VINA RESULT:      -7.3      0.000      0.000
REMARK  Name = 
REMARK  10 active torsions:
REMARK  status: ('A' for Active; 'I' for Inactive)
REMARK    1  A    between atoms: C_1  and  C_2
REMARK    2  A    between atoms: C_2  and  N_3
REMARK    3  A    between atoms: N_3  and  C_4
REMARK    4  A    between atoms: C_4  and  C_5
REMARK    5  A    between atoms: C_5  and  C_6
REMARK    6  A    between atoms: C_6  and  N_7
REMARK    7  A    between atoms: C_15  and  C_16
REMARK    8  A    between atoms: N_19  and  C_20
REMARK    9  A    between atoms: C_23  and  C_24
REMARK   10  A    between atoms: C_25  and  C_26
REMARK                            x       y       z     vdW  Elec       q    Type
REMARK                         _______ _______ _______ _____ _____    ______ ____
ROOT
ATOM      1  N   UNL     1       0.846   9.845  20.798  0.00  0.00    +0.000 N 
ATOM      2  C   UNL     1       0.556  11.156  20.352  0.00  0.00    +0.000 A 
ATOM      3  C   UNL     1       1.590  11.992  19.980  0.00  0.00    +0.000 A 
ATOM      4  C   UNL     1       1.264  13.271  19.591  0.00  0.00    +0.000 A 
ATOM      5  C   UNL     1       2.329  14.225  19.148  0.00  0.00    +0.000 C 
ATOM      6  N   UNL     1      -0.007  13.719  19.564  0.00  0.00    +0.000 NA
ATOM      7  C   UNL     1      -0.963  12.847  19.915  0.00  0.00    +0.000 A 
ATOM      8  N   UNL     1      -2.280  13.304  19.869  0.00  0.00    +0.000 N 
ATOM      9  N   UNL     1      -0.710  11.593  20.319  0.00  0.00    +0.000 NA
ATOM     10  H   UNL     1      -2.316  14.285  19.637  0.00  0.00    +0.000 HD
ENDROOT
BRANCH   8  11
ATOM     11  C   UNL     1      -3.456  12.566  19.659  0.00  0.00    +0.000 A 
ATOM     12  C   UNL     1      -3.574  11.753  18.531  0.00  0.00    +0.000 A 
ATOM     13  C   UNL     1      -4.775  11.093  18.248  0.00  0.00    +0.000 A 
ATOM     14  C   UNL     1      -5.891  11.220  19.091  0.00  0.00    +0.000 A 
ATOM     15  C   UNL     1      -7.177  10.537  18.718  0.00  0.00    +0.000 C 
ATOM     16  C   UNL     1      -5.777  12.004  20.250  0.00  0.00    +0.000 A 
ATOM     17  C   UNL     1      -6.891  12.195  21.242  0.00  0.00    +0.000 C 
ATOM     18  C   UNL     1      -4.565  12.669  20.509  0.00  0.00    +0.000 A 
ENDBRANCH   8  11
BRANCH   1  20
ATOM     19  C   UNL     1      -0.040   9.496  23.082  0.00  0.00    +0.000 C 
ATOM     20  C   UNL     1      -0.245   9.244  21.589  0.00  0.00    +0.000 C 
ENDBRANCH   1  20
BRANCH   1  21
ATOM     21  C   UNL     1       1.402   8.995  19.717  0.00  0.00    +0.000 C 
BRANCH  21  22
ATOM     22  C   UNL     1       1.827   7.647  20.309  0.00  0.00    +0.000 C 
BRANCH  22  23
ATOM     23  C   UNL     1       2.595   6.732  19.338  0.00  0.00    +0.000 C 
BRANCH  23  24
ATOM     24  N   UNL     1       2.371   5.278  19.470  0.00  0.00    +0.000 NA
ATOM     25  C   UNL     1       1.379   4.954  20.509  0.00  0.00    +0.000 C 
ATOM     26  C   UNL     1       1.212   3.439  20.658  0.00  0.00    +0.000 C 
ATOM     27  C   UNL     1       0.800   2.790  19.342  0.00  0.00    +0.000 C 
ATOM     28  C   UNL     1       1.758   3.200  18.230  0.00  0.00    +0.000 C 
ATOM     29  C   UNL     1       1.935   4.720  18.172  0.00  0.00    +0.000 C 
ENDBRANCH  23  24
ENDBRANCH  22  23
ENDBRANCH  21  22
ENDBRANCH   1  21
TORSDOF 6
ENDMDL
MODEL 2
REMARK VINA RESULT:      -7.2      0.552      1.078
REMARK  Name = 
REMARK  10 active torsions:
REMARK  status: ('A' for Active; 'I' for Inactive)
REMARK    1  A    between atoms: C_1  and  C_2
REMARK    2  A    between atoms: C_2  and  N_3
REMARK    3  A    between atoms: N_3  and  C_4
REMARK    4  A    between atoms: C_4  and  C_5
REMARK    5  A    between atoms: C_5  and  C_6
REMARK    6  A    between atoms: C_6  and  N_7
REMARK    7  A    between atoms: C_15  and  C_16
REMARK    8  A    between atoms: N_19  and  C_20
REMARK    9  A    between atoms: C_23  and  C_24
REMARK   10  A    between atoms: C_25  and  C_26
REMARK                            x       y       z     vdW  Elec       q    Type
REMARK                         _______ _______ _______ _____ _____    ______ ____
ROOT
ATOM      1  N   UNL     1       0.899   9.675  20.612  0.00  0.00    +0.000 N 
ATOM      2  C   UNL     1       0.642  10.916  19.983  0.00  0.00    +0.000 A 
ATOM      3  C   UNL     1       1.691  11.640  19.455  0.00  0.00    +0.000 A 
ATOM      4  C   UNL     1       1.400  12.859  18.888  0.00  0.00    +0.000 A 
ATOM      5  C   UNL     1       2.482  13.689  18.269  0.00  0.00    +0.000 C 
ATOM      6  N   UNL     1       0.146  13.354  18.836  0.00  0.00    +0.000 NA
ATOM      7  C   UNL     1      -0.828  12.587  19.347  0.00  0.00    +0.000 A 
ATOM      8  N   UNL     1      -2.127  13.090  19.276  0.00  0.00    +0.000 N 
ATOM      9  N   UNL     1      -0.607  11.397  19.928  0.00  0.00    +0.000 NA
ATOM     10  H   UNL     1      -2.134  14.026  18.900  0.00  0.00    +0.000 HD
ENDROOT
BRANCH   8  11
ATOM     11  C   UNL     1      -3.338  12.381  19.220  0.00  0.00    +0.000 A 
ATOM     12  C   UNL     1      -3.577  11.496  18.168  0.00  0.00    +0.000 A 
ATOM     13  C   UNL     1      -4.817  10.861  18.035  0.00  0.00    +0.000 A 
ATOM     14  C   UNL     1      -5.851  11.085  18.959  0.00  0.00    +0.000 A 
ATOM     15  C   UNL     1      -7.184  10.425  18.746  0.00  0.00    +0.000 C 
ATOM     16  C   UNL     1      -5.614  11.943  20.045  0.00  0.00    +0.000 A 
ATOM     17  C   UNL     1      -6.631  12.241  21.112  0.00  0.00    +0.000 C 
ATOM     18  C   UNL     1      -4.364  12.581  20.152  0.00  0.00    +0.000 A 
ENDBRANCH   8  11
BRANCH   1  20
ATOM     19  C   UNL     1       0.176   9.549  22.976  0.00  0.00    +0.000 C 
ATOM     20  C   UNL     1      -0.183   9.248  21.522  0.00  0.00    +0.000 C 
ENDBRANCH   1  20
BRANCH   1  21
ATOM     21  C   UNL     1       1.378   8.649  19.655  0.00  0.00    +0.000 C 
BRANCH  21  22
ATOM     22  C   UNL     1       1.901   7.439  20.437  0.00  0.00    +0.000 C 
BRANCH  22  23
ATOM     23  C   UNL     1       2.636   6.389  19.583  0.00  0.00    +0.000 C 
BRANCH  23  24
ATOM     24  N   UNL     1       1.948   5.100  19.371  0.00  0.00    +0.000 NA
ATOM     25  C   UNL     1       2.606   4.273  18.346  0.00  0.00    +0.000 C 
ATOM     26  C   UNL     1       1.838   2.969  18.112  0.00  0.00    +0.000 C 
ATOM     27  C   UNL     1       1.697   2.165  19.399  0.00  0.00    +0.000 C 
ATOM     28  C   UNL     1       1.114   3.037  20.504  0.00  0.00    +0.000 C 
ATOM     29  C   UNL     1       1.883   4.354  20.647  0.00  0.00    +0.000 C 
ENDBRANCH  23  24
ENDBRANCH  22  23
ENDBRANCH  21  22
ENDBRANCH   1  21
TORSDOF 6
ENDMDL
MODEL 3
REMARK VINA RESULT:      -7.1      1.030      1.137
REMARK  Name = 
REMARK  10 active torsions:
REMARK  status: ('A' for Active; 'I' for Inactive)
REMARK    1  A    between atoms: C_1  and  C_2
REMARK    2  A    between atoms: C_2  and  N_3
REMARK    3  A    between atoms: N_3  and  C_4
REMARK    4  A    between atoms: C_4  and  C_5
REMARK    5  A    between atoms: C_5  and  C_6
REMARK    6  A    between atoms: C_6  and  N_7
REMARK    7  A    between atoms: C_15  and  C_16
REMARK    8  A    between atoms: N_19  and  C_20
REMARK    9  A    between atoms: C_23  and  C_24
REMARK   10  A    between atoms: C_25  and  C_26
REMARK                            x       y       z     vdW  Elec       q    Type
REMARK                         _______ _______ _______ _____ _____    ______ ____
ROOT
ATOM      1  N   UNL     1       1.347   9.606  19.407  0.00  0.00    +0.000 N 
ATOM      2  C   UNL     1       1.023  10.954  19.125  0.00  0.00    +0.000 A 
ATOM      3  C   UNL     1       2.006  11.808  18.669  0.00  0.00    +0.000 A 
ATOM      4  C   UNL     1       1.654  13.120  18.447  0.00  0.00    +0.000 A 
ATOM      5  C   UNL     1       2.660  14.099  17.925  0.00  0.00    +0.000 C 
ATOM      6  N   UNL     1       0.405  13.581  18.657  0.00  0.00    +0.000 NA
ATOM      7  C   UNL     1      -0.506  12.692  19.077  0.00  0.00    +0.000 A 
ATOM      8  N   UNL     1      -1.803  13.164  19.277  0.00  0.00    +0.000 N 
ATOM      9  N   UNL     1      -0.223  11.404  19.329  0.00  0.00    +0.000 NA
ATOM     10  H   UNL     1      -1.851  14.162  19.138  0.00  0.00    +0.000 HD
ENDROOT
BRANCH   8  11
ATOM     11  C   UNL     1      -3.014  12.459  19.191  0.00  0.00    +0.000 A 
ATOM     12  C   UNL     1      -3.237  11.588  18.124  0.00  0.00    +0.000 A 
ATOM     13  C   UNL     1      -4.476  10.958  17.962  0.00  0.00    +0.000 A 
ATOM     14  C   UNL     1      -5.526  11.174  18.871  0.00  0.00    +0.000 A 
ATOM     15  C   UNL     1      -6.857  10.519  18.627  0.00  0.00    +0.000 C 
ATOM     16  C   UNL     1      -5.305  12.017  19.971  0.00  0.00    +0.000 A 
ATOM     17  C   UNL     1      -6.340  12.305  21.024  0.00  0.00    +0.000 C 
ATOM     18  C   UNL     1      -4.056  12.651  20.107  0.00  0.00    +0.000 A 
ENDBRANCH   8  11
BRANCH   1  20
ATOM     19  C   UNL     1       0.932   8.844  21.725  0.00  0.00    +0.000 C 
ATOM     20  C   UNL     1       0.378   8.949  20.306  0.00  0.00    +0.000 C 
ENDBRANCH   1  20
BRANCH   1  21
ATOM     21  C   UNL     1       1.709   8.849  18.185  0.00  0.00    +0.000 C 
BRANCH  21  22
ATOM     22  C   UNL     1       2.587   7.655  18.576  0.00  0.00    +0.000 C 
BRANCH  22  23
ATOM     23  C   UNL     1       2.079   6.291  18.073  0.00  0.00    +0.000 C 
BRANCH  23  24
ATOM     24  N   UNL     1       2.252   5.138  18.979  0.00  0.00    +0.000 NA
ATOM     25  C   UNL     1       1.886   5.455  20.370  0.00  0.00    +0.000 C 
ATOM     26  C   UNL     1       2.128   4.256  21.291  0.00  0.00    +0.000 C 
ATOM     27  C   UNL     1       1.350   3.029  20.828  0.00  0.00    +0.000 C 
ATOM     28  C   UNL     1       1.636   2.748  19.358  0.00  0.00    +0.000 C 
ATOM     29  C   UNL     1       1.440   3.999  18.497  0.00  0.00    +0.000 C 
ENDBRANCH  23  24
ENDBRANCH  22  23
ENDBRANCH  21  22
ENDBRANCH   1  21
TORSDOF 6
ENDMDL
MODEL 4
REMARK VINA RESULT:      -7.1      2.370      4.079
REMARK  Name = 
REMARK  10 active torsions:
REMARK  status: ('A' for Active; 'I' for Inactive)
REMARK    1  A    between atoms: C_1  and  C_2
REMARK    2  A    between atoms: C_2  and  N_3
REMARK    3  A    between atoms: N_3  and  C_4
REMARK    4  A    between atoms: C_4  and  C_5
REMARK    5  A    between atoms: C_5  and  C_6
REMARK    6  A    between atoms: C_6  and  N_7
REMARK    7  A    between atoms: C_15  and  C_16
REMARK    8  A    between atoms: N_19  and  C_20
REMARK    9  A    between atoms: C_23  and  C_24
REMARK   10  A    between atoms: C_25  and  C_26
REMARK                            x       y       z     vdW  Elec       q    Type
REMARK                         _______ _______ _______ _____ _____    ______ ____
ROOT
ATOM      1  N   UNL     1       0.748  10.649  19.052  0.00  0.00    +0.000 N 
ATOM      2  C   UNL     1      -0.615  10.891  18.761  0.00  0.00    +0.000 A 
ATOM      3  C   UNL     1      -1.227  10.190  17.742  0.00  0.00    +0.000 A 
ATOM      4  C   UNL     1      -2.542  10.487  17.468  0.00  0.00    +0.000 A 
ATOM      5  C   UNL     1      -3.281   9.748  16.396  0.00  0.00    +0.000 C 
ATOM      6  N   UNL     1      -3.233  11.422  18.152  0.00  0.00    +0.000 NA
ATOM      7  C   UNL     1      -2.583  12.047  19.144  0.00  0.00    +0.000 A 
ATOM      8  N   UNL     1      -3.302  13.002  19.864  0.00  0.00    +0.000 N 
ATOM      9  N   UNL     1      -1.297  11.816  19.450  0.00  0.00    +0.000 NA
ATOM     10  H   UNL     1      -4.221  13.136  19.470  0.00  0.00    +0.000 HD
ENDROOT
BRANCH   8  11
ATOM     11  C   UNL     1      -3.122  13.413  21.195  0.00  0.00    +0.000 A 
ATOM     12  C   UNL     1      -3.619  12.629  22.237  0.00  0.00    +0.000 A 
ATOM     13  C   UNL     1      -3.544  13.072  23.563  0.00  0.00    +0.000 A 
ATOM     14  C   UNL     1      -2.960  14.309  23.884  0.00  0.00    +0.000 A 
ATOM     15  C   UNL     1      -2.951  14.769  25.315  0.00  0.00    +0.000 C 
ATOM     16  C   UNL     1      -2.421  15.092  22.851  0.00  0.00    +0.000 A 
ATOM     17  C   UNL     1      -1.749  16.418  23.071  0.00  0.00    +0.000 C 
ATOM     18  C   UNL     1      -2.519  14.633  21.524  0.00  0.00    +0.000 A 
ENDBRANCH   8  11
BRANCH   1  20
ATOM     19  C   UNL     1       2.131  12.692  18.852  0.00  0.00    +0.000 C 
ATOM     20  C   UNL     1       1.390  11.750  19.798  0.00  0.00    +0.000 C 
ENDBRANCH   1  20
BRANCH   1  21
ATOM     21  C   UNL     1       0.973   9.287  19.593  0.00  0.00    +0.000 C 
BRANCH  21  22
ATOM     22  C   UNL     1       1.955   8.542  18.683  0.00  0.00    +0.000 C 
BRANCH  22  23
ATOM     23  C   UNL     1       2.589   7.287  19.310  0.00  0.00    +0.000 C 
BRANCH  23  24
ATOM     24  N   UNL     1       1.828   6.027  19.201  0.00  0.00    +0.000 NA
ATOM     25  C   UNL     1       2.325   5.161  18.118  0.00  0.00    +0.000 C 
ATOM     26  C   UNL     1       1.481   3.890  17.997  0.00  0.00    +0.000 C 
ATOM     27  C   UNL     1       1.458   3.106  19.304  0.00  0.00    +0.000 C 
ATOM     28  C   UNL     1       1.047   4.015  20.456  0.00  0.00    +0.000 C 
ATOM     29  C   UNL     1       1.882   5.298  20.487  0.00  0.00    +0.000 C 
ENDBRANCH  23  24
ENDBRANCH  22  23
ENDBRANCH  21  22
ENDBRANCH   1  21
TORSDOF 6
ENDMDL
MODEL 5
REMARK VINA RESULT:      -7.1      1.669      8.288
REMARK  Name = 
REMARK  10 active torsions:
REMARK  status: ('A' for Active; 'I' for Inactive)
REMARK    1  A    between atoms: C_1  and  C_2
REMARK    2  A    between atoms: C_2  and  N_3
REMARK    3  A    between atoms: N_3  and  C_4
REMARK    4  A    between atoms: C_4  and  C_5
REMARK    5  A    between atoms: C_5  and  C_6
REMARK    6  A    between atoms: C_6  and  N_7
REMARK    7  A    between atoms: C_15  and  C_16
REMARK    8  A    between atoms: N_19  and  C_20
REMARK    9  A    between atoms: C_23  and  C_24
REMARK   10  A    between atoms: C_25  and  C_26
REMARK                            x       y       z     vdW  Elec       q    Type
REMARK                         _______ _______ _______ _____ _____    ______ ____
ROOT
ATOM      1  N   UNL     1       0.243  10.584  18.627  0.00  0.00    +0.000 N 
ATOM      2  C   UNL     1       0.292   9.911  19.870  0.00  0.00    +0.000 A 
ATOM      3  C   UNL     1      -0.378  10.440  20.955  0.00  0.00    +0.000 A 
ATOM      4  C   UNL     1      -0.269   9.774  22.154  0.00  0.00    +0.000 A 
ATOM      5  C   UNL     1      -0.990  10.271  23.368  0.00  0.00    +0.000 C 
ATOM      6  N   UNL     1       0.456   8.645  22.294  0.00  0.00    +0.000 NA
ATOM      7  C   UNL     1       1.060   8.175  21.194  0.00  0.00    +0.000 A 
ATOM      8  N   UNL     1       1.795   6.997  21.334  0.00  0.00    +0.000 N 
ATOM      9  N   UNL     1       1.007   8.786  20.000  0.00  0.00    +0.000 NA
ATOM     10  H   UNL     1       1.823   6.700  22.297  0.00  0.00    +0.000 HD
ENDROOT
BRANCH   8  11
ATOM     11  C   UNL     1       2.074   6.020  20.365  0.00  0.00    +0.000 A 
ATOM     12  C   UNL     1       3.042   6.264  19.390  0.00  0.00    +0.000 A 
ATOM     13  C   UNL     1       3.261   5.349  18.354  0.00  0.00    +0.000 A 
ATOM     14  C   UNL     1       2.522   4.157  18.269  0.00  0.00    +0.000 A 
ATOM     15  C   UNL     1       2.752   3.230  17.109  0.00  0.00    +0.000 C 
ATOM     16  C   UNL     1       1.571   3.878  19.264  0.00  0.00    +0.000 A 
ATOM     17  C   UNL     1       0.739   2.626  19.296  0.00  0.00    +0.000 C 
ATOM     18  C   UNL     1       1.359   4.818  20.289  0.00  0.00    +0.000 A 
ENDBRANCH   8  11
BRANCH   1  20
ATOM     19  C   UNL     1       2.471  11.230  17.763  0.00  0.00    +0.000 C 
ATOM     20  C   UNL     1       1.340  10.204  17.714  0.00  0.00    +0.000 C 
ENDBRANCH   1  20
BRANCH   1  21
ATOM     21  C   UNL     1      -1.118  10.575  18.037  0.00  0.00    +0.000 C 
BRANCH  21  22
ATOM     22  C   UNL     1      -1.633  12.015  17.943  0.00  0.00    +0.000 C 
BRANCH  22  23
ATOM     23  C   UNL     1      -2.508  12.464  19.127  0.00  0.00    +0.000 C 
BRANCH  23  24
ATOM     24  N   UNL     1      -3.857  11.871  19.224  0.00  0.00    +0.000 NA
ATOM     25  C   UNL     1      -4.744  12.634  20.119  0.00  0.00    +0.000 C 
ATOM     26  C   UNL     1      -6.115  11.963  20.239  0.00  0.00    +0.000 C 
ATOM     27  C   UNL     1      -6.782  11.805  18.879  0.00  0.00    +0.000 C 
ATOM     28  C   UNL     1      -5.836  11.110  17.906  0.00  0.00    +0.000 C 
ATOM     29  C   UNL     1      -4.462  11.785  17.877  0.00  0.00    +0.000 C 
ENDBRANCH  23  24
ENDBRANCH  22  23
ENDBRANCH  21  22
ENDBRANCH   1  21
TORSDOF 6
ENDMDL
MODEL 6
REMARK VINA RESULT:      -7.0      2.473      4.076
REMARK  Name = 
REMARK  10 active torsions:
REMARK  status: ('A' for Active; 'I' for Inactive)
REMARK    1  A    between atoms: C_1  and  C_2
REMARK    2  A    between atoms: C_2  and  N_3
REMARK    3  A    between atoms: N_3  and  C_4
REMARK    4  A    between atoms: C_4  and  C_5
REMARK    5  A    between atoms: C_5  and  C_6
REMARK    6  A    between atoms: C_6  and  N_7
REMARK    7  A    between atoms: C_15  and  C_16
REMARK    8  A    between atoms: N_19  and  C_20
REMARK    9  A    between atoms: C_23  and  C_24
REMARK   10  A    between atoms: C_25  and  C_26
REMARK                            x       y       z     vdW  Elec       q    Type
REMARK                         _______ _______ _______ _____ _____    ______ ____
ROOT
ATOM      1  N   UNL     1       0.639  10.789  19.556  0.00  0.00    +0.000 N 
ATOM      2  C   UNL     1      -0.692  11.006  19.131  0.00  0.00    +0.000 A 
ATOM      3  C   UNL     1      -1.202  10.265  18.085  0.00  0.00    +0.000 A 
ATOM      4  C   UNL     1      -2.488  10.539  17.679  0.00  0.00    +0.000 A 
ATOM      5  C   UNL     1      -3.118   9.756  16.569  0.00  0.00    +0.000 C 
ATOM      6  N   UNL     1      -3.246  11.489  18.264  0.00  0.00    +0.000 NA
ATOM      7  C   UNL     1      -2.697  12.154  19.289  0.00  0.00    +0.000 A 
ATOM      8  N   UNL     1      -3.487  13.124  19.906  0.00  0.00    +0.000 N 
ATOM      9  N   UNL     1      -1.443  11.946  19.721  0.00  0.00    +0.000 NA
ATOM     10  H   UNL     1      -4.366  13.236  19.424  0.00  0.00    +0.000 HD
ENDROOT
BRANCH   8  11
ATOM     11  C   UNL     1      -3.434  13.582  21.233  0.00  0.00    +0.000 A 
ATOM     12  C   UNL     1      -2.790  14.784  21.528  0.00  0.00    +0.000 A 
ATOM     13  C   UNL     1      -2.633  15.204  22.854  0.00  0.00    +0.000 A 
ATOM     14  C   UNL     1      -3.127  14.438  23.923  0.00  0.00    +0.000 A 
ATOM     15  C   UNL     1      -2.888  14.901  25.332  0.00  0.00    +0.000 C 
ATOM     16  C   UNL     1      -3.812  13.245  23.640  0.00  0.00    +0.000 A 
ATOM     17  C   UNL     1      -4.408  12.355  24.695  0.00  0.00    +0.000 C 
ATOM     18  C   UNL     1      -3.946  12.835  22.301  0.00  0.00    +0.000 A 
ENDBRANCH   8  11
BRANCH   1  20
ATOM     19  C   UNL     1       2.009  12.845  19.413  0.00  0.00    +0.000 C 
ATOM     20  C   UNL     1       1.200  11.920  20.321  0.00  0.00    +0.000 C 
ENDBRANCH   1  20
BRANCH   1  21
ATOM     21  C   UNL     1       0.823   9.448  20.163  0.00  0.00    +0.000 C 
BRANCH  21  22
ATOM     22  C   UNL     1       1.795   8.636  19.300  0.00  0.00    +0.000 C 
BRANCH  22  23
ATOM     23  C   UNL     1       2.105   7.226  19.833  0.00  0.00    +0.000 C 
BRANCH  23  24
ATOM     24  N   UNL     1       3.156   6.462  19.133  0.00  0.00    +0.000 NA
ATOM     25  C   UNL     1       2.780   5.054  18.916  0.00  0.00    +0.000 C 
ATOM     26  C   UNL     1       3.913   4.279  18.237  0.00  0.00    +0.000 C 
ATOM     27  C   UNL     1       4.304   4.911  16.906  0.00  0.00    +0.000 C 
ATOM     28  C   UNL     1       4.595   6.395  17.093  0.00  0.00    +0.000 C 
ATOM     29  C   UNL     1       3.458   7.103  17.834  0.00  0.00    +0.000 C 
ENDBRANCH  23  24
ENDBRANCH  22  23
ENDBRANCH  21  22
ENDBRANCH   1  21
TORSDOF 6
ENDMDL
MODEL 7
REMARK VINA RESULT:      -7.0      2.520      4.257
REMARK  Name = 
REMARK  10 active torsions:
REMARK  status: ('A' for Active; 'I' for Inactive)
REMARK    1  A    between atoms: C_1  and  C_2
REMARK    2  A    between atoms: C_2  and  N_3
REMARK    3  A    between atoms: N_3  and  C_4
REMARK    4  A    between atoms: C_4  and  C_5
REMARK    5  A    between atoms: C_5  and  C_6
REMARK    6  A    between atoms: C_6  and  N_7
REMARK    7  A    between atoms: C_15  and  C_16
REMARK    8  A    between atoms: N_19  and  C_20
REMARK    9  A    between atoms: C_23  and  C_24
REMARK   10  A    between atoms: C_25  and  C_26
REMARK                            x       y       z     vdW  Elec       q    Type
REMARK                         _______ _______ _______ _____ _____    ______ ____
ROOT
ATOM      1  N   UNL     1       0.766  10.725  18.867  0.00  0.00    +0.000 N 
ATOM      2  C   UNL     1      -0.609  10.936  18.610  0.00  0.00    +0.000 A 
ATOM      3  C   UNL     1      -1.232  10.219  17.609  0.00  0.00    +0.000 A 
ATOM      4  C   UNL     1      -2.560  10.487  17.368  0.00  0.00    +0.000 A 
ATOM      5  C   UNL     1      -3.310   9.729  16.317  0.00  0.00    +0.000 C 
ATOM      6  N   UNL     1      -3.252  11.410  18.066  0.00  0.00    +0.000 NA
ATOM      7  C   UNL     1      -2.591  12.052  19.039  0.00  0.00    +0.000 A 
ATOM      8  N   UNL     1      -3.311  12.994  19.775  0.00  0.00    +0.000 N 
ATOM      9  N   UNL     1      -1.293  11.849  19.313  0.00  0.00    +0.000 NA
ATOM     10  H   UNL     1      -4.242  13.108  19.404  0.00  0.00    +0.000 HD
ENDROOT
BRANCH   8  11
ATOM     11  C   UNL     1      -3.106  13.413  21.099  0.00  0.00    +0.000 A 
ATOM     12  C   UNL     1      -3.584  12.637  22.156  0.00  0.00    +0.000 A 
ATOM     13  C   UNL     1      -3.484  13.089  23.477  0.00  0.00    +0.000 A 
ATOM     14  C   UNL     1      -2.894  14.327  23.779  0.00  0.00    +0.000 A 
ATOM     15  C   UNL     1      -2.858  14.796  25.207  0.00  0.00    +0.000 C 
ATOM     16  C   UNL     1      -2.373  15.102  22.731  0.00  0.00    +0.000 A 
ATOM     17  C   UNL     1      -1.696  16.430  22.930  0.00  0.00    +0.000 C 
ATOM     18  C   UNL     1      -2.496  14.635  21.409  0.00  0.00    +0.000 A 
ENDBRANCH   8  11
BRANCH   1  20
ATOM     19  C   UNL     1       2.250  12.693  18.650  0.00  0.00    +0.000 C 
ATOM     20  C   UNL     1       1.403  11.841  19.593  0.00  0.00    +0.000 C 
ENDBRANCH   1  20
BRANCH   1  21
ATOM     21  C   UNL     1       1.034   9.369  19.406  0.00  0.00    +0.000 C 
BRANCH  21  22
ATOM     22  C   UNL     1       1.953   8.617  18.438  0.00  0.00    +0.000 C 
BRANCH  22  23
ATOM     23  C   UNL     1       2.558   7.319  19.003  0.00  0.00    +0.000 C 
BRANCH  23  24
ATOM     24  N   UNL     1       2.810   6.225  18.043  0.00  0.00    +0.000 NA
ATOM     25  C   UNL     1       4.247   5.965  17.851  0.00  0.00    +0.000 C 
ATOM     26  C   UNL     1       4.474   4.865  16.810  0.00  0.00    +0.000 C 
ATOM     27  C   UNL     1       3.772   3.571  17.203  0.00  0.00    +0.000 C 
ATOM     28  C   UNL     1       2.304   3.839  17.510  0.00  0.00    +0.000 C 
ATOM     29  C   UNL     1       2.138   4.991  18.505  0.00  0.00    +0.000 C 
ENDBRANCH  23  24
ENDBRANCH  22  23
ENDBRANCH  21  22
ENDBRANCH   1  21
TORSDOF 6
ENDMDL
MODEL 8
REMARK VINA RESULT:      -7.0      0.690      1.369
REMARK  Name = 
REMARK  10 active torsions:
REMARK  status: ('A' for Active; 'I' for Inactive)
REMARK    1  A    between atoms: C_1  and  C_2
REMARK    2  A    between atoms: C_2  and  N_3
REMARK    3  A    between atoms: N_3  and  C_4
REMARK    4  A    between atoms: C_4  and  C_5
REMARK    5  A    between atoms: C_5  and  C_6
REMARK    6  A    between atoms: C_6  and  N_7
REMARK    7  A    between atoms: C_15  and  C_16
REMARK    8  A    between atoms: N_19  and  C_20
REMARK    9  A    between atoms: C_23  and  C_24
REMARK   10  A    between atoms: C_25  and  C_26
REMARK                            x       y       z     vdW  Elec       q    Type
REMARK                         _______ _______ _______ _____ _____    ______ ____
ROOT
ATOM      1  N   UNL     1       0.410  10.045  21.022  0.00  0.00    +0.000 N 
ATOM      2  C   UNL     1       0.190  11.327  20.466  0.00  0.00    +0.000 A 
ATOM      3  C   UNL     1       1.227  11.981  19.832  0.00  0.00    +0.000 A 
ATOM      4  C   UNL     1       0.978  13.243  19.343  0.00  0.00    +0.000 A 
ATOM      5  C   UNL     1       2.046  14.002  18.618  0.00  0.00    +0.000 C 
ATOM      6  N   UNL     1      -0.224  13.843  19.463  0.00  0.00    +0.000 NA
ATOM      7  C   UNL     1      -1.192  13.141  20.069  0.00  0.00    +0.000 A 
ATOM      8  N   UNL     1      -2.441  13.755  20.177  0.00  0.00    +0.000 N 
ATOM      9  N   UNL     1      -1.009  11.915  20.582  0.00  0.00    +0.000 NA
ATOM     10  H   UNL     1      -2.410  14.702  19.833  0.00  0.00    +0.000 HD
ENDROOT
BRANCH   8  11
ATOM     11  C   UNL     1      -3.707  13.153  20.253  0.00  0.00    +0.000 A 
ATOM     12  C   UNL     1      -4.427  13.198  21.447  0.00  0.00    +0.000 A 
ATOM     13  C   UNL     1      -5.642  12.514  21.576  0.00  0.00    +0.000 A 
ATOM     14  C   UNL     1      -6.177  11.775  20.508  0.00  0.00    +0.000 A 
ATOM     15  C   UNL     1      -7.456  11.013  20.708  0.00  0.00    +0.000 C 
ATOM     16  C   UNL     1      -5.484  11.752  19.287  0.00  0.00    +0.000 A 
ATOM     17  C   UNL     1      -5.967  11.020  18.066  0.00  0.00    +0.000 C 
ATOM     18  C   UNL     1      -4.258  12.435  19.184  0.00  0.00    +0.000 A 
ENDBRANCH   8  11
BRANCH   1  20
ATOM     19  C   UNL     1       0.074   9.514  23.415  0.00  0.00    +0.000 C 
ATOM     20  C   UNL     1      -0.585   9.674  22.047  0.00  0.00    +0.000 C 
ENDBRANCH   1  20
BRANCH   1  21
ATOM     21  C   UNL     1       0.676   9.022  19.982  0.00  0.00    +0.000 C 
BRANCH  21  22
ATOM     22  C   UNL     1       1.691   8.009  20.523  0.00  0.00    +0.000 C 
BRANCH  22  23
ATOM     23  C   UNL     1       2.410   7.179  19.444  0.00  0.00    +0.000 C 
BRANCH  23  24
ATOM     24  N   UNL     1       2.333   5.710  19.568  0.00  0.00    +0.000 NA
ATOM     25  C   UNL     1       1.348   5.281  20.574  0.00  0.00    +0.000 C 
ATOM     26  C   UNL     1       1.333   3.756  20.715  0.00  0.00    +0.000 C 
ATOM     27  C   UNL     1       1.031   3.074  19.387  0.00  0.00    +0.000 C 
ATOM     28  C   UNL     1       1.975   3.586  18.305  0.00  0.00    +0.000 C 
ATOM     29  C   UNL     1       1.997   5.116  18.255  0.00  0.00    +0.000 C 
ENDBRANCH  23  24
ENDBRANCH  22  23
ENDBRANCH  21  22
ENDBRANCH   1  21
TORSDOF 6
ENDMDL
MODEL 9
REMARK VINA RESULT:      -7.0      1.759      8.350
REMARK  Name = 
REMARK  10 active torsions:
REMARK  status: ('A' for Active; 'I' for Inactive)
REMARK    1  A    between atoms: C_1  and  C_2
REMARK    2  A    between atoms: C_2  and  N_3
REMARK    3  A    between atoms: N_3  and  C_4
REMARK    4  A    between atoms: C_4  and  C_5
REMARK    5  A    between atoms: C_5  and  C_6
REMARK    6  A    between atoms: C_6  and  N_7
REMARK    7  A    between atoms: C_15  and  C_16
REMARK    8  A    between atoms: N_19  and  C_20
REMARK    9  A    between atoms: C_23  and  C_24
REMARK   10  A    between atoms: C_25  and  C_26
REMARK                            x       y       z     vdW  Elec       q    Type
REMARK                         _______ _______ _______ _____ _____    ______ ____
ROOT
ATOM      1  N   UNL     1       0.279  10.674  18.593  0.00  0.00    +0.000 N 
ATOM      2  C   UNL     1       0.290  10.007  19.840  0.00  0.00    +0.000 A 
ATOM      3  C   UNL     1      -0.401  10.548  20.906  0.00  0.00    +0.000 A 
ATOM      4  C   UNL     1      -0.328   9.886  22.111  0.00  0.00    +0.000 A 
ATOM      5  C   UNL     1      -1.074  10.397  23.304  0.00  0.00    +0.000 C 
ATOM      6  N   UNL     1       0.381   8.751  22.273  0.00  0.00    +0.000 NA
ATOM      7  C   UNL     1       1.008   8.269  21.191  0.00  0.00    +0.000 A 
ATOM      8  N   UNL     1       1.727   7.085  21.354  0.00  0.00    +0.000 N 
ATOM      9  N   UNL     1       0.991   8.875  19.993  0.00  0.00    +0.000 NA
ATOM     10  H   UNL     1       1.728   6.792  22.319  0.00  0.00    +0.000 HD
ENDROOT
BRANCH   8  11
ATOM     11  C   UNL     1       2.020   6.100  20.397  0.00  0.00    +0.000 A 
ATOM     12  C   UNL     1       2.940   6.368  19.383  0.00  0.00    +0.000 A 
ATOM     13  C   UNL     1       3.166   5.441  18.359  0.00  0.00    +0.000 A 
ATOM     14  C   UNL     1       2.485   4.213  18.327  0.00  0.00    +0.000 A 
ATOM     15  C   UNL     1       2.719   3.271  17.179  0.00  0.00    +0.000 C 
ATOM     16  C   UNL     1       1.585   3.911  19.361  0.00  0.00    +0.000 A 
ATOM     17  C   UNL     1       0.817   2.622  19.451  0.00  0.00    +0.000 C 
ATOM     18  C   UNL     1       1.363   4.864  20.373  0.00  0.00    +0.000 A 
ENDBRANCH   8  11
BRANCH   1  20
ATOM     19  C   UNL     1       2.527  11.300  17.770  0.00  0.00    +0.000 C 
ATOM     20  C   UNL     1       1.394  10.278  17.710  0.00  0.00    +0.000 C 
ENDBRANCH   1  20
BRANCH   1  21
ATOM     21  C   UNL     1      -1.067  10.676  17.969  0.00  0.00    +0.000 C 
BRANCH  21  22
ATOM     22  C   UNL     1      -1.722  12.043  18.195  0.00  0.00    +0.000 C 
BRANCH  22  23
ATOM     23  C   UNL     1      -3.257  12.010  18.308  0.00  0.00    +0.000 C 
BRANCH  23  24
ATOM     24  N   UNL     1      -3.827  12.014  19.669  0.00  0.00    +0.000 NA
ATOM     25  C   UNL     1      -3.120  12.935  20.574  0.00  0.00    +0.000 C 
ATOM     26  C   UNL     1      -3.701  12.874  21.989  0.00  0.00    +0.000 C 
ATOM     27  C   UNL     1      -5.190  13.199  21.997  0.00  0.00    +0.000 C 
ATOM     28  C   UNL     1      -5.925  12.326  20.987  0.00  0.00    +0.000 C 
ATOM     29  C   UNL     1      -5.260  12.377  19.609  0.00  0.00    +0.000 C 
ENDBRANCH  23  24
ENDBRANCH  22  23
ENDBRANCH  21  22
ENDBRANCH   1  21
TORSDOF 6
ENDMDL
