MODEL 1
REMARK VINA RESULT:      -7.4      0.000      0.000
REMARK  Name = 
REMARK  5 active torsions:
REMARK  status: ('A' for Active; 'I' for Inactive)
REMARK    1  A    between atoms: C_2  and  C_3
REMARK    2  A    between atoms: C_8  and  N_9
REMARK    3  A    between atoms: C_10  and  C_12
REMARK    4  A    between atoms: C_14  and  N_15
REMARK    5  A    between atoms: C_19  and  N_20
REMARK                            x       y       z     vdW  Elec       q    Type
REMARK                         _______ _______ _______ _____ _____    ______ ____
ROOT
ATOM      1  N   UNL     1       4.109   4.092  18.980  0.00  0.00    +0.000 N 
ATOM      2  C   UNL     1       4.176   4.015  17.598  0.00  0.00    +0.000 C 
ATOM      3  O   UNL     1       3.366   3.494  16.844  0.00  0.00    +0.000 OA
ATOM      4  H   UNL     1       4.903   4.482  19.474  0.00  0.00    +0.000 HD
ENDROOT
BRANCH   1  10
ATOM      5  C   UNL     1       3.190   2.653  20.748  0.00  0.00    +0.000 A 
ATOM      6  C   UNL     1       2.113   2.256  21.558  0.00  0.00    +0.000 A 
ATOM      7  C   UNL     1       0.870   2.871  21.430  0.00  0.00    +0.000 A 
ATOM      8  C   UNL     1       0.697   3.886  20.499  0.00  0.00    +0.000 A 
ATOM      9  C   UNL     1       1.762   4.284  19.688  0.00  0.00    +0.000 A 
ATOM     10  C   UNL     1       3.018   3.675  19.790  0.00  0.00    +0.000 A 
BRANCH   5  12
ATOM     11  N   UNL     1       5.437   1.391  21.061  0.00  0.00    +0.000 NA
ATOM     12  C   UNL     1       4.442   1.966  20.907  0.00  0.00    +0.000 C 
ENDBRANCH   5  12
ENDBRANCH   1  10
BRANCH   2  13
ATOM     13  C   UNL     1       5.355   4.672  16.979  0.00  0.00    +0.000 A 
ATOM     14  C   UNL     1       6.097   5.638  17.665  0.00  0.00    +0.000 A 
ATOM     15  C   UNL     1       7.125   6.317  16.999  0.00  0.00    +0.000 A 
ATOM     16  C   UNL     1       7.447   6.012  15.668  0.00  0.00    +0.000 A 
ATOM     17  C   UNL     1       6.725   5.008  15.009  0.00  0.00    +0.000 A 
ATOM     18  C   UNL     1       5.686   4.329  15.659  0.00  0.00    +0.000 A 
BRANCH  15  19
ATOM     19  N   UNL     1       7.834   7.400  17.694  0.00  0.00    +0.000 N 
ATOM     20  O   UNL     1       8.356   7.129  18.782  0.00  0.00    +0.000 OA
ATOM     21  O   UNL     1       7.846   8.513  17.158  0.00  0.00    +0.000 OA
ENDBRANCH  15  19
BRANCH  17  22
ATOM     22  N   UNL     1       7.026   4.699  13.603  0.00  0.00    +0.000 N 
ATOM     23  O   UNL     1       6.449   3.726  13.098  0.00  0.00    +0.000 OA
ATOM     24  O   UNL     1       7.845   5.419  13.018  0.00  0.00    +0.000 OA
ENDBRANCH  17  22
ENDBRANCH   2  13
TORSDOF 5
ENDMDL
MODEL 2
REMARK VINA RESULT:      -7.3      0.226      3.161
REMARK  Name = 
REMARK  5 active torsions:
REMARK  status: ('A' for Active; 'I' for Inactive)
REMARK    1  A    between atoms: C_2  and  C_3
REMARK    2  A    between atoms: C_8  and  N_9
REMARK    3  A    between atoms: C_10  and  C_12
REMARK    4  A    between atoms: C_14  and  N_15
REMARK    5  A    between atoms: C_19  and  N_20
REMARK                            x       y       z     vdW  Elec       q    Type
REMARK                         _______ _______ _______ _____ _____    ______ ____
ROOT
ATOM      1  N   UNL     1       3.949   4.184  18.854  0.00  0.00    +0.000 N 
ATOM      2  C   UNL     1       3.914   4.149  17.469  0.00  0.00    +0.000 C 
ATOM      3  O   UNL     1       3.048   3.653  16.761  0.00  0.00    +0.000 OA
ATOM      4  H   UNL     1       4.779   4.557  19.300  0.00  0.00    +0.000 HD
ENDROOT
BRANCH   1  10
ATOM      5  C   UNL     1       3.156   2.698  20.643  0.00  0.00    +0.000 A 
ATOM      6  C   UNL     1       2.139   2.280  21.519  0.00  0.00    +0.000 A 
ATOM      7  C   UNL     1       0.891   2.898  21.497  0.00  0.00    +0.000 A 
ATOM      8  C   UNL     1       0.655   3.939  20.609  0.00  0.00    +0.000 A 
ATOM      9  C   UNL     1       1.659   4.358  19.734  0.00  0.00    +0.000 A 
ATOM     10  C   UNL     1       2.918   3.746  19.728  0.00  0.00    +0.000 A 
BRANCH   5  12
ATOM     11  N   UNL     1       5.430   1.452  20.769  0.00  0.00    +0.000 NA
ATOM     12  C   UNL     1       4.414   2.006  20.693  0.00  0.00    +0.000 C 
ENDBRANCH   5  12
ENDBRANCH   1  10
BRANCH   2  13
ATOM     13  C   UNL     1       5.048   4.821  16.785  0.00  0.00    +0.000 A 
ATOM     14  C   UNL     1       5.406   4.497  15.474  0.00  0.00    +0.000 A 
ATOM     15  C   UNL     1       6.556   5.069  14.913  0.00  0.00    +0.000 A 
ATOM     16  C   UNL     1       7.326   5.993  15.633  0.00  0.00    +0.000 A 
ATOM     17  C   UNL     1       6.927   6.344  16.930  0.00  0.00    +0.000 A 
ATOM     18  C   UNL     1       5.786   5.770  17.508  0.00  0.00    +0.000 A 
BRANCH  15  19
ATOM     19  N   UNL     1       6.982   4.647  13.572  0.00  0.00    +0.000 N 
ATOM     20  O   UNL     1       7.829   5.345  13.000  0.00  0.00    +0.000 OA
ATOM     21  O   UNL     1       6.454   3.638  13.094  0.00  0.00    +0.000 OA
ENDBRANCH  15  19
BRANCH  17  22
ATOM     22  N   UNL     1       7.742   7.285  17.713  0.00  0.00    +0.000 N 
ATOM     23  O   UNL     1       7.902   8.422  17.250  0.00  0.00    +0.000 OA
ATOM     24  O   UNL     1       8.229   6.878  18.775  0.00  0.00    +0.000 OA
ENDBRANCH  17  22
ENDBRANCH   2  13
TORSDOF 5
ENDMDL
MODEL 3
REMARK VINA RESULT:      -7.2      2.581      3.854
REMARK  Name = 
REMARK  5 active torsions:
REMARK  status: ('A' for Active; 'I' for Inactive)
REMARK    1  A    between atoms: C_2  and  C_3
REMARK    2  A    between atoms: C_8  and  N_9
REMARK    3  A    between atoms: C_10  and  C_12
REMARK    4  A    between atoms: C_14  and  N_15
REMARK    5  A    between atoms: C_19  and  N_20
REMARK                            x       y       z     vdW  Elec       q    Type
REMARK                         _______ _______ _______ _____ _____    ______ ____
ROOT
ATOM      1  N   UNL     1       4.172   3.897  16.384  0.00  0.00    +0.000 N 
ATOM      2  C   UNL     1       5.531   4.143  16.256  0.00  0.00    +0.000 C 
ATOM      3  O   UNL     1       6.338   4.332  17.155  0.00  0.00    +0.000 OA
ATOM      4  H   UNL     1       3.616   3.846  15.539  0.00  0.00    +0.000 HD
ENDROOT
BRANCH   1  10
ATOM      5  C   UNL     1       3.033   4.812  18.361  0.00  0.00    +0.000 A 
ATOM      6  C   UNL     1       2.321   4.615  19.556  0.00  0.00    +0.000 A 
ATOM      7  C   UNL     1       2.034   3.327  20.002  0.00  0.00    +0.000 A 
ATOM      8  C   UNL     1       2.446   2.232  19.255  0.00  0.00    +0.000 A 
ATOM      9  C   UNL     1       3.156   2.420  18.067  0.00  0.00    +0.000 A 
ATOM     10  C   UNL     1       3.468   3.704  17.603  0.00  0.00    +0.000 A 
BRANCH   5  12
ATOM     11  N   UNL     1       3.579   7.239  17.619  0.00  0.00    +0.000 NA
ATOM     12  C   UNL     1       3.323   6.162  17.964  0.00  0.00    +0.000 C 
ENDBRANCH   5  12
ENDBRANCH   1  10
BRANCH   2  13
ATOM     13  C   UNL     1       6.050   4.141  14.865  0.00  0.00    +0.000 A 
ATOM     14  C   UNL     1       7.094   4.985  14.475  0.00  0.00    +0.000 A 
ATOM     15  C   UNL     1       7.469   5.036  13.125  0.00  0.00    +0.000 A 
ATOM     16  C   UNL     1       6.841   4.222  12.171  0.00  0.00    +0.000 A 
ATOM     17  C   UNL     1       5.829   3.347  12.586  0.00  0.00    +0.000 A 
ATOM     18  C   UNL     1       5.435   3.295  13.931  0.00  0.00    +0.000 A 
BRANCH  15  19
ATOM     19  N   UNL     1       8.498   5.997  12.706  0.00  0.00    +0.000 N 
ATOM     20  O   UNL     1       9.496   6.112  13.428  0.00  0.00    +0.000 OA
ATOM     21  O   UNL     1       8.292   6.641  11.672  0.00  0.00    +0.000 OA
ENDBRANCH  15  19
BRANCH  17  22
ATOM     22  N   UNL     1       5.136   2.512  11.594  0.00  0.00    +0.000 N 
ATOM     23  O   UNL     1       5.678   1.448  11.267  0.00  0.00    +0.000 OA
ATOM     24  O   UNL     1       4.064   2.930  11.138  0.00  0.00    +0.000 OA
ENDBRANCH  17  22
ENDBRANCH   2  13
TORSDOF 5
ENDMDL
MODEL 4
REMARK VINA RESULT:      -7.1      4.143      5.964
REMARK  Name = 
REMARK  5 active torsions:
REMARK  status: ('A' for Active; 'I' for Inactive)
REMARK    1  A    between atoms: C_2  and  C_3
REMARK    2  A    between atoms: C_8  and  N_9
REMARK    3  A    between atoms: C_10  and  C_12
REMARK    4  A    between atoms: C_14  and  N_15
REMARK    5  A    between atoms: C_19  and  N_20
REMARK                            x       y       z     vdW  Elec       q    Type
REMARK                         _______ _______ _______ _____ _____    ______ ____
ROOT
ATOM      1  N   UNL     1       2.250   7.687  20.377  0.00  0.00    +0.000 N 
ATOM      2  C   UNL     1       2.016   6.328  20.237  0.00  0.00    +0.000 C 
ATOM      3  O   UNL     1       1.041   5.699  20.627  0.00  0.00    +0.000 OA
ATOM      4  H   UNL     1       3.148   8.049  20.077  0.00  0.00    +0.000 HD
ENDROOT
BRANCH   1  10
ATOM      5  C   UNL     1       0.759   9.616  20.067  0.00  0.00    +0.000 A 
ATOM      6  C   UNL     1      -0.153  10.546  20.591  0.00  0.00    +0.000 A 
ATOM      7  C   UNL     1      -0.496  10.515  21.941  0.00  0.00    +0.000 A 
ATOM      8  C   UNL     1       0.062   9.552  22.770  0.00  0.00    +0.000 A 
ATOM      9  C   UNL     1       0.972   8.625  22.257  0.00  0.00    +0.000 A 
ATOM     10  C   UNL     1       1.342   8.642  20.907  0.00  0.00    +0.000 A 
BRANCH   5  12
ATOM     11  N   UNL     1       1.338   9.814  17.544  0.00  0.00    +0.000 NA
ATOM     12  C   UNL     1       1.094   9.712  18.673  0.00  0.00    +0.000 C 
ENDBRANCH   5  12
ENDBRANCH   1  10
BRANCH   2  13
ATOM     13  C   UNL     1       3.062   5.573  19.502  0.00  0.00    +0.000 A 
ATOM     14  C   UNL     1       3.788   6.157  18.460  0.00  0.00    +0.000 A 
ATOM     15  C   UNL     1       4.678   5.371  17.717  0.00  0.00    +0.000 A 
ATOM     16  C   UNL     1       4.881   4.019  18.030  0.00  0.00    +0.000 A 
ATOM     17  C   UNL     1       4.181   3.460  19.108  0.00  0.00    +0.000 A 
ATOM     18  C   UNL     1       3.278   4.231  19.852  0.00  0.00    +0.000 A 
BRANCH  15  19
ATOM     19  N   UNL     1       5.362   5.965  16.561  0.00  0.00    +0.000 N 
ATOM     20  O   UNL     1       5.237   5.393  15.471  0.00  0.00    +0.000 OA
ATOM     21  O   UNL     1       6.033   6.984  16.755  0.00  0.00    +0.000 OA
ENDBRANCH  15  19
BRANCH  17  22
ATOM     22  N   UNL     1       4.355   2.035  19.429  0.00  0.00    +0.000 N 
ATOM     23  O   UNL     1       3.796   1.213  18.691  0.00  0.00    +0.000 OA
ATOM     24  O   UNL     1       5.034   1.748  20.422  0.00  0.00    +0.000 OA
ENDBRANCH  17  22
ENDBRANCH   2  13
TORSDOF 5
ENDMDL
MODEL 5
REMARK VINA RESULT:      -7.1      4.087      6.016
REMARK  Name = 
REMARK  5 active torsions:
REMARK  status: ('A' for Active; 'I' for Inactive)
REMARK    1  A    between atoms: C_2  and  C_3
REMARK    2  A    between atoms: C_8  and  N_9
REMARK    3  A    between atoms: C_10  and  C_12
REMARK    4  A    between atoms: C_14  and  N_15
REMARK    5  A    between atoms: C_19  and  N_20
REMARK                            x       y       z     vdW  Elec       q    Type
REMARK                         _______ _______ _______ _____ _____    ______ ____
ROOT
ATOM      1  N   UNL     1       2.210   7.620  20.299  0.00  0.00    +0.000 N 
ATOM      2  C   UNL     1       2.006   6.248  20.285  0.00  0.00    +0.000 C 
ATOM      3  O   UNL     1       1.055   5.636  20.751  0.00  0.00    +0.000 OA
ATOM      4  H   UNL     1       3.092   7.974  19.948  0.00  0.00    +0.000 HD
ENDROOT
BRANCH   1  10
ATOM      5  C   UNL     1       0.862   9.637  19.907  0.00  0.00    +0.000 A 
ATOM      6  C   UNL     1      -0.063  10.591  20.363  0.00  0.00    +0.000 A 
ATOM      7  C   UNL     1      -0.572  10.518  21.658  0.00  0.00    +0.000 A 
ATOM      8  C   UNL     1      -0.167   9.491  22.499  0.00  0.00    +0.000 A 
ATOM      9  C   UNL     1       0.754   8.540  22.054  0.00  0.00    +0.000 A 
ATOM     10  C   UNL     1       1.289   8.598  20.762  0.00  0.00    +0.000 A 
BRANCH   5  12
ATOM     11  N   UNL     1       1.781   9.855  17.490  0.00  0.00    +0.000 NA
ATOM     12  C   UNL     1       1.371   9.777  18.571  0.00  0.00    +0.000 C 
ENDBRANCH   5  12
ENDBRANCH   1  10
BRANCH   2  13
ATOM     13  C   UNL     1       3.055   5.455  19.597  0.00  0.00    +0.000 A 
ATOM     14  C   UNL     1       3.178   4.077  19.796  0.00  0.00    +0.000 A 
ATOM     15  C   UNL     1       4.256   3.392  19.221  0.00  0.00    +0.000 A 
ATOM     16  C   UNL     1       5.188   4.061  18.415  0.00  0.00    +0.000 A 
ATOM     17  C   UNL     1       5.025   5.434  18.185  0.00  0.00    +0.000 A 
ATOM     18  C   UNL     1       3.958   6.134  18.765  0.00  0.00    +0.000 A 
BRANCH  15  19
ATOM     19  N   UNL     1       4.435   1.964  19.517  0.00  0.00    +0.000 N 
ATOM     20  O   UNL     1       5.088   1.671  20.526  0.00  0.00    +0.000 OA
ATOM     21  O   UNL     1       3.940   1.150  18.730  0.00  0.00    +0.000 OA
ENDBRANCH  15  19
BRANCH  17  22
ATOM     22  N   UNL     1       6.012   6.158  17.371  0.00  0.00    +0.000 N 
ATOM     23  O   UNL     1       7.194   6.115  17.737  0.00  0.00    +0.000 OA
ATOM     24  O   UNL     1       5.599   6.778  16.383  0.00  0.00    +0.000 OA
ENDBRANCH  17  22
ENDBRANCH   2  13
TORSDOF 5
ENDMDL
MODEL 6
REMARK VINA RESULT:      -7.1      3.977      5.820
REMARK  Name = 
REMARK  5 active torsions:
REMARK  status: ('A' for Active; 'I' for Inactive)
REMARK    1  A    between atoms: C_2  and  C_3
REMARK    2  A    between atoms: C_8  and  N_9
REMARK    3  A    between atoms: C_10  and  C_12
REMARK    4  A    between atoms: C_14  and  N_15
REMARK    5  A    between atoms: C_19  and  N_20
REMARK                            x       y       z     vdW  Elec       q    Type
REMARK                         _______ _______ _______ _____ _____    ______ ____
ROOT
ATOM      1  N   UNL     1       2.195   7.514  20.436  0.00  0.00    +0.000 N 
ATOM      2  C   UNL     1       1.902   6.161  20.355  0.00  0.00    +0.000 C 
ATOM      3  O   UNL     1       0.864   5.607  20.689  0.00  0.00    +0.000 OA
ATOM      4  H   UNL     1       3.134   7.812  20.199  0.00  0.00    +0.000 HD
ENDROOT
BRANCH   1  10
ATOM      5  C   UNL     1       0.893   9.526  19.893  0.00  0.00    +0.000 A 
ATOM      6  C   UNL     1      -0.011  10.531  20.275  0.00  0.00    +0.000 A 
ATOM      7  C   UNL     1      -0.523  10.565  21.570  0.00  0.00    +0.000 A 
ATOM      8  C   UNL     1      -0.143   9.594  22.486  0.00  0.00    +0.000 A 
ATOM      9  C   UNL     1       0.757   8.593  22.115  0.00  0.00    +0.000 A 
ATOM     10  C   UNL     1       1.296   8.544  20.823  0.00  0.00    +0.000 A 
BRANCH   5  12
ATOM     11  N   UNL     1       1.800   9.556  17.461  0.00  0.00    +0.000 NA
ATOM     12  C   UNL     1       1.408   9.557  18.552  0.00  0.00    +0.000 C 
ENDBRANCH   5  12
ENDBRANCH   1  10
BRANCH   2  13
ATOM     13  C   UNL     1       2.967   5.312  19.764  0.00  0.00    +0.000 A 
ATOM     14  C   UNL     1       4.279   5.774  19.631  0.00  0.00    +0.000 A 
ATOM     15  C   UNL     1       5.222   4.984  18.959  0.00  0.00    +0.000 A 
ATOM     16  C   UNL     1       4.877   3.721  18.457  0.00  0.00    +0.000 A 
ATOM     17  C   UNL     1       3.569   3.252  18.640  0.00  0.00    +0.000 A 
ATOM     18  C   UNL     1       2.613   4.037  19.299  0.00  0.00    +0.000 A 
BRANCH  15  19
ATOM     19  N   UNL     1       6.571   5.519  18.735  0.00  0.00    +0.000 N 
ATOM     20  O   UNL     1       6.757   6.179  17.705  0.00  0.00    +0.000 OA
ATOM     21  O   UNL     1       7.437   5.258  19.576  0.00  0.00    +0.000 OA
ENDBRANCH  15  19
BRANCH  17  22
ATOM     22  N   UNL     1       3.180   1.945  18.089  0.00  0.00    +0.000 N 
ATOM     23  O   UNL     1       3.830   0.957  18.456  0.00  0.00    +0.000 OA
ATOM     24  O   UNL     1       2.241   1.916  17.285  0.00  0.00    +0.000 OA
ENDBRANCH  17  22
ENDBRANCH   2  13
TORSDOF 5
ENDMDL
MODEL 7
REMARK VINA RESULT:      -7.0      6.305      8.192
REMARK  Name = 
REMARK  5 active torsions:
REMARK  status: ('A' for Active; 'I' for Inactive)
REMARK    1  A    between atoms: C_2  and  C_3
REMARK    2  A    between atoms: C_8  and  N_9
REMARK    3  A    between atoms: C_10  and  C_12
REMARK    4  A    between atoms: C_14  and  N_15
REMARK    5  A    between atoms: C_19  and  N_20
REMARK                            x       y       z     vdW  Elec       q    Type
REMARK                         _______ _______ _______ _____ _____    ______ ____
ROOT
ATOM      1  N   UNL     1       2.311   7.508  18.981  0.00  0.00    +0.000 N 
ATOM      2  C   UNL     1       1.844   8.668  18.383  0.00  0.00    +0.000 C 
ATOM      3  O   UNL     1       2.081   9.064  17.250  0.00  0.00    +0.000 OA
ATOM      4  H   UNL     1       2.096   7.358  19.960  0.00  0.00    +0.000 HD
ENDROOT
BRANCH   1  10
ATOM      5  C   UNL     1       2.810   5.128  18.622  0.00  0.00    +0.000 A 
ATOM      6  C   UNL     1       3.552   4.123  17.981  0.00  0.00    +0.000 A 
ATOM      7  C   UNL     1       4.549   4.457  17.067  0.00  0.00    +0.000 A 
ATOM      8  C   UNL     1       4.804   5.792  16.784  0.00  0.00    +0.000 A 
ATOM      9  C   UNL     1       4.072   6.797  17.418  0.00  0.00    +0.000 A 
ATOM     10  C   UNL     1       3.072   6.488  18.350  0.00  0.00    +0.000 A 
BRANCH   5  12
ATOM     11  N   UNL     1       1.003   4.370  20.325  0.00  0.00    +0.000 NA
ATOM     12  C   UNL     1       1.812   4.725  19.574  0.00  0.00    +0.000 C 
ENDBRANCH   5  12
ENDBRANCH   1  10
BRANCH   2  13
ATOM     13  C   UNL     1       0.931   9.492  19.214  0.00  0.00    +0.000 A 
ATOM     14  C   UNL     1       1.007   9.484  20.610  0.00  0.00    +0.000 A 
ATOM     15  C   UNL     1       0.048  10.183  21.355  0.00  0.00    +0.000 A 
ATOM     16  C   UNL     1      -0.961  10.922  20.720  0.00  0.00    +0.000 A 
ATOM     17  C   UNL     1      -0.996  10.958  19.319  0.00  0.00    +0.000 A 
ATOM     18  C   UNL     1      -0.050  10.254  18.562  0.00  0.00    +0.000 A 
BRANCH  15  19
ATOM     19  N   UNL     1       0.075  10.089  22.820  0.00  0.00    +0.000 N 
ATOM     20  O   UNL     1       1.090   9.608  23.340  0.00  0.00    +0.000 OA
ATOM     21  O   UNL     1      -0.923  10.476  23.438  0.00  0.00    +0.000 OA
ENDBRANCH  15  19
BRANCH  17  22
ATOM     22  N   UNL     1      -2.067  11.699  18.637  0.00  0.00    +0.000 N 
ATOM     23  O   UNL     1      -3.031  12.066  19.321  0.00  0.00    +0.000 OA
ATOM     24  O   UNL     1      -1.945  11.896  17.421  0.00  0.00    +0.000 OA
ENDBRANCH  17  22
ENDBRANCH   2  13
TORSDOF 5
ENDMDL
MODEL 8
REMARK VINA RESULT:      -7.0      2.930      7.013
REMARK  Name = 
REMARK  5 active torsions:
REMARK  status: ('A' for Active; 'I' for Inactive)
REMARK    1  A    between atoms: C_2  and  C_3
REMARK    2  A    between atoms: C_8  and  N_9
REMARK    3  A    between atoms: C_10  and  C_12
REMARK    4  A    between atoms: C_14  and  N_15
REMARK    5  A    between atoms: C_19  and  N_20
REMARK                            x       y       z     vdW  Elec       q    Type
REMARK                         _______ _______ _______ _____ _____    ______ ____
ROOT
ATOM      1  N   UNL     1       4.510   4.789  16.257  0.00  0.00    +0.000 N 
ATOM      2  C   UNL     1       4.143   3.802  17.158  0.00  0.00    +0.000 C 
ATOM      3  O   UNL     1       4.402   2.608  17.096  0.00  0.00    +0.000 OA
ATOM      4  H   UNL     1       4.146   5.724  16.401  0.00  0.00    +0.000 HD
ENDROOT
BRANCH   1  10
ATOM      5  C   UNL     1       6.654   5.189  15.125  0.00  0.00    +0.000 A 
ATOM      6  C   UNL     1       7.501   5.005  14.020  0.00  0.00    +0.000 A 
ATOM      7  C   UNL     1       7.077   4.257  12.923  0.00  0.00    +0.000 A 
ATOM      8  C   UNL     1       5.813   3.684  12.929  0.00  0.00    +0.000 A 
ATOM      9  C   UNL     1       4.965   3.864  14.024  0.00  0.00    +0.000 A 
ATOM     10  C   UNL     1       5.362   4.622  15.133  0.00  0.00    +0.000 A 
BRANCH   5  12
ATOM     11  N   UNL     1       7.531   6.610  17.113  0.00  0.00    +0.000 NA
ATOM     12  C   UNL     1       7.136   5.992  16.216  0.00  0.00    +0.000 C 
ENDBRANCH   5  12
ENDBRANCH   1  10
BRANCH   2  13
ATOM     13  C   UNL     1       3.378   4.270  18.341  0.00  0.00    +0.000 A 
ATOM     14  C   UNL     1       2.963   5.599  18.463  0.00  0.00    +0.000 A 
ATOM     15  C   UNL     1       2.351   6.022  19.651  0.00  0.00    +0.000 A 
ATOM     16  C   UNL     1       2.110   5.122  20.698  0.00  0.00    +0.000 A 
ATOM     17  C   UNL     1       2.489   3.782  20.542  0.00  0.00    +0.000 A 
ATOM     18  C   UNL     1       3.114   3.348  19.365  0.00  0.00    +0.000 A 
BRANCH  15  19
ATOM     19  N   UNL     1       2.009   7.442  19.811  0.00  0.00    +0.000 N 
ATOM     20  O   UNL     1       2.263   8.198  18.865  0.00  0.00    +0.000 OA
ATOM     21  O   UNL     1       1.509   7.793  20.885  0.00  0.00    +0.000 OA
ENDBRANCH  15  19
BRANCH  17  22
ATOM     22  N   UNL     1       2.277   2.832  21.644  0.00  0.00    +0.000 N 
ATOM     23  O   UNL     1       1.161   2.821  22.180  0.00  0.00    +0.000 OA
ATOM     24  O   UNL     1       3.229   2.114  21.977  0.00  0.00    +0.000 OA
ENDBRANCH  17  22
ENDBRANCH   2  13
TORSDOF 5
ENDMDL
MODEL 9
REMARK VINA RESULT:      -7.0      6.114      8.290
REMARK  Name = 
REMARK  5 active torsions:
REMARK  status: ('A' for Active; 'I' for Inactive)
REMARK    1  A    between atoms: C_2  and  C_3
REMARK    2  A    between atoms: C_8  and  N_9
REMARK    3  A    between atoms: C_10  and  C_12
REMARK    4  A    between atoms: C_14  and  N_15
REMARK    5  A    between atoms: C_19  and  N_20
REMARK                            x       y       z     vdW  Elec       q    Type
REMARK                         _______ _______ _______ _____ _____    ______ ____
ROOT
ATOM      1  N   UNL     1       2.370   7.255  18.858  0.00  0.00    +0.000 N 
ATOM      2  C   UNL     1       1.992   8.459  18.285  0.00  0.00    +0.000 C 
ATOM      3  O   UNL     1       2.329   8.899  17.194  0.00  0.00    +0.000 OA
ATOM      4  H   UNL     1       2.075   7.067  19.809  0.00  0.00    +0.000 HD
ENDROOT
BRANCH   1  10
ATOM      5  C   UNL     1       2.827   4.875  18.445  0.00  0.00    +0.000 A 
ATOM      6  C   UNL     1       3.578   3.872  17.811  0.00  0.00    +0.000 A 
ATOM      7  C   UNL     1       4.634   4.208  16.966  0.00  0.00    +0.000 A 
ATOM      8  C   UNL     1       4.937   5.544  16.743  0.00  0.00    +0.000 A 
ATOM      9  C   UNL     1       4.196   6.548  17.371  0.00  0.00    +0.000 A 
ATOM     10  C   UNL     1       3.139   6.236  18.234  0.00  0.00    +0.000 A 
BRANCH   5  12
ATOM     11  N   UNL     1       0.937   4.127  20.058  0.00  0.00    +0.000 NA
ATOM     12  C   UNL     1       1.767   4.469  19.326  0.00  0.00    +0.000 C 
ENDBRANCH   5  12
ENDBRANCH   1  10
BRANCH   2  13
ATOM     13  C   UNL     1       1.049   9.279  19.086  0.00  0.00    +0.000 A 
ATOM     14  C   UNL     1       0.184  10.197  18.483  0.00  0.00    +0.000 A 
ATOM     15  C   UNL     1      -0.601  11.034  19.288  0.00  0.00    +0.000 A 
ATOM     16  C   UNL     1      -0.562  10.933  20.686  0.00  0.00    +0.000 A 
ATOM     17  C   UNL     1       0.274   9.975  21.275  0.00  0.00    +0.000 A 
ATOM     18  C   UNL     1       1.074   9.141  20.482  0.00  0.00    +0.000 A 
BRANCH  15  19
ATOM     19  N   UNL     1      -1.431  12.064  18.650  0.00  0.00    +0.000 N 
ATOM     20  O   UNL     1      -2.654  11.872  18.625  0.00  0.00    +0.000 OA
ATOM     21  O   UNL     1      -0.856  13.042  18.163  0.00  0.00    +0.000 OA
ENDBRANCH  15  19
BRANCH  17  22
ATOM     22  N   UNL     1       0.354   9.880  22.740  0.00  0.00    +0.000 N 
ATOM     23  O   UNL     1       1.392   9.411  23.224  0.00  0.00    +0.000 OA
ATOM     24  O   UNL     1      -0.625  10.259  23.395  0.00  0.00    +0.000 OA
ENDBRANCH  17  22
ENDBRANCH   2  13
TORSDOF 5
ENDMDL
