MODEL 1
REMARK VINA RESULT:      -8.0      0.000      0.000
REMARK  Name = 
REMARK  10 active torsions:
REMARK  status: ('A' for Active; 'I' for Inactive)
REMARK    1  A    between atoms: C_1  and  O_2
REMARK    2  A    between atoms: O_2  and  C_3
REMARK    3  A    between atoms: C_13  and  C_14
REMARK    4  A    between atoms: C_17  and  O_18
REMARK    5  A    between atoms: O_18  and  C_19
REMARK    6  A    between atoms: C_19  and  C_20
REMARK    7  A    between atoms: C_20  and  N_21
REMARK    8  A    between atoms: C_22  and  C_23
REMARK    9  A    between atoms: N_25  and  C_26
REMARK   10  A    between atoms: C_29  and  C_30
REMARK                            x       y       z     vdW  Elec       q    Type
REMARK                         _______ _______ _______ _____ _____    ______ ____
ROOT
ATOM      1  C   UNL     1       1.048  10.821  19.373  0.00  0.00    +0.000 A 
ATOM      2  C   UNL     1       1.617  10.507  18.129  0.00  0.00    +0.000 A 
ATOM      3  C   UNL     1       1.970   9.212  17.819  0.00  0.00    +0.000 A 
ATOM      4  C   UNL     1       1.819   8.186  18.740  0.00  0.00    +0.000 A 
ATOM      5  C   UNL     1       1.286   8.473  19.997  0.00  0.00    +0.000 A 
ATOM      6  C   UNL     1       0.933   9.786  20.307  0.00  0.00    +0.000 A 
ENDROOT
BRANCH   1  17
ATOM      7  C   UNL     1      -6.177  13.991  21.662  0.00  0.00    +0.000 A 
ATOM      8  N   UNL     1      -6.998  14.093  22.670  0.00  0.00    +0.000 NA
ATOM      9  N   UNL     1      -6.366  13.594  23.792  0.00  0.00    +0.000 NA
ATOM     10  C   UNL     1      -5.174  13.210  23.427  0.00  0.00    +0.000 A 
ATOM     11  C   UNL     1      -4.096  12.629  24.147  0.00  0.00    +0.000 A 
ATOM     12  C   UNL     1      -2.998  12.305  23.504  0.00  0.00    +0.000 A 
ATOM     13  C   UNL     1      -2.911  12.548  22.028  0.00  0.00    +0.000 A 
ATOM     14  N   UNL     1      -1.795  12.136  21.337  0.00  0.00    +0.000 N 
ATOM     15  C   UNL     1      -0.494  11.990  21.995  0.00  0.00    +0.000 C 
ATOM     16  C   UNL     1       0.622  12.611  21.166  0.00  0.00    +0.000 C 
ATOM     17  C   UNL     1       0.582  12.237  19.676  0.00  0.00    +0.000 C 
ATOM     18  C   UNL     1      -0.822  12.523  19.125  0.00  0.00    +0.000 C 
ATOM     19  C   UNL     1      -1.915  11.819  19.916  0.00  0.00    +0.000 C 
ATOM     20  N   UNL     1      -3.875  13.133  21.352  0.00  0.00    +0.000 NA
ATOM     21  N   UNL     1      -4.975  13.433  22.079  0.00  0.00    +0.000 N 
BRANCH   7  23
ATOM     22  C   UNL     1      -6.640  15.791  20.277  0.00  0.00    +0.000 C 
ATOM     23  O   UNL     1      -6.435  14.384  20.405  0.00  0.00    +0.000 OA
ENDBRANCH   7  23
ENDBRANCH   1  17
BRANCH   4  24
ATOM     24  O   UNL     1       2.176   6.899  18.432  0.00  0.00    +0.000 OA
BRANCH  24  25
ATOM     25  C   UNL     1       2.982   6.304  19.461  0.00  0.00    +0.000 C 
BRANCH  25  26
ATOM     26  C   UNL     1       4.427   6.251  18.989  0.00  0.00    +0.000 C 
BRANCH  26  27
ATOM     27  N   UNL     1       4.908   4.853  18.950  0.00  0.00    +0.000 NA
ATOM     28  C   UNL     1       4.058   4.004  18.068  0.00  0.00    +0.000 C 
ATOM     29  C   UNL     1       4.321   2.501  18.228  0.00  0.00    +0.000 C 
ATOM     30  C   UNL     1       4.202   4.400  16.591  0.00  0.00    +0.000 C 
ATOM     31  N   UNL     1       5.599   4.439  16.193  0.00  0.00    +0.000 N 
ATOM     32  C   UNL     1       6.032   3.738  15.009  0.00  0.00    +0.000 C 
ATOM     33  C   UNL     1       6.554   5.037  17.019  0.00  0.00    +0.000 C 
ATOM     34  O   UNL     1       7.587   5.534  16.574  0.00  0.00    +0.000 OA
ATOM     35  C   UNL     1       6.335   4.769  18.530  0.00  0.00    +0.000 C 
ATOM     36  C   UNL     1       7.301   5.533  19.438  0.00  0.00    +0.000 C 
ENDBRANCH  26  27
ENDBRANCH  25  26
ENDBRANCH  24  25
ENDBRANCH   4  24
TORSDOF 6
ENDMDL
MODEL 2
REMARK VINA RESULT:      -7.9      1.675      2.261
REMARK  Name = 
REMARK  10 active torsions:
REMARK  status: ('A' for Active; 'I' for Inactive)
REMARK    1  A    between atoms: C_1  and  O_2
REMARK    2  A    between atoms: O_2  and  C_3
REMARK    3  A    between atoms: C_13  and  C_14
REMARK    4  A    between atoms: C_17  and  O_18
REMARK    5  A    between atoms: O_18  and  C_19
REMARK    6  A    between atoms: C_19  and  C_20
REMARK    7  A    between atoms: C_20  and  N_21
REMARK    8  A    between atoms: C_22  and  C_23
REMARK    9  A    between atoms: N_25  and  C_26
REMARK   10  A    between atoms: C_29  and  C_30
REMARK                            x       y       z     vdW  Elec       q    Type
REMARK                         _______ _______ _______ _____ _____    ______ ____
ROOT
ATOM      1  C   UNL     1       0.472  11.877  19.924  0.00  0.00    +0.000 A 
ATOM      2  C   UNL     1       1.041  11.821  18.642  0.00  0.00    +0.000 A 
ATOM      3  C   UNL     1       1.495  10.630  18.121  0.00  0.00    +0.000 A 
ATOM      4  C   UNL     1       1.448   9.458  18.861  0.00  0.00    +0.000 A 
ATOM      5  C   UNL     1       0.918   9.488  20.151  0.00  0.00    +0.000 A 
ATOM      6  C   UNL     1       0.461  10.698  20.675  0.00  0.00    +0.000 A 
ENDROOT
BRANCH   1  17
ATOM      7  C   UNL     1      -7.048  14.106  22.369  0.00  0.00    +0.000 A 
ATOM      8  N   UNL     1      -7.915  13.965  23.333  0.00  0.00    +0.000 NA
ATOM      9  N   UNL     1      -7.295  13.304  24.376  0.00  0.00    +0.000 NA
ATOM     10  C   UNL     1      -6.065  13.070  24.011  0.00  0.00    +0.000 A 
ATOM     11  C   UNL     1      -4.980  12.432  24.668  0.00  0.00    +0.000 A 
ATOM     12  C   UNL     1      -3.836  12.304  24.035  0.00  0.00    +0.000 A 
ATOM     13  C   UNL     1      -3.705  12.826  22.636  0.00  0.00    +0.000 A 
ATOM     14  N   UNL     1      -2.536  12.621  21.942  0.00  0.00    +0.000 N 
ATOM     15  C   UNL     1      -1.256  12.434  22.630  0.00  0.00    +0.000 C 
ATOM     16  C   UNL     1      -0.154  13.268  21.991  0.00  0.00    +0.000 C 
ATOM     17  C   UNL     1      -0.106  13.180  20.458  0.00  0.00    +0.000 C 
ATOM     18  C   UNL     1      -1.503  13.477  19.895  0.00  0.00    +0.000 C 
ATOM     19  C   UNL     1      -2.575  12.570  20.482  0.00  0.00    +0.000 C 
ATOM     20  N   UNL     1      -4.681  13.466  22.029  0.00  0.00    +0.000 NA
ATOM     21  N   UNL     1      -5.828  13.555  22.740  0.00  0.00    +0.000 N 
BRANCH   7  23
ATOM     22  C   UNL     1      -7.624  16.092  21.322  0.00  0.00    +0.000 C 
ATOM     23  O   UNL     1      -7.282  14.712  21.195  0.00  0.00    +0.000 OA
ENDBRANCH   7  23
ENDBRANCH   1  17
BRANCH   4  24
ATOM     24  O   UNL     1       1.906   8.275  18.344  0.00  0.00    +0.000 OA
BRANCH  24  25
ATOM     25  C   UNL     1       2.219   7.323  19.373  0.00  0.00    +0.000 C 
BRANCH  25  26
ATOM     26  C   UNL     1       3.235   6.328  18.834  0.00  0.00    +0.000 C 
BRANCH  26  27
ATOM     27  N   UNL     1       3.506   5.271  19.832  0.00  0.00    +0.000 NA
ATOM     28  C   UNL     1       2.245   4.733  20.418  0.00  0.00    +0.000 C 
ATOM     29  C   UNL     1       2.472   3.866  21.663  0.00  0.00    +0.000 C 
ATOM     30  C   UNL     1       1.430   3.948  19.382  0.00  0.00    +0.000 C 
ATOM     31  N   UNL     1       2.246   2.939  18.727  0.00  0.00    +0.000 N 
ATOM     32  C   UNL     1       1.781   1.575  18.647  0.00  0.00    +0.000 C 
ATOM     33  C   UNL     1       3.537   3.246  18.293  0.00  0.00    +0.000 C 
ATOM     34  O   UNL     1       4.068   2.663  17.350  0.00  0.00    +0.000 OA
ATOM     35  C   UNL     1       4.325   4.165  19.262  0.00  0.00    +0.000 C 
ATOM     36  C   UNL     1       5.686   4.608  18.721  0.00  0.00    +0.000 C 
ENDBRANCH  26  27
ENDBRANCH  25  26
ENDBRANCH  24  25
ENDBRANCH   4  24
TORSDOF 6
ENDMDL
MODEL 3
REMARK VINA RESULT:      -7.7      0.620      1.012
REMARK  Name = 
REMARK  10 active torsions:
REMARK  status: ('A' for Active; 'I' for Inactive)
REMARK    1  A    between atoms: C_1  and  O_2
REMARK    2  A    between atoms: O_2  and  C_3
REMARK    3  A    between atoms: C_13  and  C_14
REMARK    4  A    between atoms: C_17  and  O_18
REMARK    5  A    between atoms: O_18  and  C_19
REMARK    6  A    between atoms: C_19  and  C_20
REMARK    7  A    between atoms: C_20  and  N_21
REMARK    8  A    between atoms: C_22  and  C_23
REMARK    9  A    between atoms: N_25  and  C_26
REMARK   10  A    between atoms: C_29  and  C_30
REMARK                            x       y       z     vdW  Elec       q    Type
REMARK                         _______ _______ _______ _____ _____    ______ ____
ROOT
ATOM      1  C   UNL     1       0.746  10.642  19.753  0.00  0.00    +0.000 A 
ATOM      2  C   UNL     1       0.727   9.810  20.883  0.00  0.00    +0.000 A 
ATOM      3  C   UNL     1       1.275   8.547  20.841  0.00  0.00    +0.000 A 
ATOM      4  C   UNL     1       1.822   8.039  19.672  0.00  0.00    +0.000 A 
ATOM      5  C   UNL     1       1.826   8.831  18.523  0.00  0.00    +0.000 A 
ATOM      6  C   UNL     1       1.267  10.108  18.570  0.00  0.00    +0.000 A 
ENDROOT
BRANCH   1  17
ATOM      7  C   UNL     1      -6.612  13.806  21.578  0.00  0.00    +0.000 A 
ATOM      8  N   UNL     1      -7.436  14.031  22.565  0.00  0.00    +0.000 NA
ATOM      9  N   UNL     1      -6.778  13.747  23.746  0.00  0.00    +0.000 NA
ATOM     10  C   UNL     1      -5.571  13.363  23.436  0.00  0.00    +0.000 A 
ATOM     11  C   UNL     1      -4.465  12.953  24.228  0.00  0.00    +0.000 A 
ATOM     12  C   UNL     1      -3.355  12.582  23.634  0.00  0.00    +0.000 A 
ATOM     13  C   UNL     1      -3.282  12.590  22.137  0.00  0.00    +0.000 A 
ATOM     14  N   UNL     1      -2.151  12.124  21.510  0.00  0.00    +0.000 N 
ATOM     15  C   UNL     1      -0.843  12.143  22.170  0.00  0.00    +0.000 C 
ATOM     16  C   UNL     1       0.242  12.674  21.243  0.00  0.00    +0.000 C 
ATOM     17  C   UNL     1       0.216  12.066  19.831  0.00  0.00    +0.000 C 
ATOM     18  C   UNL     1      -1.201  12.197  19.255  0.00  0.00    +0.000 C 
ATOM     19  C   UNL     1      -2.259  11.579  20.158  0.00  0.00    +0.000 C 
ATOM     20  N   UNL     1      -4.275  13.015  21.386  0.00  0.00    +0.000 NA
ATOM     21  N   UNL     1      -5.385  13.378  22.067  0.00  0.00    +0.000 N 
BRANCH   7  23
ATOM     22  C   UNL     1      -7.910  14.953  20.038  0.00  0.00    +0.000 C 
ATOM     23  O   UNL     1      -6.892  13.982  20.277  0.00  0.00    +0.000 OA
ENDBRANCH   7  23
ENDBRANCH   1  17
BRANCH   4  24
ATOM     24  O   UNL     1       2.361   6.781  19.630  0.00  0.00    +0.000 OA
BRANCH  24  25
ATOM     25  C   UNL     1       2.859   6.451  18.324  0.00  0.00    +0.000 C 
BRANCH  25  26
ATOM     26  C   UNL     1       4.373   6.325  18.389  0.00  0.00    +0.000 C 
BRANCH  26  27
ATOM     27  N   UNL     1       4.772   4.901  18.444  0.00  0.00    +0.000 NA
ATOM     28  C   UNL     1       3.990   4.075  17.481  0.00  0.00    +0.000 C 
ATOM     29  C   UNL     1       4.142   2.565  17.708  0.00  0.00    +0.000 C 
ATOM     30  C   UNL     1       4.341   4.417  16.027  0.00  0.00    +0.000 C 
ATOM     31  N   UNL     1       5.777   4.366  15.807  0.00  0.00    +0.000 N 
ATOM     32  C   UNL     1       6.312   3.606  14.704  0.00  0.00    +0.000 C 
ATOM     33  C   UNL     1       6.655   4.935  16.733  0.00  0.00    +0.000 C 
ATOM     34  O   UNL     1       7.762   5.360  16.411  0.00  0.00    +0.000 OA
ATOM     35  C   UNL     1       6.233   4.726  18.210  0.00  0.00    +0.000 C 
ATOM     36  C   UNL     1       7.121   5.462  19.215  0.00  0.00    +0.000 C 
ENDBRANCH  26  27
ENDBRANCH  25  26
ENDBRANCH  24  25
ENDBRANCH   4  24
TORSDOF 6
ENDMDL
MODEL 4
REMARK VINA RESULT:      -7.7      7.540     10.085
REMARK  Name = 
REMARK  10 active torsions:
REMARK  status: ('A' for Active; 'I' for Inactive)
REMARK    1  A    between atoms: C_1  and  O_2
REMARK    2  A    between atoms: O_2  and  C_3
REMARK    3  A    between atoms: C_13  and  C_14
REMARK    4  A    between atoms: C_17  and  O_18
REMARK    5  A    between atoms: O_18  and  C_19
REMARK    6  A    between atoms: C_19  and  C_20
REMARK    7  A    between atoms: C_20  and  N_21
REMARK    8  A    between atoms: C_22  and  C_23
REMARK    9  A    between atoms: N_25  and  C_26
REMARK   10  A    between atoms: C_29  and  C_30
REMARK                            x       y       z     vdW  Elec       q    Type
REMARK                         _______ _______ _______ _____ _____    ______ ____
ROOT
ATOM      1  C   UNL     1       8.966   9.342  18.674  0.00  0.00    +0.000 A 
ATOM      2  C   UNL     1       8.946   8.054  19.231  0.00  0.00    +0.000 A 
ATOM      3  C   UNL     1       8.081   7.093  18.759  0.00  0.00    +0.000 A 
ATOM      4  C   UNL     1       7.171   7.377  17.751  0.00  0.00    +0.000 A 
ATOM      5  C   UNL     1       7.145   8.658  17.200  0.00  0.00    +0.000 A 
ATOM      6  C   UNL     1       8.022   9.630  17.684  0.00  0.00    +0.000 A 
ENDROOT
BRANCH   1  17
ATOM      7  C   UNL     1       9.396  17.519  18.010  0.00  0.00    +0.000 A 
ATOM      8  N   UNL     1       8.882  18.631  18.459  0.00  0.00    +0.000 NA
ATOM      9  N   UNL     1       8.055  18.322  19.522  0.00  0.00    +0.000 NA
ATOM     10  C   UNL     1       8.099  17.029  19.686  0.00  0.00    +0.000 A 
ATOM     11  C   UNL     1       7.461  16.162  20.613  0.00  0.00    +0.000 A 
ATOM     12  C   UNL     1       7.668  14.868  20.524  0.00  0.00    +0.000 A 
ATOM     13  C   UNL     1       8.562  14.337  19.445  0.00  0.00    +0.000 A 
ATOM     14  N   UNL     1       8.716  12.979  19.298  0.00  0.00    +0.000 N 
ATOM     15  C   UNL     1       8.526  12.058  20.422  0.00  0.00    +0.000 C 
ATOM     16  C   UNL     1       9.645  11.027  20.492  0.00  0.00    +0.000 C 
ATOM     17  C   UNL     1       9.983  10.373  19.143  0.00  0.00    +0.000 C 
ATOM     18  C   UNL     1      10.228  11.473  18.100  0.00  0.00    +0.000 C 
ATOM     19  C   UNL     1       9.057  12.439  17.984  0.00  0.00    +0.000 C 
ATOM     20  N   UNL     1       9.203  15.125  18.610  0.00  0.00    +0.000 NA
ATOM     21  N   UNL     1       8.939  16.443  18.759  0.00  0.00    +0.000 N 
BRANCH   7  23
ATOM     22  C   UNL     1      11.625  17.347  17.398  0.00  0.00    +0.000 C 
ATOM     23  O   UNL     1      10.261  17.420  16.987  0.00  0.00    +0.000 OA
ENDBRANCH   7  23
ENDBRANCH   1  17
BRANCH   4  24
ATOM     24  O   UNL     1       6.307   6.421  17.286  0.00  0.00    +0.000 OA
BRANCH  24  25
ATOM     25  C   UNL     1       6.479   5.166  17.962  0.00  0.00    +0.000 C 
BRANCH  25  26
ATOM     26  C   UNL     1       5.351   4.985  18.966  0.00  0.00    +0.000 C 
BRANCH  26  27
ATOM     27  N   UNL     1       4.153   4.424  18.303  0.00  0.00    +0.000 NA
ATOM     28  C   UNL     1       3.987   2.974  18.606  0.00  0.00    +0.000 C 
ATOM     29  C   UNL     1       2.952   2.278  17.713  0.00  0.00    +0.000 C 
ATOM     30  C   UNL     1       3.636   2.742  20.083  0.00  0.00    +0.000 C 
ATOM     31  N   UNL     1       2.502   3.556  20.487  0.00  0.00    +0.000 N 
ATOM     32  C   UNL     1       1.381   2.949  21.163  0.00  0.00    +0.000 C 
ATOM     33  C   UNL     1       2.424   4.898  20.108  0.00  0.00    +0.000 C 
ATOM     34  O   UNL     1       1.816   5.733  20.774  0.00  0.00    +0.000 OA
ATOM     35  C   UNL     1       2.918   5.174  18.664  0.00  0.00    +0.000 C 
ATOM     36  C   UNL     1       2.957   6.659  18.300  0.00  0.00    +0.000 C 
ENDBRANCH  26  27
ENDBRANCH  25  26
ENDBRANCH  24  25
ENDBRANCH   4  24
TORSDOF 6
ENDMDL
MODEL 5
REMARK VINA RESULT:      -7.7      1.785      2.488
REMARK  Name = 
REMARK  10 active torsions:
REMARK  status: ('A' for Active; 'I' for Inactive)
REMARK    1  A    between atoms: C_1  and  O_2
REMARK    2  A    between atoms: O_2  and  C_3
REMARK    3  A    between atoms: C_13  and  C_14
REMARK    4  A    between atoms: C_17  and  O_18
REMARK    5  A    between atoms: O_18  and  C_19
REMARK    6  A    between atoms: C_19  and  C_20
REMARK    7  A    between atoms: C_20  and  N_21
REMARK    8  A    between atoms: C_22  and  C_23
REMARK    9  A    between atoms: N_25  and  C_26
REMARK   10  A    between atoms: C_29  and  C_30
REMARK                            x       y       z     vdW  Elec       q    Type
REMARK                         _______ _______ _______ _____ _____    ______ ____
ROOT
ATOM      1  C   UNL     1       0.704  11.335  19.756  0.00  0.00    +0.000 A 
ATOM      2  C   UNL     1       1.088  11.106  18.425  0.00  0.00    +0.000 A 
ATOM      3  C   UNL     1       1.445   9.846  17.999  0.00  0.00    +0.000 A 
ATOM      4  C   UNL     1       1.483   8.774  18.877  0.00  0.00    +0.000 A 
ATOM      5  C   UNL     1       1.139   8.977  20.214  0.00  0.00    +0.000 A 
ATOM      6  C   UNL     1       0.780  10.255  20.642  0.00  0.00    +0.000 A 
ENDROOT
BRANCH   1  17
ATOM      7  C   UNL     1      -6.626  14.297  21.987  0.00  0.00    +0.000 A 
ATOM      8  N   UNL     1      -7.505  14.288  22.951  0.00  0.00    +0.000 NA
ATOM      9  N   UNL     1      -6.942  13.651  24.040  0.00  0.00    +0.000 NA
ATOM     10  C   UNL     1      -5.733  13.298  23.701  0.00  0.00    +0.000 A 
ATOM     11  C   UNL     1      -4.703  12.622  24.407  0.00  0.00    +0.000 A 
ATOM     12  C   UNL     1      -3.571  12.365  23.794  0.00  0.00    +0.000 A 
ATOM     13  C   UNL     1      -3.395  12.782  22.365  0.00  0.00    +0.000 A 
ATOM     14  N   UNL     1      -2.243  12.441  21.696  0.00  0.00    +0.000 N 
ATOM     15  C   UNL     1      -0.984  12.201  22.406  0.00  0.00    +0.000 C 
ATOM     16  C   UNL     1       0.182  12.903  21.723  0.00  0.00    +0.000 C 
ATOM     17  C   UNL     1       0.229  12.711  20.199  0.00  0.00    +0.000 C 
ATOM     18  C   UNL     1      -1.139  13.078  19.606  0.00  0.00    +0.000 C 
ATOM     19  C   UNL     1      -2.280  12.297  20.242  0.00  0.00    +0.000 C 
ATOM     20  N   UNL     1      -4.315  13.454  21.710  0.00  0.00    +0.000 NA
ATOM     21  N   UNL     1      -5.454  13.679  22.403  0.00  0.00    +0.000 N 
BRANCH   7  23
ATOM     22  C   UNL     1      -7.417  13.953  19.835  0.00  0.00    +0.000 C 
ATOM     23  O   UNL     1      -6.808  14.841  20.773  0.00  0.00    +0.000 OA
ENDBRANCH   7  23
ENDBRANCH   1  17
BRANCH   4  24
ATOM     24  O   UNL     1       1.845   7.523  18.453  0.00  0.00    +0.000 OA
BRANCH  24  25
ATOM     25  C   UNL     1       3.259   7.300  18.577  0.00  0.00    +0.000 C 
BRANCH  25  26
ATOM     26  C   UNL     1       3.490   6.023  19.370  0.00  0.00    +0.000 C 
BRANCH  26  27
ATOM     27  N   UNL     1       2.831   4.876  18.709  0.00  0.00    +0.000 NA
ATOM     28  C   UNL     1       3.781   4.121  17.844  0.00  0.00    +0.000 C 
ATOM     29  C   UNL     1       3.091   3.121  16.907  0.00  0.00    +0.000 C 
ATOM     30  C   UNL     1       4.851   3.399  18.674  0.00  0.00    +0.000 C 
ATOM     31  N   UNL     1       4.247   2.592  19.721  0.00  0.00    +0.000 N 
ATOM     32  C   UNL     1       4.627   1.208  19.874  0.00  0.00    +0.000 C 
ATOM     33  C   UNL     1       3.203   3.102  20.494  0.00  0.00    +0.000 C 
ATOM     34  O   UNL     1       2.991   2.720  21.643  0.00  0.00    +0.000 OA
ATOM     35  C   UNL     1       2.190   3.962  19.695  0.00  0.00    +0.000 C 
ATOM     36  C   UNL     1       1.125   4.629  20.568  0.00  0.00    +0.000 C 
ENDBRANCH  26  27
ENDBRANCH  25  26
ENDBRANCH  24  25
ENDBRANCH   4  24
TORSDOF 6
ENDMDL
MODEL 6
REMARK VINA RESULT:      -7.4      5.363     10.063
REMARK  Name = 
REMARK  10 active torsions:
REMARK  status: ('A' for Active; 'I' for Inactive)
REMARK    1  A    between atoms: C_1  and  O_2
REMARK    2  A    between atoms: O_2  and  C_3
REMARK    3  A    between atoms: C_13  and  C_14
REMARK    4  A    between atoms: C_17  and  O_18
REMARK    5  A    between atoms: O_18  and  C_19
REMARK    6  A    between atoms: C_19  and  C_20
REMARK    7  A    between atoms: C_20  and  N_21
REMARK    8  A    between atoms: C_22  and  C_23
REMARK    9  A    between atoms: N_25  and  C_26
REMARK   10  A    between atoms: C_29  and  C_30
REMARK                            x       y       z     vdW  Elec       q    Type
REMARK                         _______ _______ _______ _____ _____    ______ ____
ROOT
ATOM      1  C   UNL     1       1.410  11.633  18.972  0.00  0.00    +0.000 A 
ATOM      2  C   UNL     1       2.239  12.373  18.115  0.00  0.00    +0.000 A 
ATOM      3  C   UNL     1       3.005  13.413  18.594  0.00  0.00    +0.000 A 
ATOM      4  C   UNL     1       2.948  13.792  19.927  0.00  0.00    +0.000 A 
ATOM      5  C   UNL     1       2.108  13.096  20.797  0.00  0.00    +0.000 A 
ATOM      6  C   UNL     1       1.332  12.045  20.306  0.00  0.00    +0.000 A 
ENDROOT
BRANCH   1  17
ATOM      7  C   UNL     1       3.307   3.698  18.010  0.00  0.00    +0.000 A 
ATOM      8  N   UNL     1       3.512   2.588  18.664  0.00  0.00    +0.000 NA
ATOM      9  N   UNL     1       3.160   2.795  19.984  0.00  0.00    +0.000 NA
ATOM     10  C   UNL     1       2.746   4.028  20.086  0.00  0.00    +0.000 A 
ATOM     11  C   UNL     1       2.264   4.785  21.187  0.00  0.00    +0.000 A 
ATOM     12  C   UNL     1       1.940   6.044  21.004  0.00  0.00    +0.000 A 
ATOM     13  C   UNL     1       2.093   6.654  19.644  0.00  0.00    +0.000 A 
ATOM     14  N   UNL     1       1.833   7.993  19.467  0.00  0.00    +0.000 N 
ATOM     15  C   UNL     1       0.913   8.720  20.346  0.00  0.00    +0.000 C 
ATOM     16  C   UNL     1      -0.044   9.595  19.548  0.00  0.00    +0.000 C 
ATOM     17  C   UNL     1       0.633  10.432  18.452  0.00  0.00    +0.000 C 
ATOM     18  C   UNL     1       1.494   9.511  17.577  0.00  0.00    +0.000 C 
ATOM     19  C   UNL     1       2.505   8.713  18.387  0.00  0.00    +0.000 C 
ATOM     20  N   UNL     1       2.487   5.958  18.600  0.00  0.00    +0.000 NA
ATOM     21  N   UNL     1       2.806   4.671  18.865  0.00  0.00    +0.000 N 
BRANCH   7  23
ATOM     22  C   UNL     1       4.902   4.040  16.364  0.00  0.00    +0.000 C 
ATOM     23  O   UNL     1       3.524   3.879  16.698  0.00  0.00    +0.000 OA
ENDBRANCH   7  23
ENDBRANCH   1  17
BRANCH   4  24
ATOM     24  O   UNL     1       3.705  14.830  20.401  0.00  0.00    +0.000 OA
BRANCH  24  25
ATOM     25  C   UNL     1       4.597  15.347  19.400  0.00  0.00    +0.000 C 
BRANCH  25  26
ATOM     26  C   UNL     1       6.030  15.053  19.816  0.00  0.00    +0.000 C 
BRANCH  26  27
ATOM     27  N   UNL     1       6.981  15.650  18.853  0.00  0.00    +0.000 NA
ATOM     28  C   UNL     1       7.818  16.706  19.491  0.00  0.00    +0.000 C 
ATOM     29  C   UNL     1       8.597  17.561  18.482  0.00  0.00    +0.000 C 
ATOM     30  C   UNL     1       8.787  16.112  20.523  0.00  0.00    +0.000 C 
ATOM     31  N   UNL     1       9.559  15.021  19.951  0.00  0.00    +0.000 N 
ATOM     32  C   UNL     1      10.996  15.009  20.080  0.00  0.00    +0.000 C 
ATOM     33  C   UNL     1       8.937  14.053  19.161  0.00  0.00    +0.000 C 
ATOM     34  O   UNL     1       9.370  12.906  19.066  0.00  0.00    +0.000 OA
ATOM     35  C   UNL     1       7.846  14.618  18.215  0.00  0.00    +0.000 C 
ATOM     36  C   UNL     1       7.075  13.541  17.450  0.00  0.00    +0.000 C 
ENDBRANCH  26  27
ENDBRANCH  25  26
ENDBRANCH  24  25
ENDBRANCH   4  24
TORSDOF 6
ENDMDL
MODEL 7
REMARK VINA RESULT:      -7.4      1.629      1.846
REMARK  Name = 
REMARK  10 active torsions:
REMARK  status: ('A' for Active; 'I' for Inactive)
REMARK    1  A    between atoms: C_1  and  O_2
REMARK    2  A    between atoms: O_2  and  C_3
REMARK    3  A    between atoms: C_13  and  C_14
REMARK    4  A    between atoms: C_17  and  O_18
REMARK    5  A    between atoms: O_18  and  C_19
REMARK    6  A    between atoms: C_19  and  C_20
REMARK    7  A    between atoms: C_20  and  N_21
REMARK    8  A    between atoms: C_22  and  C_23
REMARK    9  A    between atoms: N_25  and  C_26
REMARK   10  A    between atoms: C_29  and  C_30
REMARK                            x       y       z     vdW  Elec       q    Type
REMARK                         _______ _______ _______ _____ _____    ______ ____
ROOT
ATOM      1  C   UNL     1       0.556  10.706  19.250  0.00  0.00    +0.000 A 
ATOM      2  C   UNL     1       1.267  10.043  18.237  0.00  0.00    +0.000 A 
ATOM      3  C   UNL     1       1.814   8.798  18.456  0.00  0.00    +0.000 A 
ATOM      4  C   UNL     1       1.720   8.179  19.694  0.00  0.00    +0.000 A 
ATOM      5  C   UNL     1       1.047   8.828  20.729  0.00  0.00    +0.000 A 
ATOM      6  C   UNL     1       0.497  10.090  20.504  0.00  0.00    +0.000 A 
ENDROOT
BRANCH   1  17
ATOM      7  C   UNL     1      -4.835  15.254  23.463  0.00  0.00    +0.000 A 
ATOM      8  N   UNL     1      -4.955  16.031  24.503  0.00  0.00    +0.000 NA
ATOM      9  N   UNL     1      -3.691  16.277  25.005  0.00  0.00    +0.000 NA
ATOM     10  C   UNL     1      -2.842  15.642  24.245  0.00  0.00    +0.000 A 
ATOM     11  C   UNL     1      -1.426  15.535  24.278  0.00  0.00    +0.000 A 
ATOM     12  C   UNL     1      -0.821  14.785  23.386  0.00  0.00    +0.000 A 
ATOM     13  C   UNL     1      -1.636  14.055  22.361  0.00  0.00    +0.000 A 
ATOM     14  N   UNL     1      -1.013  13.206  21.478  0.00  0.00    +0.000 N 
ATOM     15  C   UNL     1       0.394  13.379  21.107  0.00  0.00    +0.000 C 
ATOM     16  C   UNL     1       0.593  13.250  19.603  0.00  0.00    +0.000 C 
ATOM     17  C   UNL     1      -0.119  12.042  18.974  0.00  0.00    +0.000 C 
ATOM     18  C   UNL     1      -1.594  12.053  19.399  0.00  0.00    +0.000 C 
ATOM     19  C   UNL     1      -1.768  12.090  20.910  0.00  0.00    +0.000 C 
ATOM     20  N   UNL     1      -2.942  14.182  22.280  0.00  0.00    +0.000 NA
ATOM     21  N   UNL     1      -3.495  14.967  23.233  0.00  0.00    +0.000 N 
BRANCH   7  23
ATOM     22  C   UNL     1      -6.509  13.666  23.246  0.00  0.00    +0.000 C 
ATOM     23  O   UNL     1      -5.848  14.809  22.703  0.00  0.00    +0.000 OA
ENDBRANCH   7  23
ENDBRANCH   1  17
BRANCH   4  24
ATOM     24  O   UNL     1       2.270   6.943  19.911  0.00  0.00    +0.000 OA
BRANCH  24  25
ATOM     25  C   UNL     1       2.658   6.303  18.685  0.00  0.00    +0.000 C 
BRANCH  25  26
ATOM     26  C   UNL     1       4.175   6.226  18.626  0.00  0.00    +0.000 C 
BRANCH  26  27
ATOM     27  N   UNL     1       4.623   4.816  18.639  0.00  0.00    +0.000 NA
ATOM     28  C   UNL     1       3.871   3.992  17.651  0.00  0.00    +0.000 C 
ATOM     29  C   UNL     1       4.074   2.482  17.833  0.00  0.00    +0.000 C 
ATOM     30  C   UNL     1       4.210   4.390  16.208  0.00  0.00    +0.000 C 
ATOM     31  N   UNL     1       5.647   4.395  15.989  0.00  0.00    +0.000 N 
ATOM     32  C   UNL     1       6.210   3.687  14.865  0.00  0.00    +0.000 C 
ATOM     33  C   UNL     1       6.504   4.966  16.933  0.00  0.00    +0.000 C 
ATOM     34  O   UNL     1       7.597   5.439  16.626  0.00  0.00    +0.000 OA
ATOM     35  C   UNL     1       6.089   4.698  18.403  0.00  0.00    +0.000 C 
ATOM     36  C   UNL     1       6.951   5.435  19.430  0.00  0.00    +0.000 C 
ENDBRANCH  26  27
ENDBRANCH  25  26
ENDBRANCH  24  25
ENDBRANCH   4  24
TORSDOF 6
ENDMDL
MODEL 8
REMARK VINA RESULT:      -7.4      5.979      7.387
REMARK  Name = 
REMARK  10 active torsions:
REMARK  status: ('A' for Active; 'I' for Inactive)
REMARK    1  A    between atoms: C_1  and  O_2
REMARK    2  A    between atoms: O_2  and  C_3
REMARK    3  A    between atoms: C_13  and  C_14
REMARK    4  A    between atoms: C_17  and  O_18
REMARK    5  A    between atoms: O_18  and  C_19
REMARK    6  A    between atoms: C_19  and  C_20
REMARK    7  A    between atoms: C_20  and  N_21
REMARK    8  A    between atoms: C_22  and  C_23
REMARK    9  A    between atoms: N_25  and  C_26
REMARK   10  A    between atoms: C_29  and  C_30
REMARK                            x       y       z     vdW  Elec       q    Type
REMARK                         _______ _______ _______ _____ _____    ______ ____
ROOT
ATOM      1  C   UNL     1       1.734  12.857  20.100  0.00  0.00    +0.000 A 
ATOM      2  C   UNL     1       2.109  12.694  18.757  0.00  0.00    +0.000 A 
ATOM      3  C   UNL     1       3.108  13.463  18.203  0.00  0.00    +0.000 A 
ATOM      4  C   UNL     1       3.744  14.453  18.937  0.00  0.00    +0.000 A 
ATOM      5  C   UNL     1       3.371  14.661  20.265  0.00  0.00    +0.000 A 
ATOM      6  C   UNL     1       2.356  13.881  20.821  0.00  0.00    +0.000 A 
ENDROOT
BRANCH   1  17
ATOM      7  C   UNL     1      -6.473  12.669  19.792  0.00  0.00    +0.000 A 
ATOM      8  N   UNL     1      -7.481  12.376  19.018  0.00  0.00    +0.000 NA
ATOM      9  N   UNL     1      -6.988  11.755  17.886  0.00  0.00    +0.000 NA
ATOM     10  C   UNL     1      -5.692  11.687  18.015  0.00  0.00    +0.000 A 
ATOM     11  C   UNL     1      -4.676  11.158  17.175  0.00  0.00    +0.000 A 
ATOM     12  C   UNL     1      -3.421  11.256  17.550  0.00  0.00    +0.000 A 
ATOM     13  C   UNL     1      -3.090  11.930  18.847  0.00  0.00    +0.000 A 
ATOM     14  N   UNL     1      -1.774  12.107  19.203  0.00  0.00    +0.000 N 
ATOM     15  C   UNL     1      -0.717  11.225  18.704  0.00  0.00    +0.000 C 
ATOM     16  C   UNL     1       0.225  10.797  19.821  0.00  0.00    +0.000 C 
ATOM     17  C   UNL     1       0.689  11.946  20.728  0.00  0.00    +0.000 C 
ATOM     18  C   UNL     1      -0.540  12.720  21.226  0.00  0.00    +0.000 C 
ATOM     19  C   UNL     1      -1.419  13.216  20.087  0.00  0.00    +0.000 C 
ATOM     20  N   UNL     1      -4.018  12.380  19.664  0.00  0.00    +0.000 NA
ATOM     21  N   UNL     1      -5.285  12.247  19.210  0.00  0.00    +0.000 N 
BRANCH   7  23
ATOM     22  C   UNL     1      -7.138  12.445  22.001  0.00  0.00    +0.000 C 
ATOM     23  O   UNL     1      -6.561  13.270  20.989  0.00  0.00    +0.000 OA
ENDBRANCH   7  23
ENDBRANCH   1  17
BRANCH   4  24
ATOM     24  O   UNL     1       4.734  15.221  18.383  0.00  0.00    +0.000 OA
BRANCH  24  25
ATOM     25  C   UNL     1       5.853  14.429  17.954  0.00  0.00    +0.000 C 
BRANCH  25  26
ATOM     26  C   UNL     1       7.030  15.350  17.668  0.00  0.00    +0.000 C 
BRANCH  26  27
ATOM     27  N   UNL     1       7.990  15.327  18.793  0.00  0.00    +0.000 NA
ATOM     28  C   UNL     1       8.528  13.957  19.027  0.00  0.00    +0.000 C 
ATOM     29  C   UNL     1       9.282  13.815  20.356  0.00  0.00    +0.000 C 
ATOM     30  C   UNL     1       9.426  13.495  17.871  0.00  0.00    +0.000 C 
ATOM     31  N   UNL     1      10.451  14.482  17.577  0.00  0.00    +0.000 N 
ATOM     32  C   UNL     1      11.834  14.081  17.486  0.00  0.00    +0.000 C 
ATOM     33  C   UNL     1      10.131  15.840  17.516  0.00  0.00    +0.000 C 
ATOM     34  O   UNL     1      10.767  16.634  16.827  0.00  0.00    +0.000 OA
ATOM     35  C   UNL     1       9.106  16.293  18.589  0.00  0.00    +0.000 C 
ATOM     36  C   UNL     1       8.655  17.747  18.435  0.00  0.00    +0.000 C 
ENDBRANCH  26  27
ENDBRANCH  25  26
ENDBRANCH  24  25
ENDBRANCH   4  24
TORSDOF 6
ENDMDL
MODEL 9
REMARK VINA RESULT:      -7.4      1.974      2.827
REMARK  Name = 
REMARK  10 active torsions:
REMARK  status: ('A' for Active; 'I' for Inactive)
REMARK    1  A    between atoms: C_1  and  O_2
REMARK    2  A    between atoms: O_2  and  C_3
REMARK    3  A    between atoms: C_13  and  C_14
REMARK    4  A    between atoms: C_17  and  O_18
REMARK    5  A    between atoms: O_18  and  C_19
REMARK    6  A    between atoms: C_19  and  C_20
REMARK    7  A    between atoms: C_20  and  N_21
REMARK    8  A    between atoms: C_22  and  C_23
REMARK    9  A    between atoms: N_25  and  C_26
REMARK   10  A    between atoms: C_29  and  C_30
REMARK                            x       y       z     vdW  Elec       q    Type
REMARK                         _______ _______ _______ _____ _____    ______ ____
ROOT
ATOM      1  C   UNL     1       0.263  11.304  20.329  0.00  0.00    +0.000 A 
ATOM      2  C   UNL     1       0.754  10.278  21.151  0.00  0.00    +0.000 A 
ATOM      3  C   UNL     1       1.167   9.078  20.614  0.00  0.00    +0.000 A 
ATOM      4  C   UNL     1       1.069   8.829  19.253  0.00  0.00    +0.000 A 
ATOM      5  C   UNL     1       0.555   9.818  18.415  0.00  0.00    +0.000 A 
ATOM      6  C   UNL     1       0.135  11.030  18.964  0.00  0.00    +0.000 A 
ENDROOT
BRANCH   1  17
ATOM      7  C   UNL     1      -6.923  14.853  22.136  0.00  0.00    +0.000 A 
ATOM      8  N   UNL     1      -7.916  14.826  22.982  0.00  0.00    +0.000 NA
ATOM      9  N   UNL     1      -7.575  13.978  24.018  0.00  0.00    +0.000 NA
ATOM     10  C   UNL     1      -6.379  13.522  23.769  0.00  0.00    +0.000 A 
ATOM     11  C   UNL     1      -5.532  12.629  24.477  0.00  0.00    +0.000 A 
ATOM     12  C   UNL     1      -4.364  12.314  23.965  0.00  0.00    +0.000 A 
ATOM     13  C   UNL     1      -3.958  12.896  22.645  0.00  0.00    +0.000 A 
ATOM     14  N   UNL     1      -2.773  12.505  22.067  0.00  0.00    +0.000 N 
ATOM     15  C   UNL     1      -1.652  12.010  22.870  0.00  0.00    +0.000 C 
ATOM     16  C   UNL     1      -0.336  12.642  22.440  0.00  0.00    +0.000 C 
ATOM     17  C   UNL     1      -0.112  12.656  20.919  0.00  0.00    +0.000 C 
ATOM     18  C   UNL     1      -1.340  13.274  20.237  0.00  0.00    +0.000 C 
ATOM     19  C   UNL     1      -2.635  12.567  20.613  0.00  0.00    +0.000 C 
ATOM     20  N   UNL     1      -4.703  13.765  21.999  0.00  0.00    +0.000 NA
ATOM     21  N   UNL     1      -5.891  14.038  22.584  0.00  0.00    +0.000 N 
BRANCH   7  23
ATOM     22  C   UNL     1      -6.512  16.939  21.215  0.00  0.00    +0.000 C 
ATOM     23  O   UNL     1      -6.883  15.577  21.007  0.00  0.00    +0.000 OA
ENDBRANCH   7  23
ENDBRANCH   1  17
BRANCH   4  24
ATOM     24  O   UNL     1       1.475   7.633  18.722  0.00  0.00    +0.000 OA
BRANCH  24  25
ATOM     25  C   UNL     1       2.871   7.388  18.952  0.00  0.00    +0.000 C 
BRANCH  25  26
ATOM     26  C   UNL     1       3.021   6.114  19.770  0.00  0.00    +0.000 C 
BRANCH  26  27
ATOM     27  N   UNL     1       2.668   4.931  18.955  0.00  0.00    +0.000 NA
ATOM     28  C   UNL     1       3.845   4.411  18.203  0.00  0.00    +0.000 C 
ATOM     29  C   UNL     1       3.475   3.389  17.120  0.00  0.00    +0.000 C 
ATOM     30  C   UNL     1       4.898   3.810  19.145  0.00  0.00    +0.000 C 
ATOM     31  N   UNL     1       4.302   2.835  20.043  0.00  0.00    +0.000 N 
ATOM     32  C   UNL     1       4.889   1.523  20.177  0.00  0.00    +0.000 C 
ATOM     33  C   UNL     1       3.088   3.106  20.677  0.00  0.00    +0.000 C 
ATOM     34  O   UNL     1       2.787   2.605  21.758  0.00  0.00    +0.000 OA
ATOM     35  C   UNL     1       2.063   3.849  19.782  0.00  0.00    +0.000 C 
ATOM     36  C   UNL     1       0.788   4.263  20.519  0.00  0.00    +0.000 C 
ENDBRANCH  26  27
ENDBRANCH  25  26
ENDBRANCH  24  25
ENDBRANCH   4  24
TORSDOF 6
ENDMDL
