MODEL 1
REMARK VINA RESULT:      -9.2      0.000      0.000
REMARK  Name = 
REMARK  5 active torsions:
REMARK  status: ('A' for Active; 'I' for Inactive)
REMARK    1  A    between atoms: C_4  and  O_5
REMARK    2  A    between atoms: O_5  and  C_6
REMARK    3  A    between atoms: C_9  and  N_10
REMARK    4  A    between atoms: N_10  and  C_11
REMARK    5  A    between atoms: C_16  and  C_17
REMARK                            x       y       z     vdW  Elec       q    Type
REMARK                         _______ _______ _______ _____ _____    ______ ____
ROOT
ATOM      1  C   UNL     1       2.288   9.003  18.671  0.00  0.00    +0.000 A 
ATOM      2  C   UNL     1       1.768   8.883  18.094  0.00  0.00    +0.000 A 
ATOM      3  C   UNL     1       1.996   7.517  18.079  0.00  0.00    +0.000 A 
ATOM      4  N   UNL     1       2.971   6.956  17.646  0.00  0.00    +0.000 NA
ATOM      5  C   UNL     1       3.779   6.314  17.413  0.00  0.00    +0.000 A 
ATOM      6  C   UNL     1       3.952   4.924  17.824  0.00  0.00    +0.000 A 
ATOM      7  C   UNL     1       4.995   4.022  17.688  0.00  0.00    +0.000 A 
ATOM      8  C   UNL     1       5.773   4.180  16.665  0.00  0.00    +0.000 A 
ATOM      9  C   UNL     1       5.743   5.649  16.139  0.00  0.00    +0.000 A 
ATOM     10  C   UNL     1       4.317   6.977  17.297  0.00  0.00    +0.000 A 
ENDROOT
BRANCH   6  11
ATOM     11  C   UNL     1       2.822   4.715  18.769  0.00  0.00    +0.000 A 
ATOM     12  C   UNL     1       1.667   4.091  18.495  0.00  0.00    +0.000 A 
ATOM     13  C   UNL     1       0.872   3.632  19.546  0.00  0.00    +0.000 A 
ATOM     14  C   UNL     1       1.318   3.684  20.854  0.00  0.00    +0.000 A 
ATOM     15  C   UNL     1       2.425   4.360  21.121  0.00  0.00    +0.000 A 
ATOM     16  N   UNL     1       3.014   5.019  20.083  0.00  0.00    +0.000 NA
ENDBRANCH   6  11
BRANCH   1  17
ATOM     17  N   UNL     1       0.784   9.579  19.969  0.00  0.00    +0.000 N 
ATOM     18  H   UNL     1       0.143   8.634  20.263  0.00  0.00    +0.000 HD
BRANCH  17  22
ATOM     19  C   UNL     1      -2.177  12.514  21.914  0.00  0.00    +0.000 A 
ATOM     20  C   UNL     1      -1.929  12.435  20.539  0.00  0.00    +0.000 A 
ATOM     21  C   UNL     1      -1.216  11.354  19.994  0.00  0.00    +0.000 A 
ATOM     22  C   UNL     1      -0.425  10.482  20.687  0.00  0.00    +0.000 A 
ATOM     23  C   UNL     1      -0.710  10.609  22.159  0.00  0.00    +0.000 A 
ATOM     24  C   UNL     1      -1.546  11.608  22.717  0.00  0.00    +0.000 A 
BRANCH  19  25
ATOM     25  O   UNL     1      -3.101  13.387  22.436  0.00  0.00    +0.000 OA
BRANCH  25  29
ATOM     26  C   UNL     1      -7.372  12.374  23.062  0.00  0.00    +0.000 A 
ATOM     27  C   UNL     1      -6.771  12.531  21.526  0.00  0.00    +0.000 A 
ATOM     28  C   UNL     1      -5.241  12.635  21.408  0.00  0.00    +0.000 A 
ATOM     29  C   UNL     1      -4.430  12.963  22.589  0.00  0.00    +0.000 A 
ATOM     30  C   UNL     1      -5.052  12.963  23.914  0.00  0.00    +0.000 A 
ATOM     31  C   UNL     1      -6.454  12.678  24.183  0.00  0.00    +0.000 A 
ENDBRANCH  25  29
ENDBRANCH  19  25
ENDBRANCH  17  22
ENDBRANCH   1  17
TORSDOF 5
ENDMDL
MODEL 2
REMARK VINA RESULT:      -9.1      0.704      1.180
REMARK  Name = 
REMARK  5 active torsions:
REMARK  status: ('A' for Active; 'I' for Inactive)
REMARK    1  A    between atoms: C_4  and  O_5
REMARK    2  A    between atoms: O_5  and  C_6
REMARK    3  A    between atoms: C_9  and  N_10
REMARK    4  A    between atoms: N_10  and  C_11
REMARK    5  A    between atoms: C_16  and  C_17
REMARK                            x       y       z     vdW  Elec       q    Type
REMARK                         _______ _______ _______ _____ _____    ______ ____
ROOT
ATOM      1  C   UNL     1       2.360   8.929  18.560  0.00  0.00    +0.000 A 
ATOM      2  C   UNL     1       1.860   8.810  17.964  0.00  0.00    +0.000 A 
ATOM      3  C   UNL     1       2.106   7.447  17.940  0.00  0.00    +0.000 A 
ATOM      4  N   UNL     1       3.103   6.904  17.532  0.00  0.00    +0.000 NA
ATOM      5  C   UNL     1       3.926   6.275  17.318  0.00  0.00    +0.000 A 
ATOM      6  C   UNL     1       4.102   4.882  17.716  0.00  0.00    +0.000 A 
ATOM      7  C   UNL     1       5.161   3.995  17.603  0.00  0.00    +0.000 A 
ATOM      8  C   UNL     1       5.970   4.176  16.609  0.00  0.00    +0.000 A 
ATOM      9  C   UNL     1       5.938   5.651  16.101  0.00  0.00    +0.000 A 
ATOM     10  C   UNL     1       4.459   6.946  17.227  0.00  0.00    +0.000 A 
ENDROOT
BRANCH   6  11
ATOM     11  C   UNL     1       2.945   4.647  18.620  0.00  0.00    +0.000 A 
ATOM     12  C   UNL     1       1.809   4.009  18.301  0.00  0.00    +0.000 A 
ATOM     13  C   UNL     1       0.986   3.527  19.320  0.00  0.00    +0.000 A 
ATOM     14  C   UNL     1       1.387   3.572  20.643  0.00  0.00    +0.000 A 
ATOM     15  C   UNL     1       2.475   4.260  20.953  0.00  0.00    +0.000 A 
ATOM     16  N   UNL     1       3.089   4.938  19.943  0.00  0.00    +0.000 NA
ENDBRANCH   6  11
BRANCH   1  17
ATOM     17  N   UNL     1       0.806   9.468  19.815  0.00  0.00    +0.000 N 
ATOM     18  H   UNL     1      -0.188   8.959  19.441  0.00  0.00    +0.000 HD
BRANCH  17  22
ATOM     19  C   UNL     1      -1.398  12.255  22.738  0.00  0.00    +0.000 A 
ATOM     20  C   UNL     1      -0.997  12.619  21.448  0.00  0.00    +0.000 A 
ATOM     21  C   UNL     1      -0.566  11.652  20.524  0.00  0.00    +0.000 A 
ATOM     22  C   UNL     1      -0.170  10.378  20.820  0.00  0.00    +0.000 A 
ATOM     23  C   UNL     1      -0.606  10.031  22.218  0.00  0.00    +0.000 A 
ATOM     24  C   UNL     1      -1.179  10.962  23.120  0.00  0.00    +0.000 A 
BRANCH  19  25
ATOM     25  O   UNL     1      -2.088  13.118  23.555  0.00  0.00    +0.000 OA
BRANCH  25  29
ATOM     26  C   UNL     1      -6.496  12.907  23.138  0.00  0.00    +0.000 A 
ATOM     27  C   UNL     1      -5.760  12.305  24.495  0.00  0.00    +0.000 A 
ATOM     28  C   UNL     1      -4.269  12.645  24.659  0.00  0.00    +0.000 A 
ATOM     29  C   UNL     1      -3.490  13.126  23.511  0.00  0.00    +0.000 A 
ATOM     30  C   UNL     1      -4.181  13.499  22.275  0.00  0.00    +0.000 A 
ATOM     31  C   UNL     1      -5.618  13.417  22.060  0.00  0.00    +0.000 A 
ENDBRANCH  25  29
ENDBRANCH  19  25
ENDBRANCH  17  22
ENDBRANCH   1  17
TORSDOF 5
ENDMDL
MODEL 3
REMARK VINA RESULT:      -9.0      0.999      1.318
REMARK  Name = 
REMARK  5 active torsions:
REMARK  status: ('A' for Active; 'I' for Inactive)
REMARK    1  A    between atoms: C_4  and  O_5
REMARK    2  A    between atoms: O_5  and  C_6
REMARK    3  A    between atoms: C_9  and  N_10
REMARK    4  A    between atoms: N_10  and  C_11
REMARK    5  A    between atoms: C_16  and  C_17
REMARK                            x       y       z     vdW  Elec       q    Type
REMARK                         _______ _______ _______ _____ _____    ______ ____
ROOT
ATOM      1  C   UNL     1       2.577   8.587  18.405  0.00  0.00    +0.000 A 
ATOM      2  C   UNL     1       1.993   8.374  17.924  0.00  0.00    +0.000 A 
ATOM      3  C   UNL     1       2.383   7.044  17.929  0.00  0.00    +0.000 A 
ATOM      4  N   UNL     1       3.342   6.575  17.369  0.00  0.00    +0.000 NA
ATOM      5  C   UNL     1       4.177   6.017  17.036  0.00  0.00    +0.000 A 
ATOM      6  C   UNL     1       4.580   4.683  17.470  0.00  0.00    +0.000 A 
ATOM      7  C   UNL     1       5.693   3.901  17.205  0.00  0.00    +0.000 A 
ATOM      8  C   UNL     1       6.280   4.086  16.066  0.00  0.00    +0.000 A 
ATOM      9  C   UNL     1       5.988   5.507  15.492  0.00  0.00    +0.000 A 
ATOM     10  C   UNL     1       4.605   6.729  16.808  0.00  0.00    +0.000 A 
ENDROOT
BRANCH   6  11
ATOM     11  C   UNL     1       3.644   4.402  18.591  0.00  0.00    +0.000 A 
ATOM     12  C   UNL     1       3.681   4.957  19.811  0.00  0.00    +0.000 A 
ATOM     13  C   UNL     1       2.548   4.902  20.623  0.00  0.00    +0.000 A 
ATOM     14  C   UNL     1       1.348   4.410  20.142  0.00  0.00    +0.000 A 
ATOM     15  C   UNL     1       1.338   3.805  18.964  0.00  0.00    +0.000 A 
ATOM     16  N   UNL     1       2.537   3.650  18.335  0.00  0.00    +0.000 NA
ENDBRANCH   6  11
BRANCH   1  17
ATOM     17  N   UNL     1       1.232   9.062  19.903  0.00  0.00    +0.000 N 
ATOM     18  H   UNL     1       0.527   8.137  20.098  0.00  0.00    +0.000 HD
BRANCH  17  22
ATOM     19  C   UNL     1      -1.230  11.740  22.719  0.00  0.00    +0.000 A 
ATOM     20  C   UNL     1      -0.746  12.141  21.470  0.00  0.00    +0.000 A 
ATOM     21  C   UNL     1      -0.231  11.203  20.559  0.00  0.00    +0.000 A 
ATOM     22  C   UNL     1       0.169   9.930  20.855  0.00  0.00    +0.000 A 
ATOM     23  C   UNL     1      -0.358   9.544  22.211  0.00  0.00    +0.000 A 
ATOM     24  C   UNL     1      -1.013  10.444  23.088  0.00  0.00    +0.000 A 
BRANCH  19  25
ATOM     25  O   UNL     1      -1.993  12.572  23.503  0.00  0.00    +0.000 OA
BRANCH  25  29
ATOM     26  C   UNL     1      -6.413  12.812  23.268  0.00  0.00    +0.000 A 
ATOM     27  C   UNL     1      -5.490  13.129  21.928  0.00  0.00    +0.000 A 
ATOM     28  C   UNL     1      -3.997  12.780  22.041  0.00  0.00    +0.000 A 
ATOM     29  C   UNL     1      -3.388  12.556  23.359  0.00  0.00    +0.000 A 
ATOM     30  C   UNL     1      -4.246  12.440  24.540  0.00  0.00    +0.000 A 
ATOM     31  C   UNL     1      -5.697  12.548  24.536  0.00  0.00    +0.000 A 
ENDBRANCH  25  29
ENDBRANCH  19  25
ENDBRANCH  17  22
ENDBRANCH   1  17
TORSDOF 5
ENDMDL
MODEL 4
REMARK VINA RESULT:      -8.9      0.705      1.072
REMARK  Name = 
REMARK  5 active torsions:
REMARK  status: ('A' for Active; 'I' for Inactive)
REMARK    1  A    between atoms: C_4  and  O_5
REMARK    2  A    between atoms: O_5  and  C_6
REMARK    3  A    between atoms: C_9  and  N_10
REMARK    4  A    between atoms: N_10  and  C_11
REMARK    5  A    between atoms: C_16  and  C_17
REMARK                            x       y       z     vdW  Elec       q    Type
REMARK                         _______ _______ _______ _____ _____    ______ ____
ROOT
ATOM      1  C   UNL     1       2.555   8.878  18.612  0.00  0.00    +0.000 A 
ATOM      2  C   UNL     1       1.994   8.790  18.068  0.00  0.00    +0.000 A 
ATOM      3  C   UNL     1       2.134   7.412  18.048  0.00  0.00    +0.000 A 
ATOM      4  N   UNL     1       3.044   6.790  17.560  0.00  0.00    +0.000 NA
ATOM      5  C   UNL     1       3.794   6.097  17.282  0.00  0.00    +0.000 A 
ATOM      6  C   UNL     1       3.903   4.700  17.688  0.00  0.00    +0.000 A 
ATOM      7  C   UNL     1       4.877   3.733  17.494  0.00  0.00    +0.000 A 
ATOM      8  C   UNL     1       5.600   3.840  16.426  0.00  0.00    +0.000 A 
ATOM      9  C   UNL     1       5.630   5.307  15.895  0.00  0.00    +0.000 A 
ATOM     10  C   UNL     1       4.365   6.725  17.129  0.00  0.00    +0.000 A 
ENDROOT
BRANCH   6  11
ATOM     11  C   UNL     1       2.822   4.564  18.701  0.00  0.00    +0.000 A 
ATOM     12  C   UNL     1       1.607   4.036  18.495  0.00  0.00    +0.000 A 
ATOM     13  C   UNL     1       0.846   3.624  19.590  0.00  0.00    +0.000 A 
ATOM     14  C   UNL     1       1.375   3.621  20.867  0.00  0.00    +0.000 A 
ATOM     15  C   UNL     1       2.547   4.205  21.070  0.00  0.00    +0.000 A 
ATOM     16  N   UNL     1       3.120   4.832  20.003  0.00  0.00    +0.000 NA
ENDBRANCH   6  11
BRANCH   1  17
ATOM     17  N   UNL     1       1.172   9.549  19.996  0.00  0.00    +0.000 N 
ATOM     18  H   UNL     1       0.126   9.058  19.768  0.00  0.00    +0.000 HD
BRANCH  17  22
ATOM     19  C   UNL     1      -1.589  12.065  22.683  0.00  0.00    +0.000 A 
ATOM     20  C   UNL     1      -1.222  10.741  22.946  0.00  0.00    +0.000 A 
ATOM     21  C   UNL     1      -0.180  10.124  22.231  0.00  0.00    +0.000 A 
ATOM     22  C   UNL     1       0.345  10.553  21.045  0.00  0.00    +0.000 A 
ATOM     23  C   UNL     1      -0.085  11.973  20.793  0.00  0.00    +0.000 A 
ATOM     24  C   UNL     1      -1.029  12.665  21.592  0.00  0.00    +0.000 A 
BRANCH  19  25
ATOM     25  O   UNL     1      -2.388  12.781  23.541  0.00  0.00    +0.000 OA
BRANCH  25  29
ATOM     26  C   UNL     1      -6.819  12.723  23.406  0.00  0.00    +0.000 A 
ATOM     27  C   UNL     1      -5.951  13.155  22.061  0.00  0.00    +0.000 A 
ATOM     28  C   UNL     1      -4.435  12.906  22.129  0.00  0.00    +0.000 A 
ATOM     29  C   UNL     1      -3.782  12.674  23.425  0.00  0.00    +0.000 A 
ATOM     30  C   UNL     1      -4.602  12.452  24.617  0.00  0.00    +0.000 A 
ATOM     31  C   UNL     1      -6.057  12.459  24.648  0.00  0.00    +0.000 A 
ENDBRANCH  25  29
ENDBRANCH  19  25
ENDBRANCH  17  22
ENDBRANCH   1  17
TORSDOF 5
ENDMDL
MODEL 5
REMARK VINA RESULT:      -8.9      6.779     10.483
REMARK  Name = 
REMARK  5 active torsions:
REMARK  status: ('A' for Active; 'I' for Inactive)
REMARK    1  A    between atoms: C_4  and  O_5
REMARK    2  A    between atoms: O_5  and  C_6
REMARK    3  A    between atoms: C_9  and  N_10
REMARK    4  A    between atoms: N_10  and  C_11
REMARK    5  A    between atoms: C_16  and  C_17
REMARK                            x       y       z     vdW  Elec       q    Type
REMARK                         _______ _______ _______ _____ _____    ______ ____
ROOT
ATOM      1  C   UNL     1       7.200   6.908  17.791  0.00  0.00    +0.000 A 
ATOM      2  C   UNL     1       7.059   7.080  17.037  0.00  0.00    +0.000 A 
ATOM      3  C   UNL     1       5.694   6.887  17.178  0.00  0.00    +0.000 A 
ATOM      4  N   UNL     1       5.127   5.830  17.296  0.00  0.00    +0.000 NA
ATOM      5  C   UNL     1       4.483   5.017  17.508  0.00  0.00    +0.000 A 
ATOM      6  C   UNL     1       3.109   5.080  17.994  0.00  0.00    +0.000 A 
ATOM      7  C   UNL     1       2.210   4.112  18.414  0.00  0.00    +0.000 A 
ATOM      8  C   UNL     1       2.341   2.932  17.899  0.00  0.00    +0.000 A 
ATOM      9  C   UNL     1       3.792   2.688  17.380  0.00  0.00    +0.000 A 
ATOM     10  C   UNL     1       5.146   4.485  17.649  0.00  0.00    +0.000 A 
ENDROOT
BRANCH   6  11
ATOM     11  C   UNL     1       2.921   6.530  18.271  0.00  0.00    +0.000 A 
ATOM     12  C   UNL     1       2.749   7.494  17.356  0.00  0.00    +0.000 A 
ATOM     13  C   UNL     1       2.212   8.722  17.747  0.00  0.00    +0.000 A 
ATOM     14  C   UNL     1       1.726   8.911  19.028  0.00  0.00    +0.000 A 
ATOM     15  C   UNL     1       1.960   7.980  19.940  0.00  0.00    +0.000 A 
ATOM     16  N   UNL     1       2.730   6.921  19.562  0.00  0.00    +0.000 NA
ENDBRANCH   6  11
BRANCH   1  17
ATOM     17  N   UNL     1       7.806   8.850  18.168  0.00  0.00    +0.000 N 
ATOM     18  H   UNL     1       7.321   9.569  17.370  0.00  0.00    +0.000 HD
BRANCH  17  22
ATOM     19  C   UNL     1      10.877  12.140  19.124  0.00  0.00    +0.000 A 
ATOM     20  C   UNL     1      10.315  11.925  17.861  0.00  0.00    +0.000 A 
ATOM     21  C   UNL     1       9.202  11.082  17.698  0.00  0.00    +0.000 A 
ATOM     22  C   UNL     1       8.759  10.152  18.597  0.00  0.00    +0.000 A 
ATOM     23  C   UNL     1       9.398  10.408  19.935  0.00  0.00    +0.000 A 
ATOM     24  C   UNL     1      10.425  11.361  20.150  0.00  0.00    +0.000 A 
BRANCH  19  25
ATOM     25  O   UNL     1      11.763  13.162  19.360  0.00  0.00    +0.000 OA
BRANCH  25  29
ATOM     26  C   UNL     1      11.145  17.271  17.813  0.00  0.00    +0.000 A 
ATOM     27  C   UNL     1      12.333  16.310  17.171  0.00  0.00    +0.000 A 
ATOM     28  C   UNL     1      12.307  14.832  17.595  0.00  0.00    +0.000 A 
ATOM     29  C   UNL     1      11.533  14.415  18.772  0.00  0.00    +0.000 A 
ATOM     30  C   UNL     1      10.608  15.360  19.399  0.00  0.00    +0.000 A 
ATOM     31  C   UNL     1      10.388  16.732  18.965  0.00  0.00    +0.000 A 
ENDBRANCH  25  29
ENDBRANCH  19  25
ENDBRANCH  17  22
ENDBRANCH   1  17
TORSDOF 5
ENDMDL
MODEL 6
REMARK VINA RESULT:      -8.8      6.557     10.272
REMARK  Name = 
REMARK  5 active torsions:
REMARK  status: ('A' for Active; 'I' for Inactive)
REMARK    1  A    between atoms: C_4  and  O_5
REMARK    2  A    between atoms: O_5  and  C_6
REMARK    3  A    between atoms: C_9  and  N_10
REMARK    4  A    between atoms: N_10  and  C_11
REMARK    5  A    between atoms: C_16  and  C_17
REMARK                            x       y       z     vdW  Elec       q    Type
REMARK                         _______ _______ _______ _____ _____    ______ ____
ROOT
ATOM      1  C   UNL     1       7.231   6.700  17.908  0.00  0.00    +0.000 A 
ATOM      2  C   UNL     1       7.123   6.873  17.149  0.00  0.00    +0.000 A 
ATOM      3  C   UNL     1       5.747   6.741  17.245  0.00  0.00    +0.000 A 
ATOM      4  N   UNL     1       5.130   5.710  17.348  0.00  0.00    +0.000 NA
ATOM      5  C   UNL     1       4.445   4.928  17.543  0.00  0.00    +0.000 A 
ATOM      6  C   UNL     1       3.059   5.054  17.980  0.00  0.00    +0.000 A 
ATOM      7  C   UNL     1       2.105   4.130  18.375  0.00  0.00    +0.000 A 
ATOM      8  C   UNL     1       2.201   2.941  17.871  0.00  0.00    +0.000 A 
ATOM      9  C   UNL     1       3.657   2.630  17.403  0.00  0.00    +0.000 A 
ATOM     10  C   UNL     1       5.078   4.368  17.709  0.00  0.00    +0.000 A 
ENDROOT
BRANCH   6  11
ATOM     11  C   UNL     1       2.926   6.513  18.243  0.00  0.00    +0.000 A 
ATOM     12  C   UNL     1       2.823   7.477  17.318  0.00  0.00    +0.000 A 
ATOM     13  C   UNL     1       2.328   8.729  17.685  0.00  0.00    +0.000 A 
ATOM     14  C   UNL     1       1.812   8.949  18.949  0.00  0.00    +0.000 A 
ATOM     15  C   UNL     1       1.978   8.015  19.874  0.00  0.00    +0.000 A 
ATOM     16  N   UNL     1       2.712   6.921  19.525  0.00  0.00    +0.000 NA
ENDBRANCH   6  11
BRANCH   1  17
ATOM     17  N   UNL     1       7.908   8.616  18.296  0.00  0.00    +0.000 N 
ATOM     18  H   UNL     1       7.334   9.377  17.603  0.00  0.00    +0.000 HD
BRANCH  17  22
ATOM     19  C   UNL     1      10.240  12.410  19.453  0.00  0.00    +0.000 A 
ATOM     20  C   UNL     1       9.764  11.464  20.368  0.00  0.00    +0.000 A 
ATOM     21  C   UNL     1       9.294  10.212  19.934  0.00  0.00    +0.000 A 
ATOM     22  C   UNL     1       8.928   9.888  18.658  0.00  0.00    +0.000 A 
ATOM     23  C   UNL     1       9.443  10.937  17.710  0.00  0.00    +0.000 A 
ATOM     24  C   UNL     1      10.056  12.145  18.126  0.00  0.00    +0.000 A 
BRANCH  19  25
ATOM     25  O   UNL     1      10.963  13.507  19.853  0.00  0.00    +0.000 OA
BRANCH  25  29
ATOM     26  C   UNL     1      10.766  17.017  17.153  0.00  0.00    +0.000 A 
ATOM     27  C   UNL     1       9.450  16.599  18.069  0.00  0.00    +0.000 A 
ATOM     28  C   UNL     1       9.694  15.530  19.148  0.00  0.00    +0.000 A 
ATOM     29  C   UNL     1      10.894  14.684  19.093  0.00  0.00    +0.000 A 
ATOM     30  C   UNL     1      11.964  15.010  18.149  0.00  0.00    +0.000 A 
ATOM     31  C   UNL     1      11.945  16.123  17.211  0.00  0.00    +0.000 A 
ENDBRANCH  25  29
ENDBRANCH  19  25
ENDBRANCH  17  22
ENDBRANCH   1  17
TORSDOF 5
ENDMDL
MODEL 7
REMARK VINA RESULT:      -8.8      3.282     10.847
REMARK  Name = 
REMARK  5 active torsions:
REMARK  status: ('A' for Active; 'I' for Inactive)
REMARK    1  A    between atoms: C_4  and  O_5
REMARK    2  A    between atoms: O_5  and  C_6
REMARK    3  A    between atoms: C_9  and  N_10
REMARK    4  A    between atoms: N_10  and  C_11
REMARK    5  A    between atoms: C_16  and  C_17
REMARK                            x       y       z     vdW  Elec       q    Type
REMARK                         _______ _______ _______ _____ _____    ______ ____
ROOT
ATOM      1  C   UNL     1       0.090   9.077  22.382  0.00  0.00    +0.000 A 
ATOM      2  C   UNL     1      -0.438   8.946  21.815  0.00  0.00    +0.000 A 
ATOM      3  C   UNL     1      -0.408  10.263  21.387  0.00  0.00    +0.000 A 
ATOM      4  N   UNL     1      -0.890  11.213  21.952  0.00  0.00    +0.000 NA
ATOM      5  C   UNL     1      -1.156  12.157  22.350  0.00  0.00    +0.000 A 
ATOM      6  C   UNL     1      -0.697  13.467  21.901  0.00  0.00    +0.000 A 
ATOM      7  C   UNL     1      -0.873  14.750  22.396  0.00  0.00    +0.000 A 
ATOM      8  C   UNL     1      -1.959  14.974  23.063  0.00  0.00    +0.000 A 
ATOM      9  C   UNL     1      -2.548  13.659  23.664  0.00  0.00    +0.000 A 
ATOM     10  C   UNL     1      -1.344  11.818  23.119  0.00  0.00    +0.000 A 
ENDROOT
BRANCH   6  11
ATOM     11  C   UNL     1       0.342  13.127  20.892  0.00  0.00    +0.000 A 
ATOM     12  C   UNL     1       0.153  13.014  19.569  0.00  0.00    +0.000 A 
ATOM     13  C   UNL     1       1.254  13.071  18.713  0.00  0.00    +0.000 A 
ATOM     14  C   UNL     1       2.514  13.381  19.192  0.00  0.00    +0.000 A 
ATOM     15  C   UNL     1       2.703  13.424  20.502  0.00  0.00    +0.000 A 
ATOM     16  N   UNL     1       1.643  13.091  21.292  0.00  0.00    +0.000 NA
ENDBRANCH   6  11
BRANCH   1  17
ATOM     17  N   UNL     1       1.474   7.867  21.435  0.00  0.00    +0.000 N 
ATOM     18  H   UNL     1       2.533   8.383  21.476  0.00  0.00    +0.000 HD
BRANCH  17  22
ATOM     19  C   UNL     1       2.843   4.934  18.164  0.00  0.00    +0.000 A 
ATOM     20  C   UNL     1       2.720   6.316  17.986  0.00  0.00    +0.000 A 
ATOM     21  C   UNL     1       2.551   7.175  19.086  0.00  0.00    +0.000 A 
ATOM     22  C   UNL     1       2.160   6.805  20.342  0.00  0.00    +0.000 A 
ATOM     23  C   UNL     1       2.291   5.313  20.487  0.00  0.00    +0.000 A 
ATOM     24  C   UNL     1       2.607   4.441  19.415  0.00  0.00    +0.000 A 
BRANCH  19  25
ATOM     25  O   UNL     1       3.293   4.110  17.161  0.00  0.00    +0.000 OA
BRANCH  25  29
ATOM     26  C   UNL     1       7.378   4.832  15.600  0.00  0.00    +0.000 A 
ATOM     27  C   UNL     1       7.098   4.847  17.233  0.00  0.00    +0.000 A 
ATOM     28  C   UNL     1       5.716   4.344  17.683  0.00  0.00    +0.000 A 
ATOM     29  C   UNL     1       4.616   4.238  16.715  0.00  0.00    +0.000 A 
ATOM     30  C   UNL     1       4.896   4.390  15.286  0.00  0.00    +0.000 A 
ATOM     31  C   UNL     1       6.205   4.666  14.712  0.00  0.00    +0.000 A 
ENDBRANCH  25  29
ENDBRANCH  19  25
ENDBRANCH  17  22
ENDBRANCH   1  17
TORSDOF 5
ENDMDL
MODEL 8
REMARK VINA RESULT:      -8.8      7.682     11.834
REMARK  Name = 
REMARK  5 active torsions:
REMARK  status: ('A' for Active; 'I' for Inactive)
REMARK    1  A    between atoms: C_4  and  O_5
REMARK    2  A    between atoms: O_5  and  C_6
REMARK    3  A    between atoms: C_9  and  N_10
REMARK    4  A    between atoms: N_10  and  C_11
REMARK    5  A    between atoms: C_16  and  C_17
REMARK                            x       y       z     vdW  Elec       q    Type
REMARK                         _______ _______ _______ _____ _____    ______ ____
ROOT
ATOM      1  C   UNL     1      10.283  11.280  17.848  0.00  0.00    +0.000 A 
ATOM      2  C   UNL     1      10.536  11.304  18.592  0.00  0.00    +0.000 A 
ATOM      3  C   UNL     1      10.040  12.582  18.792  0.00  0.00    +0.000 A 
ATOM      4  N   UNL     1      10.496  13.606  18.347  0.00  0.00    +0.000 NA
ATOM      5  C   UNL     1      10.692  14.574  17.968  0.00  0.00    +0.000 A 
ATOM      6  C   UNL     1       9.812  15.738  18.014  0.00  0.00    +0.000 A 
ATOM      7  C   UNL     1       9.897  17.008  17.466  0.00  0.00    +0.000 A 
ATOM      8  C   UNL     1      11.086  17.481  17.269  0.00  0.00    +0.000 A 
ATOM      9  C   UNL     1      12.144  16.342  17.139  0.00  0.00    +0.000 A 
ATOM     10  C   UNL     1      11.258  14.272  17.393  0.00  0.00    +0.000 A 
ENDROOT
BRANCH   6  11
ATOM     11  C   UNL     1       8.545  15.174  18.554  0.00  0.00    +0.000 A 
ATOM     12  C   UNL     1       8.152  15.198  19.836  0.00  0.00    +0.000 A 
ATOM     13  C   UNL     1       6.807  14.988  20.143  0.00  0.00    +0.000 A 
ATOM     14  C   UNL     1       5.854  14.896  19.145  0.00  0.00    +0.000 A 
ATOM     15  C   UNL     1       6.258  14.806  17.887  0.00  0.00    +0.000 A 
ATOM     16  N   UNL     1       7.602  14.744  17.671  0.00  0.00    +0.000 NA
ENDBRANCH   6  11
BRANCH   1  17
ATOM     17  N   UNL     1       8.929   9.785  18.309  0.00  0.00    +0.000 N 
ATOM     18  H   UNL     1       8.981   9.557  19.465  0.00  0.00    +0.000 HD
BRANCH  17  22
ATOM     19  C   UNL     1       6.818   5.749  17.658  0.00  0.00    +0.000 A 
ATOM     20  C   UNL     1       7.855   5.961  18.573  0.00  0.00    +0.000 A 
ATOM     21  C   UNL     1       8.273   7.261  18.904  0.00  0.00    +0.000 A 
ATOM     22  C   UNL     1       8.007   8.397  18.192  0.00  0.00    +0.000 A 
ATOM     23  C   UNL     1       6.899   8.123  17.211  0.00  0.00    +0.000 A 
ATOM     24  C   UNL     1       6.361   6.835  16.968  0.00  0.00    +0.000 A 
BRANCH  19  25
ATOM     25  O   UNL     1       6.198   4.529  17.532  0.00  0.00    +0.000 OA
BRANCH  25  29
ATOM     26  C   UNL     1       1.993   3.768  18.711  0.00  0.00    +0.000 A 
ATOM     27  C   UNL     1       3.079   4.340  19.825  0.00  0.00    +0.000 A 
ATOM     28  C   UNL     1       4.434   4.806  19.267  0.00  0.00    +0.000 A 
ATOM     29  C   UNL     1       4.856   4.403  17.919  0.00  0.00    +0.000 A 
ATOM     30  C   UNL     1       3.894   3.755  17.025  0.00  0.00    +0.000 A 
ATOM     31  C   UNL     1       2.513   3.442  17.364  0.00  0.00    +0.000 A 
ENDBRANCH  25  29
ENDBRANCH  19  25
ENDBRANCH  17  22
ENDBRANCH   1  17
TORSDOF 5
ENDMDL
MODEL 9
REMARK VINA RESULT:      -8.7      1.036      1.611
REMARK  Name = 
REMARK  5 active torsions:
REMARK  status: ('A' for Active; 'I' for Inactive)
REMARK    1  A    between atoms: C_4  and  O_5
REMARK    2  A    between atoms: O_5  and  C_6
REMARK    3  A    between atoms: C_9  and  N_10
REMARK    4  A    between atoms: N_10  and  C_11
REMARK    5  A    between atoms: C_16  and  C_17
REMARK                            x       y       z     vdW  Elec       q    Type
REMARK                         _______ _______ _______ _____ _____    ______ ____
ROOT
ATOM      1  C   UNL     1       2.325   9.052  18.549  0.00  0.00    +0.000 A 
ATOM      2  C   UNL     1       1.804   8.924  17.975  0.00  0.00    +0.000 A 
ATOM      3  C   UNL     1       2.026   7.556  17.986  0.00  0.00    +0.000 A 
ATOM      4  N   UNL     1       2.999   6.984  17.563  0.00  0.00    +0.000 NA
ATOM      5  C   UNL     1       3.804   6.334  17.341  0.00  0.00    +0.000 A 
ATOM      6  C   UNL     1       3.971   4.951  17.777  0.00  0.00    +0.000 A 
ATOM      7  C   UNL     1       5.011   4.042  17.657  0.00  0.00    +0.000 A 
ATOM      8  C   UNL     1       5.788   4.178  16.631  0.00  0.00    +0.000 A 
ATOM      9  C   UNL     1       5.763   5.637  16.077  0.00  0.00    +0.000 A 
ATOM     10  C   UNL     1       4.345   6.992  17.211  0.00  0.00    +0.000 A 
ENDROOT
BRANCH   6  11
ATOM     11  C   UNL     1       2.841   4.764  18.727  0.00  0.00    +0.000 A 
ATOM     12  C   UNL     1       1.685   4.138  18.467  0.00  0.00    +0.000 A 
ATOM     13  C   UNL     1       0.889   3.703  19.528  0.00  0.00    +0.000 A 
ATOM     14  C   UNL     1       1.336   3.781  20.834  0.00  0.00    +0.000 A 
ATOM     15  C   UNL     1       2.445   4.459  21.086  0.00  0.00    +0.000 A 
ATOM     16  N   UNL     1       3.036   5.094  20.034  0.00  0.00    +0.000 NA
ENDBRANCH   6  11
BRANCH   1  17
ATOM     17  N   UNL     1       0.825   9.658  19.838  0.00  0.00    +0.000 N 
ATOM     18  H   UNL     1      -0.221   9.364  19.381  0.00  0.00    +0.000 HD
BRANCH  17  22
ATOM     19  C   UNL     1      -1.970  11.762  22.826  0.00  0.00    +0.000 A 
ATOM     20  C   UNL     1      -1.168  10.659  23.136  0.00  0.00    +0.000 A 
ATOM     21  C   UNL     1      -0.156  10.232  22.259  0.00  0.00    +0.000 A 
ATOM     22  C   UNL     1      -0.039  10.569  20.940  0.00  0.00    +0.000 A 
ATOM     23  C   UNL     1      -0.928  11.747  20.645  0.00  0.00    +0.000 A 
ATOM     24  C   UNL     1      -1.856  12.286  21.571  0.00  0.00    +0.000 A 
BRANCH  19  25
ATOM     25  O   UNL     1      -2.759  12.374  23.770  0.00  0.00    +0.000 OA
BRANCH  25  29
ATOM     26  C   UNL     1      -5.926  15.290  22.710  0.00  0.00    +0.000 A 
ATOM     27  C   UNL     1      -4.552  15.799  23.484  0.00  0.00    +0.000 A 
ATOM     28  C   UNL     1      -3.415  14.770  23.584  0.00  0.00    +0.000 A 
ATOM     29  C   UNL     1      -3.687  13.343  23.359  0.00  0.00    +0.000 A 
ATOM     30  C   UNL     1      -4.984  12.933  22.817  0.00  0.00    +0.000 A 
ATOM     31  C   UNL     1      -6.078  13.834  22.485  0.00  0.00    +0.000 A 
ENDBRANCH  25  29
ENDBRANCH  19  25
ENDBRANCH  17  22
ENDBRANCH   1  17
TORSDOF 5
ENDMDL
