MODEL 1
REMARK VINA RESULT:      -7.7      0.000      0.000
REMARK  Name = 
REMARK  7 active torsions:
REMARK  status: ('A' for Active; 'I' for Inactive)
REMARK    1  A    between atoms: C_1  and  C_2
REMARK    2  A    between atoms: C_6  and  N_7
REMARK    3  A    between atoms: N_10  and  C_11
REMARK    4  A    between atoms: C_11  and  C_12
REMARK    5  A    between atoms: C_12  and  C_13
REMARK    6  A    between atoms: C_13  and  C_14
REMARK    7  A    between atoms: C_14  and  C_15
REMARK                            x       y       z     vdW  Elec       q    Type
REMARK                         _______ _______ _______ _____ _____    ______ ____
ROOT
ATOM      1  N   UNL     1       5.178   4.340  18.609  0.00  0.00    +0.000 N 
ATOM      2  C   UNL     1       5.256   5.627  18.135  0.00  0.00    +0.000 C 
ATOM      3  O   UNL     1       4.309   6.332  17.786  0.00  0.00    +0.000 OA
ATOM      4  N   UNL     1       6.528   6.121  18.039  0.00  0.00    +0.000 N 
ATOM      5  H   UNL     1       6.034   3.879  18.875  0.00  0.00    +0.000 HD
ATOM      6  H   UNL     1       7.315   5.611  18.409  0.00  0.00    +0.000 HD
ENDROOT
BRANCH   1  12
ATOM      7  C   UNL     1       1.432   2.862  21.494  0.00  0.00    +0.000 C 
ATOM      8  C   UNL     1       2.121   2.863  20.160  0.00  0.00    +0.000 A 
ATOM      9  C   UNL     1       1.590   2.132  19.088  0.00  0.00    +0.000 A 
ATOM     10  C   UNL     1       2.241   2.136  17.862  0.00  0.00    +0.000 A 
ATOM     11  C   UNL     1       3.419   2.859  17.705  0.00  0.00    +0.000 A 
ATOM     12  C   UNL     1       3.970   3.600  18.754  0.00  0.00    +0.000 A 
ATOM     13  C   UNL     1       3.314   3.590  19.986  0.00  0.00    +0.000 A 
ENDBRANCH   1  12
BRANCH   4  14
ATOM     14  C   UNL     1       6.716   7.475  17.540  0.00  0.00    +0.000 C 
BRANCH  14  15
ATOM     15  C   UNL     1       8.173   7.946  17.609  0.00  0.00    +0.000 C 
BRANCH  15  16
ATOM     16  C   UNL     1       8.243   9.443  17.925  0.00  0.00    +0.000 C 
BRANCH  16  17
ATOM     17  C   UNL     1       9.043   9.743  19.193  0.00  0.00    +0.000 C 
BRANCH  17  18
ATOM     18  C   UNL     1       9.983  10.917  19.018  0.00  0.00    +0.000 A 
ATOM     19  C   UNL     1      10.543  11.536  20.145  0.00  0.00    +0.000 A 
ATOM     20  C   UNL     1      11.421  12.615  20.005  0.00  0.00    +0.000 A 
ATOM     21  C   UNL     1      11.747  13.090  18.737  0.00  0.00    +0.000 A 
ATOM     22  C   UNL     1      11.192  12.488  17.609  0.00  0.00    +0.000 A 
ATOM     23  C   UNL     1      10.312  11.407  17.748  0.00  0.00    +0.000 A 
ENDBRANCH  17  18
ENDBRANCH  16  17
ENDBRANCH  15  16
ENDBRANCH  14  15
ENDBRANCH   4  14
TORSDOF 6
ENDMDL
MODEL 2
REMARK VINA RESULT:      -7.6      5.186      7.670
REMARK  Name = 
REMARK  7 active torsions:
REMARK  status: ('A' for Active; 'I' for Inactive)
REMARK    1  A    between atoms: C_1  and  C_2
REMARK    2  A    between atoms: C_6  and  N_7
REMARK    3  A    between atoms: N_10  and  C_11
REMARK    4  A    between atoms: C_11  and  C_12
REMARK    5  A    between atoms: C_12  and  C_13
REMARK    6  A    between atoms: C_13  and  C_14
REMARK    7  A    between atoms: C_14  and  C_15
REMARK                            x       y       z     vdW  Elec       q    Type
REMARK                         _______ _______ _______ _____ _____    ______ ____
ROOT
ATOM      1  N   UNL     1       4.675   3.193  17.601  0.00  0.00    +0.000 N 
ATOM      2  C   UNL     1       3.362   2.977  17.942  0.00  0.00    +0.000 C 
ATOM      3  O   UNL     1       2.376   3.438  17.367  0.00  0.00    +0.000 OA
ATOM      4  N   UNL     1       3.184   2.183  19.042  0.00  0.00    +0.000 N 
ATOM      5  H   UNL     1       5.389   2.740  18.150  0.00  0.00    +0.000 HD
ATOM      6  H   UNL     1       3.961   1.709  19.474  0.00  0.00    +0.000 HD
ENDROOT
BRANCH   1  12
ATOM      7  C   UNL     1       6.347   3.564  12.953  0.00  0.00    +0.000 C 
ATOM      8  C   UNL     1       5.933   4.218  14.240  0.00  0.00    +0.000 A 
ATOM      9  C   UNL     1       5.994   5.611  14.377  0.00  0.00    +0.000 A 
ATOM     10  C   UNL     1       5.615   6.202  15.575  0.00  0.00    +0.000 A 
ATOM     11  C   UNL     1       5.183   5.410  16.633  0.00  0.00    +0.000 A 
ATOM     12  C   UNL     1       5.109   4.018  16.525  0.00  0.00    +0.000 A 
ATOM     13  C   UNL     1       5.495   3.428  15.320  0.00  0.00    +0.000 A 
ENDBRANCH   1  12
BRANCH   4  14
ATOM     14  C   UNL     1       1.828   1.900  19.487  0.00  0.00    +0.000 C 
BRANCH  14  15
ATOM     15  C   UNL     1       1.441   2.658  20.763  0.00  0.00    +0.000 C 
BRANCH  15  16
ATOM     16  C   UNL     1       1.058   4.104  20.437  0.00  0.00    +0.000 C 
BRANCH  16  17
ATOM     17  C   UNL     1       2.134   5.109  20.850  0.00  0.00    +0.000 C 
BRANCH  17  18
ATOM     18  C   UNL     1       2.028   6.413  20.088  0.00  0.00    +0.000 A 
ATOM     19  C   UNL     1       1.454   7.536  20.701  0.00  0.00    +0.000 A 
ATOM     20  C   UNL     1       1.357   8.751  20.018  0.00  0.00    +0.000 A 
ATOM     21  C   UNL     1       1.828   8.859  18.712  0.00  0.00    +0.000 A 
ATOM     22  C   UNL     1       2.396   7.749  18.088  0.00  0.00    +0.000 A 
ATOM     23  C   UNL     1       2.494   6.530  18.771  0.00  0.00    +0.000 A 
ENDBRANCH  17  18
ENDBRANCH  16  17
ENDBRANCH  15  16
ENDBRANCH  14  15
ENDBRANCH   4  14
TORSDOF 6
ENDMDL
MODEL 3
REMARK VINA RESULT:      -7.5      2.032      9.597
REMARK  Name = 
REMARK  7 active torsions:
REMARK  status: ('A' for Active; 'I' for Inactive)
REMARK    1  A    between atoms: C_1  and  C_2
REMARK    2  A    between atoms: C_6  and  N_7
REMARK    3  A    between atoms: N_10  and  C_11
REMARK    4  A    between atoms: C_11  and  C_12
REMARK    5  A    between atoms: C_12  and  C_13
REMARK    6  A    between atoms: C_13  and  C_14
REMARK    7  A    between atoms: C_14  and  C_15
REMARK                            x       y       z     vdW  Elec       q    Type
REMARK                         _______ _______ _______ _____ _____    ______ ____
ROOT
ATOM      1  N   UNL     1       8.121   9.480  17.815  0.00  0.00    +0.000 N 
ATOM      2  C   UNL     1       8.002   8.126  18.015  0.00  0.00    +0.000 C 
ATOM      3  O   UNL     1       8.662   7.446  18.801  0.00  0.00    +0.000 OA
ATOM      4  N   UNL     1       7.062   7.516  17.230  0.00  0.00    +0.000 N 
ATOM      5  H   UNL     1       7.505   9.918  17.148  0.00  0.00    +0.000 HD
ATOM      6  H   UNL     1       6.437   8.055  16.652  0.00  0.00    +0.000 HD
ENDROOT
BRANCH   1  12
ATOM      7  C   UNL     1      11.917  12.650  17.532  0.00  0.00    +0.000 C 
ATOM      8  C   UNL     1      10.927  11.880  18.359  0.00  0.00    +0.000 A 
ATOM      9  C   UNL     1      10.945  11.978  19.757  0.00  0.00    +0.000 A 
ATOM     10  C   UNL     1      10.028  11.255  20.508  0.00  0.00    +0.000 A 
ATOM     11  C   UNL     1       9.103  10.434  19.873  0.00  0.00    +0.000 A 
ATOM     12  C   UNL     1       9.059  10.320  18.480  0.00  0.00    +0.000 A 
ATOM     13  C   UNL     1       9.985  11.045  17.728  0.00  0.00    +0.000 A 
ENDBRANCH   1  12
BRANCH   4  14
ATOM     14  C   UNL     1       6.865   6.081  17.364  0.00  0.00    +0.000 C 
BRANCH  14  15
ATOM     15  C   UNL     1       5.393   5.688  17.536  0.00  0.00    +0.000 C 
BRANCH  15  16
ATOM     16  C   UNL     1       4.475   6.749  16.923  0.00  0.00    +0.000 C 
BRANCH  16  17
ATOM     17  C   UNL     1       3.408   7.243  17.900  0.00  0.00    +0.000 C 
BRANCH  17  18
ATOM     18  C   UNL     1       2.644   6.106  18.544  0.00  0.00    +0.000 A 
ATOM     19  C   UNL     1       2.380   6.133  19.921  0.00  0.00    +0.000 A 
ATOM     20  C   UNL     1       1.668   5.098  20.533  0.00  0.00    +0.000 A 
ATOM     21  C   UNL     1       1.214   4.020  19.777  0.00  0.00    +0.000 A 
ATOM     22  C   UNL     1       1.474   3.977  18.408  0.00  0.00    +0.000 A 
ATOM     23  C   UNL     1       2.188   5.013  17.794  0.00  0.00    +0.000 A 
ENDBRANCH  17  18
ENDBRANCH  16  17
ENDBRANCH  15  16
ENDBRANCH  14  15
ENDBRANCH   4  14
TORSDOF 6
ENDMDL
MODEL 4
REMARK VINA RESULT:      -7.5      1.896      9.886
REMARK  Name = 
REMARK  7 active torsions:
REMARK  status: ('A' for Active; 'I' for Inactive)
REMARK    1  A    between atoms: C_1  and  C_2
REMARK    2  A    between atoms: C_6  and  N_7
REMARK    3  A    between atoms: N_10  and  C_11
REMARK    4  A    between atoms: C_11  and  C_12
REMARK    5  A    between atoms: C_12  and  C_13
REMARK    6  A    between atoms: C_13  and  C_14
REMARK    7  A    between atoms: C_14  and  C_15
REMARK                            x       y       z     vdW  Elec       q    Type
REMARK                         _______ _______ _______ _____ _____    ______ ____
ROOT
ATOM      1  N   UNL     1       8.416   9.938  17.820  0.00  0.00    +0.000 N 
ATOM      2  C   UNL     1       8.126   8.607  18.002  0.00  0.00    +0.000 C 
ATOM      3  O   UNL     1       8.626   7.863  18.846  0.00  0.00    +0.000 OA
ATOM      4  N   UNL     1       7.204   8.102  17.127  0.00  0.00    +0.000 N 
ATOM      5  H   UNL     1       7.920  10.438  17.099  0.00  0.00    +0.000 HD
ATOM      6  H   UNL     1       6.702   8.704  16.493  0.00  0.00    +0.000 HD
ENDROOT
BRANCH   1  12
ATOM      7  C   UNL     1       9.578  12.345  21.991  0.00  0.00    +0.000 C 
ATOM      8  C   UNL     1       9.961  11.860  20.622  0.00  0.00    +0.000 A 
ATOM      9  C   UNL     1      11.231  12.142  20.101  0.00  0.00    +0.000 A 
ATOM     10  C   UNL     1      11.568  11.693  18.831  0.00  0.00    +0.000 A 
ATOM     11  C   UNL     1      10.646  10.971  18.082  0.00  0.00    +0.000 A 
ATOM     12  C   UNL     1       9.374  10.671  18.577  0.00  0.00    +0.000 A 
ATOM     13  C   UNL     1       9.036  11.128  19.853  0.00  0.00    +0.000 A 
ENDBRANCH   1  12
BRANCH   4  14
ATOM     14  C   UNL     1       6.834   6.699  17.234  0.00  0.00    +0.000 C 
BRANCH  14  15
ATOM     15  C   UNL     1       5.363   6.435  16.894  0.00  0.00    +0.000 C 
BRANCH  15  16
ATOM     16  C   UNL     1       4.717   5.532  17.949  0.00  0.00    +0.000 C 
BRANCH  16  17
ATOM     17  C   UNL     1       3.314   5.071  17.554  0.00  0.00    +0.000 C 
BRANCH  17  18
ATOM     18  C   UNL     1       2.563   4.453  18.715  0.00  0.00    +0.000 A 
ATOM     19  C   UNL     1       2.879   4.825  20.029  0.00  0.00    +0.000 A 
ATOM     20  C   UNL     1       2.191   4.274  21.113  0.00  0.00    +0.000 A 
ATOM     21  C   UNL     1       1.180   3.341  20.898  0.00  0.00    +0.000 A 
ATOM     22  C   UNL     1       0.859   2.957  19.596  0.00  0.00    +0.000 A 
ATOM     23  C   UNL     1       1.548   3.508  18.509  0.00  0.00    +0.000 A 
ENDBRANCH  17  18
ENDBRANCH  16  17
ENDBRANCH  15  16
ENDBRANCH  14  15
ENDBRANCH   4  14
TORSDOF 6
ENDMDL
MODEL 5
REMARK VINA RESULT:      -7.5      1.099      1.316
REMARK  Name = 
REMARK  7 active torsions:
REMARK  status: ('A' for Active; 'I' for Inactive)
REMARK    1  A    between atoms: C_1  and  C_2
REMARK    2  A    between atoms: C_6  and  N_7
REMARK    3  A    between atoms: N_10  and  C_11
REMARK    4  A    between atoms: C_11  and  C_12
REMARK    5  A    between atoms: C_12  and  C_13
REMARK    6  A    between atoms: C_13  and  C_14
REMARK    7  A    between atoms: C_14  and  C_15
REMARK                            x       y       z     vdW  Elec       q    Type
REMARK                         _______ _______ _______ _____ _____    ______ ____
ROOT
ATOM      1  N   UNL     1       5.173   3.549  18.873  0.00  0.00    +0.000 N 
ATOM      2  C   UNL     1       5.752   4.783  19.046  0.00  0.00    +0.000 C 
ATOM      3  O   UNL     1       5.174   5.817  19.382  0.00  0.00    +0.000 OA
ATOM      4  N   UNL     1       7.095   4.821  18.789  0.00  0.00    +0.000 N 
ATOM      5  H   UNL     1       5.766   2.779  18.609  0.00  0.00    +0.000 HD
ATOM      6  H   UNL     1       7.616   3.977  18.612  0.00  0.00    +0.000 HD
ENDROOT
BRANCH   1  12
ATOM      7  C   UNL     1       1.396   2.448  21.884  0.00  0.00    +0.000 C 
ATOM      8  C   UNL     1       1.917   2.730  20.504  0.00  0.00    +0.000 A 
ATOM      9  C   UNL     1       1.051   2.703  19.402  0.00  0.00    +0.000 A 
ATOM     10  C   UNL     1       1.548   2.959  18.131  0.00  0.00    +0.000 A 
ATOM     11  C   UNL     1       2.899   3.235  17.956  0.00  0.00    +0.000 A 
ATOM     12  C   UNL     1       3.785   3.273  19.036  0.00  0.00    +0.000 A 
ATOM     13  C   UNL     1       3.283   3.011  20.313  0.00  0.00    +0.000 A 
ENDBRANCH   1  12
BRANCH   4  14
ATOM     14  C   UNL     1       7.799   6.086  18.938  0.00  0.00    +0.000 C 
BRANCH  14  15
ATOM     15  C   UNL     1       7.492   7.082  17.814  0.00  0.00    +0.000 C 
BRANCH  15  16
ATOM     16  C   UNL     1       8.515   8.222  17.807  0.00  0.00    +0.000 C 
BRANCH  16  17
ATOM     17  C   UNL     1       7.868   9.599  17.950  0.00  0.00    +0.000 C 
BRANCH  17  18
ATOM     18  C   UNL     1       8.823  10.630  18.515  0.00  0.00    +0.000 A 
ATOM     19  C   UNL     1       9.457  10.395  19.743  0.00  0.00    +0.000 A 
ATOM     20  C   UNL     1      10.349  11.328  20.277  0.00  0.00    +0.000 A 
ATOM     21  C   UNL     1      10.616  12.510  19.591  0.00  0.00    +0.000 A 
ATOM     22  C   UNL     1       9.988  12.760  18.372  0.00  0.00    +0.000 A 
ATOM     23  C   UNL     1       9.094  11.825  17.836  0.00  0.00    +0.000 A 
ENDBRANCH  17  18
ENDBRANCH  16  17
ENDBRANCH  15  16
ENDBRANCH  14  15
ENDBRANCH   4  14
TORSDOF 6
ENDMDL
MODEL 6
REMARK VINA RESULT:      -7.4      1.883      9.870
REMARK  Name = 
REMARK  7 active torsions:
REMARK  status: ('A' for Active; 'I' for Inactive)
REMARK    1  A    between atoms: C_1  and  C_2
REMARK    2  A    between atoms: C_6  and  N_7
REMARK    3  A    between atoms: N_10  and  C_11
REMARK    4  A    between atoms: C_11  and  C_12
REMARK    5  A    between atoms: C_12  and  C_13
REMARK    6  A    between atoms: C_13  and  C_14
REMARK    7  A    between atoms: C_14  and  C_15
REMARK                            x       y       z     vdW  Elec       q    Type
REMARK                         _______ _______ _______ _____ _____    ______ ____
ROOT
ATOM      1  N   UNL     1       9.062   8.961  19.084  0.00  0.00    +0.000 N 
ATOM      2  C   UNL     1       8.153   8.498  18.164  0.00  0.00    +0.000 C 
ATOM      3  O   UNL     1       7.539   9.179  17.342  0.00  0.00    +0.000 OA
ATOM      4  N   UNL     1       7.926   7.150  18.218  0.00  0.00    +0.000 N 
ATOM      5  H   UNL     1       9.506   8.291  19.692  0.00  0.00    +0.000 HD
ATOM      6  H   UNL     1       8.483   6.551  18.807  0.00  0.00    +0.000 HD
ENDROOT
BRANCH   1  12
ATOM      7  C   UNL     1      10.839  13.142  17.107  0.00  0.00    +0.000 C 
ATOM      8  C   UNL     1      10.300  12.392  18.292  0.00  0.00    +0.000 A 
ATOM      9  C   UNL     1      10.179  13.027  19.536  0.00  0.00    +0.000 A 
ATOM     10  C   UNL     1       9.685  12.320  20.624  0.00  0.00    +0.000 A 
ATOM     11  C   UNL     1       9.320  10.986  20.477  0.00  0.00    +0.000 A 
ATOM     12  C   UNL     1       9.427  10.328  19.249  0.00  0.00    +0.000 A 
ATOM     13  C   UNL     1       9.927  11.041  18.158  0.00  0.00    +0.000 A 
ENDBRANCH   1  12
BRANCH   4  14
ATOM     14  C   UNL     1       6.973   6.565  17.287  0.00  0.00    +0.000 C 
BRANCH  14  15
ATOM     15  C   UNL     1       5.910   5.701  17.976  0.00  0.00    +0.000 C 
BRANCH  15  16
ATOM     16  C   UNL     1       4.639   5.626  17.124  0.00  0.00    +0.000 C 
BRANCH  16  17
ATOM     17  C   UNL     1       3.443   6.312  17.784  0.00  0.00    +0.000 C 
BRANCH  17  18
ATOM     18  C   UNL     1       2.572   5.340  18.551  0.00  0.00    +0.000 A 
ATOM     19  C   UNL     1       2.364   5.523  19.926  0.00  0.00    +0.000 A 
ATOM     20  C   UNL     1       1.556   4.643  20.650  0.00  0.00    +0.000 A 
ATOM     21  C   UNL     1       0.947   3.567  20.011  0.00  0.00    +0.000 A 
ATOM     22  C   UNL     1       1.149   3.369  18.646  0.00  0.00    +0.000 A 
ATOM     23  C   UNL     1       1.960   4.250  17.919  0.00  0.00    +0.000 A 
ENDBRANCH  17  18
ENDBRANCH  16  17
ENDBRANCH  15  16
ENDBRANCH  14  15
ENDBRANCH   4  14
TORSDOF 6
ENDMDL
MODEL 7
REMARK VINA RESULT:      -7.4      1.895      9.583
REMARK  Name = 
REMARK  7 active torsions:
REMARK  status: ('A' for Active; 'I' for Inactive)
REMARK    1  A    between atoms: C_1  and  C_2
REMARK    2  A    between atoms: C_6  and  N_7
REMARK    3  A    between atoms: N_10  and  C_11
REMARK    4  A    between atoms: C_11  and  C_12
REMARK    5  A    between atoms: C_12  and  C_13
REMARK    6  A    between atoms: C_13  and  C_14
REMARK    7  A    between atoms: C_14  and  C_15
REMARK                            x       y       z     vdW  Elec       q    Type
REMARK                         _______ _______ _______ _____ _____    ______ ____
ROOT
ATOM      1  N   UNL     1       8.890   8.649  19.214  0.00  0.00    +0.000 N 
ATOM      2  C   UNL     1       8.098   8.029  18.278  0.00  0.00    +0.000 C 
ATOM      3  O   UNL     1       7.568   8.564  17.305  0.00  0.00    +0.000 OA
ATOM      4  N   UNL     1       7.890   6.696  18.504  0.00  0.00    +0.000 N 
ATOM      5  H   UNL     1       9.275   8.088  19.957  0.00  0.00    +0.000 HD
ATOM      6  H   UNL     1       8.389   6.207  19.231  0.00  0.00    +0.000 HD
ENDROOT
BRANCH   1  12
ATOM      7  C   UNL     1       9.558  12.840  21.769  0.00  0.00    +0.000 C 
ATOM      8  C   UNL     1       9.541  12.108  20.458  0.00  0.00    +0.000 A 
ATOM      9  C   UNL     1       9.816  12.787  19.264  0.00  0.00    +0.000 A 
ATOM     10  C   UNL     1       9.790  12.098  18.059  0.00  0.00    +0.000 A 
ATOM     11  C   UNL     1       9.485  10.742  18.041  0.00  0.00    +0.000 A 
ATOM     12  C   UNL     1       9.209  10.037  19.216  0.00  0.00    +0.000 A 
ATOM     13  C   UNL     1       9.233  10.734  20.426  0.00  0.00    +0.000 A 
ENDBRANCH   1  12
BRANCH   4  14
ATOM     14  C   UNL     1       7.058   5.951  17.572  0.00  0.00    +0.000 C 
BRANCH  14  15
ATOM     15  C   UNL     1       5.736   5.478  18.188  0.00  0.00    +0.000 C 
BRANCH  15  16
ATOM     16  C   UNL     1       4.546   5.990  17.371  0.00  0.00    +0.000 C 
BRANCH  16  17
ATOM     17  C   UNL     1       3.404   6.503  18.249  0.00  0.00    +0.000 C 
BRANCH  17  18
ATOM     18  C   UNL     1       2.520   5.385  18.759  0.00  0.00    +0.000 A 
ATOM     19  C   UNL     1       2.099   5.382  20.096  0.00  0.00    +0.000 A 
ATOM     20  C   UNL     1       1.275   4.364  20.584  0.00  0.00    +0.000 A 
ATOM     21  C   UNL     1       0.864   3.334  19.742  0.00  0.00    +0.000 A 
ATOM     22  C   UNL     1       1.281   3.320  18.412  0.00  0.00    +0.000 A 
ATOM     23  C   UNL     1       2.107   4.339  17.922  0.00  0.00    +0.000 A 
ENDBRANCH  17  18
ENDBRANCH  16  17
ENDBRANCH  15  16
ENDBRANCH  14  15
ENDBRANCH   4  14
TORSDOF 6
ENDMDL
MODEL 8
REMARK VINA RESULT:      -7.4      1.768      9.843
REMARK  Name = 
REMARK  7 active torsions:
REMARK  status: ('A' for Active; 'I' for Inactive)
REMARK    1  A    between atoms: C_1  and  C_2
REMARK    2  A    between atoms: C_6  and  N_7
REMARK    3  A    between atoms: N_10  and  C_11
REMARK    4  A    between atoms: C_11  and  C_12
REMARK    5  A    between atoms: C_12  and  C_13
REMARK    6  A    between atoms: C_13  and  C_14
REMARK    7  A    between atoms: C_14  and  C_15
REMARK                            x       y       z     vdW  Elec       q    Type
REMARK                         _______ _______ _______ _____ _____    ______ ____
ROOT
ATOM      1  N   UNL     1       8.193   9.663  17.763  0.00  0.00    +0.000 N 
ATOM      2  C   UNL     1       7.982   8.318  17.944  0.00  0.00    +0.000 C 
ATOM      3  O   UNL     1       8.561   7.595  18.755  0.00  0.00    +0.000 OA
ATOM      4  N   UNL     1       7.048   7.772  17.108  0.00  0.00    +0.000 N 
ATOM      5  H   UNL     1       7.638  10.142  17.071  0.00  0.00    +0.000 HD
ATOM      6  H   UNL     1       6.485   8.351  16.505  0.00  0.00    +0.000 HD
ENDROOT
BRANCH   1  12
ATOM      7  C   UNL     1      12.079  12.735  17.688  0.00  0.00    +0.000 C 
ATOM      8  C   UNL     1      11.057  11.952  18.462  0.00  0.00    +0.000 A 
ATOM      9  C   UNL     1      11.060  11.976  19.863  0.00  0.00    +0.000 A 
ATOM     10  C   UNL     1      10.115  11.241  20.566  0.00  0.00    +0.000 A 
ATOM     11  C   UNL     1       9.175  10.482  19.878  0.00  0.00    +0.000 A 
ATOM     12  C   UNL     1       9.145  10.441  18.481  0.00  0.00    +0.000 A 
ATOM     13  C   UNL     1      10.100  11.178  17.778  0.00  0.00    +0.000 A 
ENDBRANCH   1  12
BRANCH   4  14
ATOM     14  C   UNL     1       6.759   6.350  17.218  0.00  0.00    +0.000 C 
BRANCH  14  15
ATOM     15  C   UNL     1       5.262   6.030  17.126  0.00  0.00    +0.000 C 
BRANCH  15  16
ATOM     16  C   UNL     1       5.027   4.518  17.200  0.00  0.00    +0.000 C 
BRANCH  16  17
ATOM     17  C   UNL     1       3.544   4.152  17.251  0.00  0.00    +0.000 C 
BRANCH  17  18
ATOM     18  C   UNL     1       3.015   4.084  18.669  0.00  0.00    +0.000 A 
ATOM     19  C   UNL     1       3.263   2.948  19.453  0.00  0.00    +0.000 A 
ATOM     20  C   UNL     1       2.793   2.870  20.766  0.00  0.00    +0.000 A 
ATOM     21  C   UNL     1       2.066   3.925  21.312  0.00  0.00    +0.000 A 
ATOM     22  C   UNL     1       1.806   5.057  20.542  0.00  0.00    +0.000 A 
ATOM     23  C   UNL     1       2.276   5.137  19.225  0.00  0.00    +0.000 A 
ENDBRANCH  17  18
ENDBRANCH  16  17
ENDBRANCH  15  16
ENDBRANCH  14  15
ENDBRANCH   4  14
TORSDOF 6
ENDMDL
MODEL 9
REMARK VINA RESULT:      -7.4      1.769      9.966
REMARK  Name = 
REMARK  7 active torsions:
REMARK  status: ('A' for Active; 'I' for Inactive)
REMARK    1  A    between atoms: C_1  and  C_2
REMARK    2  A    between atoms: C_6  and  N_7
REMARK    3  A    between atoms: N_10  and  C_11
REMARK    4  A    between atoms: C_11  and  C_12
REMARK    5  A    between atoms: C_12  and  C_13
REMARK    6  A    between atoms: C_13  and  C_14
REMARK    7  A    between atoms: C_14  and  C_15
REMARK                            x       y       z     vdW  Elec       q    Type
REMARK                         _______ _______ _______ _____ _____    ______ ____
ROOT
ATOM      1  N   UNL     1       8.214   9.683  17.809  0.00  0.00    +0.000 N 
ATOM      2  C   UNL     1       8.035   8.333  17.990  0.00  0.00    +0.000 C 
ATOM      3  O   UNL     1       8.635   7.622  18.797  0.00  0.00    +0.000 OA
ATOM      4  N   UNL     1       7.107   7.767  17.160  0.00  0.00    +0.000 N 
ATOM      5  H   UNL     1       7.644  10.150  17.121  0.00  0.00    +0.000 HD
ATOM      6  H   UNL     1       6.528   8.334  16.561  0.00  0.00    +0.000 HD
ENDROOT
BRANCH   1  12
ATOM      7  C   UNL     1      12.087  12.772  17.714  0.00  0.00    +0.000 C 
ATOM      8  C   UNL     1      11.059  12.000  18.493  0.00  0.00    +0.000 A 
ATOM      9  C   UNL     1      11.044  12.056  19.893  0.00  0.00    +0.000 A 
ATOM     10  C   UNL     1      10.093  11.332  20.600  0.00  0.00    +0.000 A 
ATOM     11  C   UNL     1       9.166  10.553  19.918  0.00  0.00    +0.000 A 
ATOM     12  C   UNL     1       9.154  10.481  18.522  0.00  0.00    +0.000 A 
ATOM     13  C   UNL     1      10.114  11.207  17.815  0.00  0.00    +0.000 A 
ENDBRANCH   1  12
BRANCH   4  14
ATOM     14  C   UNL     1       6.850   6.339  17.270  0.00  0.00    +0.000 C 
BRANCH  14  15
ATOM     15  C   UNL     1       6.111   5.763  16.057  0.00  0.00    +0.000 C 
BRANCH  15  16
ATOM     16  C   UNL     1       4.802   5.096  16.488  0.00  0.00    +0.000 C 
BRANCH  16  17
ATOM     17  C   UNL     1       4.974   4.190  17.708  0.00  0.00    +0.000 C 
BRANCH  17  18
ATOM     18  C   UNL     1       3.655   3.876  18.383  0.00  0.00    +0.000 A 
ATOM     19  C   UNL     1       2.457   3.986  17.662  0.00  0.00    +0.000 A 
ATOM     20  C   UNL     1       1.231   3.691  18.265  0.00  0.00    +0.000 A 
ATOM     21  C   UNL     1       1.186   3.287  19.596  0.00  0.00    +0.000 A 
ATOM     22  C   UNL     1       2.369   3.179  20.326  0.00  0.00    +0.000 A 
ATOM     23  C   UNL     1       3.598   3.474  19.724  0.00  0.00    +0.000 A 
ENDBRANCH  17  18
ENDBRANCH  16  17
ENDBRANCH  15  16
ENDBRANCH  14  15
ENDBRANCH   4  14
TORSDOF 6
ENDMDL
