MODEL 1
REMARK VINA RESULT:      -7.1      0.000      0.000
REMARK  Name = 
REMARK  2 active torsions:
REMARK  status: ('A' for Active; 'I' for Inactive)
REMARK    1  A    between atoms: C_1  and  C_2
REMARK    2  A    between atoms: C_2  and  C_3
REMARK                            x       y       z     vdW  Elec       q    Type
REMARK                         _______ _______ _______ _____ _____    ______ ____
ROOT
ATOM      1  C   UNL     1       4.522   6.498  17.241  0.00  0.00    +0.000 C 
ATOM      2  C   UNL     1       4.797   5.204  18.033  0.00  0.00    +0.000 C 
ATOM      3  C   UNL     1       5.496   5.485  19.372  0.00  0.00    +0.000 C 
ATOM      4  O   UNL     1       6.882   5.260  19.131  0.00  0.00    +0.000 OA
ATOM      5  C   UNL     1       6.926   4.643  17.936  0.00  0.00    +0.000 C 
ATOM      6  N   UNL     1       8.153   4.205  17.601  0.00  0.00    +0.000 N 
ATOM      7  N   UNL     1       5.850   4.491  17.250  0.00  0.00    +0.000 NA
ATOM      8  H   UNL     1       8.779   4.049  18.379  0.00  0.00    +0.000 HD
ATOM      9  H   UNL     1       8.156   3.480  16.893  0.00  0.00    +0.000 HD
ENDROOT
BRANCH   2  10
ATOM     10  C   UNL     1       3.531   4.352  18.210  0.00  0.00    +0.000 A 
ATOM     11  C   UNL     1       3.475   3.074  17.607  0.00  0.00    +0.000 A 
ATOM     12  C   UNL     1       2.366   2.239  17.752  0.00  0.00    +0.000 A 
ATOM     13  C   UNL     1       1.281   2.672  18.495  0.00  0.00    +0.000 A 
ATOM     14  F   UNL     1       0.217   1.873  18.640  0.00  0.00    +0.000 F 
ATOM     15  C   UNL     1       1.289   3.919  19.098  0.00  0.00    +0.000 A 
ATOM     16  C   UNL     1       2.408   4.753  18.967  0.00  0.00    +0.000 A 
ATOM     17 CL   UNL     1       2.325   6.256  19.817  0.00  0.00    +0.000 Cl
ENDBRANCH   2  10
TORSDOF 1
ENDMDL
MODEL 2
REMARK VINA RESULT:      -6.7      1.378      1.559
REMARK  Name = 
REMARK  2 active torsions:
REMARK  status: ('A' for Active; 'I' for Inactive)
REMARK    1  A    between atoms: C_1  and  C_2
REMARK    2  A    between atoms: C_2  and  C_3
REMARK                            x       y       z     vdW  Elec       q    Type
REMARK                         _______ _______ _______ _____ _____    ______ ____
ROOT
ATOM      1  C   UNL     1       4.488   6.419  17.271  0.00  0.00    +0.000 C 
ATOM      2  C   UNL     1       4.782   5.148  18.092  0.00  0.00    +0.000 C 
ATOM      3  C   UNL     1       5.480   5.471  19.423  0.00  0.00    +0.000 C 
ATOM      4  O   UNL     1       6.869   5.259  19.183  0.00  0.00    +0.000 OA
ATOM      5  C   UNL     1       6.918   4.614  18.003  0.00  0.00    +0.000 C 
ATOM      6  N   UNL     1       8.151   4.185  17.675  0.00  0.00    +0.000 N 
ATOM      7  N   UNL     1       5.843   4.431  17.324  0.00  0.00    +0.000 NA
ATOM      8  H   UNL     1       8.780   4.056  18.455  0.00  0.00    +0.000 HD
ATOM      9  H   UNL     1       8.162   3.443  16.986  0.00  0.00    +0.000 HD
ENDROOT
BRANCH   2  10
ATOM     10  C   UNL     1       3.528   4.284  18.293  0.00  0.00    +0.000 A 
ATOM     11  C   UNL     1       2.328   4.657  17.645  0.00  0.00    +0.000 A 
ATOM     12  C   UNL     1       1.161   3.901  17.764  0.00  0.00    +0.000 A 
ATOM     13  C   UNL     1       1.168   2.758  18.545  0.00  0.00    +0.000 A 
ATOM     14  F   UNL     1       0.052   2.027  18.658  0.00  0.00    +0.000 F 
ATOM     15  C   UNL     1       2.319   2.357  19.203  0.00  0.00    +0.000 A 
ATOM     16  C   UNL     1       3.496   3.107  19.073  0.00  0.00    +0.000 A 
ATOM     17 CL   UNL     1       4.881   2.472  19.889  0.00  0.00    +0.000 Cl
ENDBRANCH   2  10
TORSDOF 1
ENDMDL
MODEL 3
REMARK VINA RESULT:      -6.7      2.054      2.269
REMARK  Name = 
REMARK  2 active torsions:
REMARK  status: ('A' for Active; 'I' for Inactive)
REMARK    1  A    between atoms: C_1  and  C_2
REMARK    2  A    between atoms: C_2  and  C_3
REMARK                            x       y       z     vdW  Elec       q    Type
REMARK                         _______ _______ _______ _____ _____    ______ ____
ROOT
ATOM      1  C   UNL     1       6.193   6.743  17.682  0.00  0.00    +0.000 C 
ATOM      2  C   UNL     1       5.877   5.441  16.919  0.00  0.00    +0.000 C 
ATOM      3  C   UNL     1       6.987   4.391  17.087  0.00  0.00    +0.000 C 
ATOM      4  O   UNL     1       7.798   4.509  15.921  0.00  0.00    +0.000 OA
ATOM      5  C   UNL     1       7.082   5.278  15.081  0.00  0.00    +0.000 C 
ATOM      6  N   UNL     1       7.620   5.378  13.851  0.00  0.00    +0.000 N 
ATOM      7  N   UNL     1       5.980   5.808  15.475  0.00  0.00    +0.000 NA
ATOM      8  H   UNL     1       8.236   4.621  13.591  0.00  0.00    +0.000 HD
ATOM      9  H   UNL     1       6.964   5.665  13.135  0.00  0.00    +0.000 HD
ENDROOT
BRANCH   2  10
ATOM     10  C   UNL     1       4.493   4.880  17.277  0.00  0.00    +0.000 A 
ATOM     11  C   UNL     1       4.306   3.478  17.296  0.00  0.00    +0.000 A 
ATOM     12  C   UNL     1       3.082   2.902  17.640  0.00  0.00    +0.000 A 
ATOM     13  C   UNL     1       2.013   3.720  17.961  0.00  0.00    +0.000 A 
ATOM     14  F   UNL     1       0.838   3.173  18.296  0.00  0.00    +0.000 F 
ATOM     15  C   UNL     1       2.148   5.099  17.951  0.00  0.00    +0.000 A 
ATOM     16  C   UNL     1       3.380   5.678  17.621  0.00  0.00    +0.000 A 
ATOM     17 CL   UNL     1       3.441   7.404  17.704  0.00  0.00    +0.000 Cl
ENDBRANCH   2  10
TORSDOF 1
ENDMDL
MODEL 4
REMARK VINA RESULT:      -6.6      1.702      2.010
REMARK  Name = 
REMARK  2 active torsions:
REMARK  status: ('A' for Active; 'I' for Inactive)
REMARK    1  A    between atoms: C_1  and  C_2
REMARK    2  A    between atoms: C_2  and  C_3
REMARK                            x       y       z     vdW  Elec       q    Type
REMARK                         _______ _______ _______ _____ _____    ______ ____
ROOT
ATOM      1  C   UNL     1       6.019   3.836  15.762  0.00  0.00    +0.000 C 
ATOM      2  C   UNL     1       5.331   4.888  16.655  0.00  0.00    +0.000 C 
ATOM      3  C   UNL     1       5.161   6.234  15.933  0.00  0.00    +0.000 C 
ATOM      4  O   UNL     1       6.254   7.037  16.368  0.00  0.00    +0.000 OA
ATOM      5  C   UNL     1       6.778   6.367  17.411  0.00  0.00    +0.000 C 
ATOM      6  N   UNL     1       7.738   7.050  18.062  0.00  0.00    +0.000 N 
ATOM      7  N   UNL     1       6.331   5.203  17.718  0.00  0.00    +0.000 NA
ATOM      8  H   UNL     1       7.696   8.053  17.956  0.00  0.00    +0.000 HD
ATOM      9  H   UNL     1       7.911   6.723  19.005  0.00  0.00    +0.000 HD
ENDROOT
BRANCH   2  10
ATOM     10  C   UNL     1       4.006   4.375  17.239  0.00  0.00    +0.000 A 
ATOM     11  C   UNL     1       3.713   2.993  17.163  0.00  0.00    +0.000 A 
ATOM     12  C   UNL     1       2.540   2.458  17.698  0.00  0.00    +0.000 A 
ATOM     13  C   UNL     1       1.628   3.299  18.312  0.00  0.00    +0.000 A 
ATOM     14  F   UNL     1       0.503   2.791  18.830  0.00  0.00    +0.000 F 
ATOM     15  C   UNL     1       1.870   4.660  18.404  0.00  0.00    +0.000 A 
ATOM     16  C   UNL     1       3.054   5.197  17.881  0.00  0.00    +0.000 A 
ATOM     17 CL   UNL     1       3.272   6.897  18.113  0.00  0.00    +0.000 Cl
ENDBRANCH   2  10
TORSDOF 1
ENDMDL
MODEL 5
REMARK VINA RESULT:      -6.6      3.765      4.899
REMARK  Name = 
REMARK  2 active torsions:
REMARK  status: ('A' for Active; 'I' for Inactive)
REMARK    1  A    between atoms: C_1  and  C_2
REMARK    2  A    between atoms: C_2  and  C_3
REMARK                            x       y       z     vdW  Elec       q    Type
REMARK                         _______ _______ _______ _____ _____    ______ ____
ROOT
ATOM      1  C   UNL     1       3.873   5.472  18.787  0.00  0.00    +0.000 C 
ATOM      2  C   UNL     1       4.489   4.178  18.219  0.00  0.00    +0.000 C 
ATOM      3  C   UNL     1       3.423   3.104  17.946  0.00  0.00    +0.000 C 
ATOM      4  O   UNL     1       3.450   2.247  19.083  0.00  0.00    +0.000 OA
ATOM      5  C   UNL     1       4.568   2.591  19.747  0.00  0.00    +0.000 C 
ATOM      6  N   UNL     1       4.852   1.779  20.781  0.00  0.00    +0.000 N 
ATOM      7  N   UNL     1       5.268   3.594  19.352  0.00  0.00    +0.000 NA
ATOM      8  H   UNL     1       4.454   0.852  20.719  0.00  0.00    +0.000 HD
ATOM      9  H   UNL     1       5.819   1.814  21.082  0.00  0.00    +0.000 HD
ENDROOT
BRANCH   2  10
ATOM     10  C   UNL     1       5.368   4.445  16.988  0.00  0.00    +0.000 A 
ATOM     11  C   UNL     1       4.899   4.053  15.713  0.00  0.00    +0.000 A 
ATOM     12  C   UNL     1       5.635   4.291  14.551  0.00  0.00    +0.000 A 
ATOM     13  C   UNL     1       6.866   4.918  14.644  0.00  0.00    +0.000 A 
ATOM     14  F   UNL     1       7.575   5.152  13.532  0.00  0.00    +0.000 F 
ATOM     15  C   UNL     1       7.369   5.314  15.873  0.00  0.00    +0.000 A 
ATOM     16  C   UNL     1       6.624   5.089  17.038  0.00  0.00    +0.000 A 
ATOM     17 CL   UNL     1       7.327   5.684  18.502  0.00  0.00    +0.000 Cl
ENDBRANCH   2  10
TORSDOF 1
ENDMDL
MODEL 6
REMARK VINA RESULT:      -6.6      2.939      3.825
REMARK  Name = 
REMARK  2 active torsions:
REMARK  status: ('A' for Active; 'I' for Inactive)
REMARK    1  A    between atoms: C_1  and  C_2
REMARK    2  A    between atoms: C_2  and  C_3
REMARK                            x       y       z     vdW  Elec       q    Type
REMARK                         _______ _______ _______ _____ _____    ______ ____
ROOT
ATOM      1  C   UNL     1       7.467   4.570  17.801  0.00  0.00    +0.000 C 
ATOM      2  C   UNL     1       6.359   4.939  16.795  0.00  0.00    +0.000 C 
ATOM      3  C   UNL     1       5.935   3.736  15.937  0.00  0.00    +0.000 C 
ATOM      4  O   UNL     1       6.656   3.870  14.715  0.00  0.00    +0.000 OA
ATOM      5  C   UNL     1       7.161   5.117  14.750  0.00  0.00    +0.000 C 
ATOM      6  N   UNL     1       7.753   5.490  13.601  0.00  0.00    +0.000 N 
ATOM      7  N   UNL     1       7.023   5.838  15.804  0.00  0.00    +0.000 NA
ATOM      8  H   UNL     1       7.442   4.993  12.778  0.00  0.00    +0.000 HD
ATOM      9  H   UNL     1       7.846   6.493  13.489  0.00  0.00    +0.000 HD
ENDROOT
BRANCH   2  10
ATOM     10  C   UNL     1       5.158   5.613  17.475  0.00  0.00    +0.000 A 
ATOM     11  C   UNL     1       4.707   6.862  16.988  0.00  0.00    +0.000 A 
ATOM     12  C   UNL     1       3.605   7.516  17.543  0.00  0.00    +0.000 A 
ATOM     13  C   UNL     1       2.937   6.936  18.607  0.00  0.00    +0.000 A 
ATOM     14  F   UNL     1       1.877   7.557  19.140  0.00  0.00    +0.000 F 
ATOM     15  C   UNL     1       3.346   5.716  19.121  0.00  0.00    +0.000 A 
ATOM     16  C   UNL     1       4.443   5.052  18.556  0.00  0.00    +0.000 A 
ATOM     17 CL   UNL     1       4.818   3.510  19.242  0.00  0.00    +0.000 Cl
ENDBRANCH   2  10
TORSDOF 1
ENDMDL
MODEL 7
REMARK VINA RESULT:      -6.6      2.446      2.745
REMARK  Name = 
REMARK  2 active torsions:
REMARK  status: ('A' for Active; 'I' for Inactive)
REMARK    1  A    between atoms: C_1  and  C_2
REMARK    2  A    between atoms: C_2  and  C_3
REMARK                            x       y       z     vdW  Elec       q    Type
REMARK                         _______ _______ _______ _____ _____    ______ ____
ROOT
ATOM      1  C   UNL     1       5.069   6.471  16.169  0.00  0.00    +0.000 C 
ATOM      2  C   UNL     1       5.401   4.970  16.286  0.00  0.00    +0.000 C 
ATOM      3  C   UNL     1       6.904   4.727  16.496  0.00  0.00    +0.000 C 
ATOM      4  O   UNL     1       7.422   4.421  15.205  0.00  0.00    +0.000 OA
ATOM      5  C   UNL     1       6.335   4.210  14.440  0.00  0.00    +0.000 C 
ATOM      6  N   UNL     1       6.624   3.752  13.208  0.00  0.00    +0.000 N 
ATOM      7  N   UNL     1       5.161   4.416  14.920  0.00  0.00    +0.000 NA
ATOM      8  H   UNL     1       7.515   3.283  13.124  0.00  0.00    +0.000 HD
ATOM      9  H   UNL     1       5.849   3.292  12.746  0.00  0.00    +0.000 HD
ENDROOT
BRANCH   2  10
ATOM     10  C   UNL     1       4.548   4.269  17.354  0.00  0.00    +0.000 A 
ATOM     11  C   UNL     1       3.486   3.432  16.941  0.00  0.00    +0.000 A 
ATOM     12  C   UNL     1       2.690   2.744  17.859  0.00  0.00    +0.000 A 
ATOM     13  C   UNL     1       2.934   2.890  19.214  0.00  0.00    +0.000 A 
ATOM     14  F   UNL     1       2.177   2.229  20.098  0.00  0.00    +0.000 F 
ATOM     15  C   UNL     1       3.961   3.704  19.664  0.00  0.00    +0.000 A 
ATOM     16  C   UNL     1       4.770   4.383  18.744  0.00  0.00    +0.000 A 
ATOM     17 CL   UNL     1       6.056   5.317  19.425  0.00  0.00    +0.000 Cl
ENDBRANCH   2  10
TORSDOF 1
ENDMDL
MODEL 8
REMARK VINA RESULT:      -6.5      1.978      2.274
REMARK  Name = 
REMARK  2 active torsions:
REMARK  status: ('A' for Active; 'I' for Inactive)
REMARK    1  A    between atoms: C_1  and  C_2
REMARK    2  A    between atoms: C_2  and  C_3
REMARK                            x       y       z     vdW  Elec       q    Type
REMARK                         _______ _______ _______ _____ _____    ______ ____
ROOT
ATOM      1  C   UNL     1       4.452   3.499  16.918  0.00  0.00    +0.000 C 
ATOM      2  C   UNL     1       4.450   4.295  18.239  0.00  0.00    +0.000 C 
ATOM      3  C   UNL     1       4.338   5.809  17.999  0.00  0.00    +0.000 C 
ATOM      4  O   UNL     1       5.673   6.303  18.067  0.00  0.00    +0.000 OA
ATOM      5  C   UNL     1       6.389   5.286  18.579  0.00  0.00    +0.000 C 
ATOM      6  N   UNL     1       7.662   5.614  18.866  0.00  0.00    +0.000 N 
ATOM      7  N   UNL     1       5.834   4.145  18.780  0.00  0.00    +0.000 NA
ATOM      8  H   UNL     1       7.825   6.599  19.022  0.00  0.00    +0.000 HD
ATOM      9  H   UNL     1       8.111   4.993  19.528  0.00  0.00    +0.000 HD
ENDROOT
BRANCH   2  10
ATOM     10  C   UNL     1       3.385   3.786  19.222  0.00  0.00    +0.000 A 
ATOM     11  C   UNL     1       3.802   3.207  20.443  0.00  0.00    +0.000 A 
ATOM     12  C   UNL     1       2.886   2.749  21.392  0.00  0.00    +0.000 A 
ATOM     13  C   UNL     1       1.530   2.852  21.132  0.00  0.00    +0.000 A 
ATOM     14  F   UNL     1       0.647   2.419  22.041  0.00  0.00    +0.000 F 
ATOM     15  C   UNL     1       1.076   3.408  19.947  0.00  0.00    +0.000 A 
ATOM     16  C   UNL     1       1.994   3.881  19.000  0.00  0.00    +0.000 A 
ATOM     17 CL   UNL     1       1.306   4.610  17.591  0.00  0.00    +0.000 Cl
ENDBRANCH   2  10
TORSDOF 1
ENDMDL
MODEL 9
REMARK VINA RESULT:      -6.5      3.605      4.853
REMARK  Name = 
REMARK  2 active torsions:
REMARK  status: ('A' for Active; 'I' for Inactive)
REMARK    1  A    between atoms: C_1  and  C_2
REMARK    2  A    between atoms: C_2  and  C_3
REMARK                            x       y       z     vdW  Elec       q    Type
REMARK                         _______ _______ _______ _____ _____    ______ ____
ROOT
ATOM      1  C   UNL     1       2.284   6.489  19.711  0.00  0.00    +0.000 C 
ATOM      2  C   UNL     1       2.637   5.074  19.208  0.00  0.00    +0.000 C 
ATOM      3  C   UNL     1       1.381   4.233  18.926  0.00  0.00    +0.000 C 
ATOM      4  O   UNL     1       1.192   3.434  20.090  0.00  0.00    +0.000 OA
ATOM      5  C   UNL     1       2.336   3.566  20.787  0.00  0.00    +0.000 C 
ATOM      6  N   UNL     1       2.412   2.753  21.857  0.00  0.00    +0.000 N 
ATOM      7  N   UNL     1       3.241   4.387  20.388  0.00  0.00    +0.000 NA
ATOM      8  H   UNL     1       1.833   1.927  21.808  0.00  0.00    +0.000 HD
ATOM      9  H   UNL     1       3.355   2.600  22.194  0.00  0.00    +0.000 HD
ENDROOT
BRANCH   2  10
ATOM     10  C   UNL     1       3.591   5.107  18.006  0.00  0.00    +0.000 A 
ATOM     11  C   UNL     1       4.059   6.356  17.536  0.00  0.00    +0.000 A 
ATOM     12  C   UNL     1       4.950   6.455  16.465  0.00  0.00    +0.000 A 
ATOM     13  C   UNL     1       5.382   5.302  15.833  0.00  0.00    +0.000 A 
ATOM     14  F   UNL     1       6.239   5.391  14.809  0.00  0.00    +0.000 F 
ATOM     15  C   UNL     1       4.946   4.056  16.255  0.00  0.00    +0.000 A 
ATOM     16  C   UNL     1       4.064   3.955  17.339  0.00  0.00    +0.000 A 
ATOM     17 CL   UNL     1       3.642   2.346  17.812  0.00  0.00    +0.000 Cl
ENDBRANCH   2  10
TORSDOF 1
ENDMDL
