MODEL 1
REMARK VINA RESULT:      -6.7      0.000      0.000
REMARK  Name = 
REMARK  7 active torsions:
REMARK  status: ('A' for Active; 'I' for Inactive)
REMARK    1  A    between atoms: C_2  and  N_3
REMARK    2  A    between atoms: C_2  and  N_13
REMARK    3  A    between atoms: N_3  and  C_4
REMARK    4  A    between atoms: C_4  and  C_5
REMARK    5  A    between atoms: C_5  and  C_6
REMARK    6  A    between atoms: C_6  and  N_7
REMARK    7  A    between atoms: C_19  and  C_20
REMARK                            x       y       z     vdW  Elec       q    Type
REMARK                         _______ _______ _______ _____ _____    ______ ____
ROOT
ATOM      1  N   UNL     1       2.640   4.430  18.515  0.00  0.00    +0.000 N 
ATOM      2  C   UNL     1       1.520   4.458  19.480  0.00  0.00    +0.000 C 
ATOM      3  C   UNL     1       1.804   5.427  20.653  0.00  0.00    +0.000 C 
ATOM      4  N   UNL     1       2.189   6.749  20.150  0.00  0.00    +0.000 N 
ATOM      5  C   UNL     1       1.500   7.885  20.436  0.00  0.00    +0.000 A 
ATOM      6  N   UNL     1       1.407   8.919  19.625  0.00  0.00    +0.000 NA
ATOM      7  C   UNL     1       0.619   9.925  20.171  0.00  0.00    +0.000 A 
ATOM      8  C   UNL     1       0.198   9.682  21.461  0.00  0.00    +0.000 A 
ATOM      9  S   UNL     1       0.696   8.127  21.957  0.00  0.00    +0.000 S 
ATOM     10  C   UNL     1       3.260   6.766  19.145  0.00  0.00    +0.000 C 
ATOM     11  C   UNL     1       2.951   5.783  18.001  0.00  0.00    +0.000 C 
ENDROOT
BRANCH   7  12
ATOM     12  C   UNL     1       0.280  11.126  19.411  0.00  0.00    +0.000 A 
ATOM     13  C   UNL     1       1.197  12.177  19.246  0.00  0.00    +0.000 A 
ATOM     14  C   UNL     1       0.841  13.337  18.551  0.00  0.00    +0.000 A 
ATOM     15  C   UNL     1      -0.437  13.462  18.012  0.00  0.00    +0.000 A 
ATOM     16  C   UNL     1      -1.359  12.429  18.167  0.00  0.00    +0.000 A 
ATOM     17  C   UNL     1      -1.003  11.269  18.864  0.00  0.00    +0.000 A 
ENDBRANCH   7  12
BRANCH   1  19
ATOM     18  S   UNL     1       4.096   2.514  19.816  0.00  0.00    +0.000 S 
ATOM     19  C   UNL     1       3.546   3.361  18.479  0.00  0.00    +0.000 C 
BRANCH  19  20
ATOM     20  N   UNL     1       3.946   3.075  17.189  0.00  0.00    +0.000 N 
ATOM     21  H   UNL     1       3.501   2.238  16.839  0.00  0.00    +0.000 HD
BRANCH  20  22
ATOM     22  C   UNL     1       4.425   4.011  16.179  0.00  0.00    +0.000 C 
BRANCH  22  23
ATOM     23  C   UNL     1       5.880   3.725  15.793  0.00  0.00    +0.000 C 
BRANCH  23  24
ATOM     24  C   UNL     1       6.899   4.576  16.571  0.00  0.00    +0.000 C 
BRANCH  24  25
ATOM     25  N   UNL     1       6.249   5.520  17.498  0.00  0.00    +0.000 NA
ATOM     26  C   UNL     1       6.433   6.942  17.138  0.00  0.00    +0.000 C 
ATOM     27  C   UNL     1       7.834   7.497  17.442  0.00  0.00    +0.000 C 
ATOM     28  O   UNL     1       8.176   7.313  18.820  0.00  0.00    +0.000 OA
ATOM     29  C   UNL     1       8.111   5.928  19.177  0.00  0.00    +0.000 C 
ATOM     30  C   UNL     1       6.721   5.336  18.892  0.00  0.00    +0.000 C 
ENDBRANCH  24  25
ENDBRANCH  23  24
ENDBRANCH  22  23
ENDBRANCH  20  22
ENDBRANCH  19  20
ENDBRANCH   1  19
TORSDOF 7
ENDMDL
MODEL 2
REMARK VINA RESULT:      -6.7      3.651      9.201
REMARK  Name = 
REMARK  7 active torsions:
REMARK  status: ('A' for Active; 'I' for Inactive)
REMARK    1  A    between atoms: C_2  and  N_3
REMARK    2  A    between atoms: C_2  and  N_13
REMARK    3  A    between atoms: N_3  and  C_4
REMARK    4  A    between atoms: C_4  and  C_5
REMARK    5  A    between atoms: C_5  and  C_6
REMARK    6  A    between atoms: C_6  and  N_7
REMARK    7  A    between atoms: C_19  and  C_20
REMARK                            x       y       z     vdW  Elec       q    Type
REMARK                         _______ _______ _______ _____ _____    ______ ____
ROOT
ATOM      1  N   UNL     1       1.566  12.972  19.588  0.00  0.00    +0.000 N 
ATOM      2  C   UNL     1       1.831  12.201  20.823  0.00  0.00    +0.000 C 
ATOM      3  C   UNL     1       0.956  10.926  20.895  0.00  0.00    +0.000 C 
ATOM      4  N   UNL     1       1.081  10.141  19.664  0.00  0.00    +0.000 N 
ATOM      5  C   UNL     1       1.530   8.858  19.642  0.00  0.00    +0.000 A 
ATOM      6  N   UNL     1       2.196   8.324  18.638  0.00  0.00    +0.000 NA
ATOM      7  C   UNL     1       2.548   7.006  18.904  0.00  0.00    +0.000 A 
ATOM      8  C   UNL     1       2.045   6.510  20.089  0.00  0.00    +0.000 A 
ATOM      9  S   UNL     1       1.220   7.742  20.935  0.00  0.00    +0.000 S 
ATOM     10  C   UNL     1       0.883  10.878  18.410  0.00  0.00    +0.000 C 
ATOM     11  C   UNL     1       1.759  12.145  18.376  0.00  0.00    +0.000 C 
ENDROOT
BRANCH   7  12
ATOM     12  C   UNL     1       3.386   6.239  17.986  0.00  0.00    +0.000 A 
ATOM     13  C   UNL     1       3.295   4.840  17.900  0.00  0.00    +0.000 A 
ATOM     14  C   UNL     1       4.134   4.118  17.045  0.00  0.00    +0.000 A 
ATOM     15  C   UNL     1       5.075   4.786  16.265  0.00  0.00    +0.000 A 
ATOM     16  C   UNL     1       5.176   6.173  16.337  0.00  0.00    +0.000 A 
ATOM     17  C   UNL     1       4.338   6.895  17.194  0.00  0.00    +0.000 A 
ENDBRANCH   7  12
BRANCH   1  19
ATOM     18  S   UNL     1       1.389  15.683  19.911  0.00  0.00    +0.000 S 
ATOM     19  C   UNL     1       0.798  14.145  19.611  0.00  0.00    +0.000 C 
BRANCH  19  20
ATOM     20  N   UNL     1      -0.534  13.886  19.353  0.00  0.00    +0.000 N 
ATOM     21  H   UNL     1      -0.669  13.534  18.415  0.00  0.00    +0.000 HD
BRANCH  20  22
ATOM     22  C   UNL     1      -1.577  13.551  20.314  0.00  0.00    +0.000 C 
BRANCH  22  23
ATOM     23  C   UNL     1      -2.556  12.520  19.744  0.00  0.00    +0.000 C 
BRANCH  23  24
ATOM     24  C   UNL     1      -2.120  11.948  18.384  0.00  0.00    +0.000 C 
BRANCH  24  25
ATOM     25  N   UNL     1      -2.762  10.655  18.088  0.00  0.00    +0.000 NA
ATOM     26  C   UNL     1      -2.241   9.986  16.877  0.00  0.00    +0.000 C 
ATOM     27  C   UNL     1      -2.717  10.606  15.554  0.00  0.00    +0.000 C 
ATOM     28  O   UNL     1      -4.147  10.649  15.488  0.00  0.00    +0.000 OA
ATOM     29  C   UNL     1      -4.683  11.385  16.594  0.00  0.00    +0.000 C 
ATOM     30  C   UNL     1      -4.231  10.791  17.938  0.00  0.00    +0.000 C 
ENDBRANCH  24  25
ENDBRANCH  23  24
ENDBRANCH  22  23
ENDBRANCH  20  22
ENDBRANCH  19  20
ENDBRANCH   1  19
TORSDOF 7
ENDMDL
MODEL 3
REMARK VINA RESULT:      -6.7      4.770     10.700
REMARK  Name = 
REMARK  7 active torsions:
REMARK  status: ('A' for Active; 'I' for Inactive)
REMARK    1  A    between atoms: C_2  and  N_3
REMARK    2  A    between atoms: C_2  and  N_13
REMARK    3  A    between atoms: N_3  and  C_4
REMARK    4  A    between atoms: C_4  and  C_5
REMARK    5  A    between atoms: C_5  and  C_6
REMARK    6  A    between atoms: C_6  and  N_7
REMARK    7  A    between atoms: C_19  and  C_20
REMARK                            x       y       z     vdW  Elec       q    Type
REMARK                         _______ _______ _______ _____ _____    ______ ____
ROOT
ATOM      1  N   UNL     1      -1.073  11.177  21.369  0.00  0.00    +0.000 N 
ATOM      2  C   UNL     1      -1.096  10.895  19.917  0.00  0.00    +0.000 C 
ATOM      3  C   UNL     1       0.335  10.746  19.344  0.00  0.00    +0.000 C 
ATOM      4  N   UNL     1       1.108   9.778  20.127  0.00  0.00    +0.000 N 
ATOM      5  C   UNL     1       1.645   8.648  19.595  0.00  0.00    +0.000 A 
ATOM      6  N   UNL     1       1.812   7.524  20.259  0.00  0.00    +0.000 NA
ATOM      7  C   UNL     1       2.359   6.532  19.453  0.00  0.00    +0.000 A 
ATOM      8  C   UNL     1       2.705   6.954  18.187  0.00  0.00    +0.000 A 
ATOM      9  S   UNL     1       2.235   8.579  17.963  0.00  0.00    +0.000 S 
ATOM     10  C   UNL     1       1.112   9.986  21.581  0.00  0.00    +0.000 C 
ATOM     11  C   UNL     1      -0.324  10.141  22.115  0.00  0.00    +0.000 C 
ENDROOT
BRANCH   7  12
ATOM     12  C   UNL     1       2.535   5.165  19.938  0.00  0.00    +0.000 A 
ATOM     13  C   UNL     1       1.753   4.647  20.983  0.00  0.00    +0.000 A 
ATOM     14  C   UNL     1       1.963   3.350  21.461  0.00  0.00    +0.000 A 
ATOM     15  C   UNL     1       2.959   2.554  20.901  0.00  0.00    +0.000 A 
ATOM     16  C   UNL     1       3.743   3.052  19.863  0.00  0.00    +0.000 A 
ATOM     17  C   UNL     1       3.534   4.350  19.385  0.00  0.00    +0.000 A 
ENDBRANCH   7  12
BRANCH   1  19
ATOM     18  S   UNL     1      -0.197  13.714  21.899  0.00  0.00    +0.000 S 
ATOM     19  C   UNL     1      -1.314  12.466  21.865  0.00  0.00    +0.000 C 
BRANCH  19  20
ATOM     20  N   UNL     1      -2.606  12.598  22.334  0.00  0.00    +0.000 N 
ATOM     21  H   UNL     1      -2.770  12.011  23.140  0.00  0.00    +0.000 HD
BRANCH  20  22
ATOM     22  C   UNL     1      -3.489  13.749  22.194  0.00  0.00    +0.000 C 
BRANCH  22  23
ATOM     23  C   UNL     1      -4.049  13.859  20.772  0.00  0.00    +0.000 C 
BRANCH  23  24
ATOM     24  C   UNL     1      -4.626  12.537  20.237  0.00  0.00    +0.000 C 
BRANCH  24  25
ATOM     25  N   UNL     1      -6.094  12.481  20.346  0.00  0.00    +0.000 NA
ATOM     26  C   UNL     1      -6.702  11.295  19.705  0.00  0.00    +0.000 C 
ATOM     27  C   UNL     1      -6.746  11.356  18.170  0.00  0.00    +0.000 C 
ATOM     28  O   UNL     1      -7.425  12.534  17.718  0.00  0.00    +0.000 OA
ATOM     29  C   UNL     1      -6.795  13.711  18.236  0.00  0.00    +0.000 C 
ATOM     30  C   UNL     1      -6.735  13.689  19.772  0.00  0.00    +0.000 C 
ENDBRANCH  24  25
ENDBRANCH  23  24
ENDBRANCH  22  23
ENDBRANCH  20  22
ENDBRANCH  19  20
ENDBRANCH   1  19
TORSDOF 7
ENDMDL
MODEL 4
REMARK VINA RESULT:      -6.7      5.469     11.171
REMARK  Name = 
REMARK  7 active torsions:
REMARK  status: ('A' for Active; 'I' for Inactive)
REMARK    1  A    between atoms: C_2  and  N_3
REMARK    2  A    between atoms: C_2  and  N_13
REMARK    3  A    between atoms: N_3  and  C_4
REMARK    4  A    between atoms: C_4  and  C_5
REMARK    5  A    between atoms: C_5  and  C_6
REMARK    6  A    between atoms: C_6  and  N_7
REMARK    7  A    between atoms: C_19  and  C_20
REMARK                            x       y       z     vdW  Elec       q    Type
REMARK                         _______ _______ _______ _____ _____    ______ ____
ROOT
ATOM      1  N   UNL     1      -1.201  11.430  21.181  0.00  0.00    +0.000 N 
ATOM      2  C   UNL     1      -1.169  11.147  19.729  0.00  0.00    +0.000 C 
ATOM      3  C   UNL     1       0.282  10.988  19.213  0.00  0.00    +0.000 C 
ATOM      4  N   UNL     1       1.017  10.015  20.026  0.00  0.00    +0.000 N 
ATOM      5  C   UNL     1       1.567   8.882  19.516  0.00  0.00    +0.000 A 
ATOM      6  N   UNL     1       1.700   7.756  20.187  0.00  0.00    +0.000 NA
ATOM      7  C   UNL     1       2.272   6.761  19.404  0.00  0.00    +0.000 A 
ATOM      8  C   UNL     1       2.671   7.179  18.152  0.00  0.00    +0.000 A 
ATOM      9  S   UNL     1       2.221   8.807  17.909  0.00  0.00    +0.000 S 
ATOM     10  C   UNL     1       0.966  10.224  21.479  0.00  0.00    +0.000 C 
ATOM     11  C   UNL     1      -0.489  10.389  21.956  0.00  0.00    +0.000 C 
ENDROOT
BRANCH   7  12
ATOM     12  C   UNL     1       2.419   5.393  19.895  0.00  0.00    +0.000 A 
ATOM     13  C   UNL     1       3.530   4.603  19.554  0.00  0.00    +0.000 A 
ATOM     14  C   UNL     1       3.635   3.282  20.000  0.00  0.00    +0.000 A 
ATOM     15  C   UNL     1       2.630   2.732  20.792  0.00  0.00    +0.000 A 
ATOM     16  C   UNL     1       1.522   3.502  21.140  0.00  0.00    +0.000 A 
ATOM     17  C   UNL     1       1.417   4.823  20.693  0.00  0.00    +0.000 A 
ENDBRANCH   7  12
BRANCH   1  19
ATOM     18  S   UNL     1      -0.282  13.829  22.120  0.00  0.00    +0.000 S 
ATOM     19  C   UNL     1      -1.453  12.721  21.666  0.00  0.00    +0.000 C 
BRANCH  19  20
ATOM     20  N   UNL     1      -2.807  12.986  21.730  0.00  0.00    +0.000 N 
ATOM     21  H   UNL     1      -3.169  12.847  22.664  0.00  0.00    +0.000 HD
BRANCH  20  22
ATOM     22  C   UNL     1      -3.580  13.877  20.874  0.00  0.00    +0.000 C 
BRANCH  22  23
ATOM     23  C   UNL     1      -4.871  13.209  20.388  0.00  0.00    +0.000 C 
BRANCH  23  24
ATOM     24  C   UNL     1      -5.675  12.538  21.515  0.00  0.00    +0.000 C 
BRANCH  24  25
ATOM     25  N   UNL     1      -7.038  13.085  21.633  0.00  0.00    +0.000 NA
ATOM     26  C   UNL     1      -7.090  14.560  21.737  0.00  0.00    +0.000 C 
ATOM     27  C   UNL     1      -6.672  15.114  23.108  0.00  0.00    +0.000 C 
ATOM     28  O   UNL     1      -7.458  14.541  24.160  0.00  0.00    +0.000 OA
ATOM     29  C   UNL     1      -7.345  13.113  24.155  0.00  0.00    +0.000 C 
ATOM     30  C   UNL     1      -7.760  12.520  22.798  0.00  0.00    +0.000 C 
ENDBRANCH  24  25
ENDBRANCH  23  24
ENDBRANCH  22  23
ENDBRANCH  20  22
ENDBRANCH  19  20
ENDBRANCH   1  19
TORSDOF 7
ENDMDL
MODEL 5
REMARK VINA RESULT:      -6.6      3.616      5.350
REMARK  Name = 
REMARK  7 active torsions:
REMARK  status: ('A' for Active; 'I' for Inactive)
REMARK    1  A    between atoms: C_2  and  N_3
REMARK    2  A    between atoms: C_2  and  N_13
REMARK    3  A    between atoms: N_3  and  C_4
REMARK    4  A    between atoms: C_4  and  C_5
REMARK    5  A    between atoms: C_5  and  C_6
REMARK    6  A    between atoms: C_6  and  N_7
REMARK    7  A    between atoms: C_19  and  C_20
REMARK                            x       y       z     vdW  Elec       q    Type
REMARK                         _______ _______ _______ _____ _____    ______ ____
ROOT
ATOM      1  N   UNL     1       1.845   8.577  20.031  0.00  0.00    +0.000 N 
ATOM      2  C   UNL     1       1.567   9.668  19.071  0.00  0.00    +0.000 C 
ATOM      3  C   UNL     1       0.047   9.926  18.928  0.00  0.00    +0.000 C 
ATOM      4  N   UNL     1      -0.571  10.117  20.243  0.00  0.00    +0.000 N 
ATOM      5  C   UNL     1      -1.229  11.253  20.598  0.00  0.00    +0.000 A 
ATOM      6  N   UNL     1      -1.281  11.725  21.827  0.00  0.00    +0.000 NA
ATOM      7  C   UNL     1      -2.001  12.912  21.887  0.00  0.00    +0.000 A 
ATOM      8  C   UNL     1      -2.588  13.283  20.696  0.00  0.00    +0.000 A 
ATOM      9  S   UNL     1      -2.139  12.196  19.459  0.00  0.00    +0.000 S 
ATOM     10  C   UNL     1      -0.276   9.088  21.248  0.00  0.00    +0.000 C 
ATOM     11  C   UNL     1       1.242   8.849  21.356  0.00  0.00    +0.000 C 
ENDROOT
BRANCH   7  12
ATOM     12  C   UNL     1      -2.104  13.682  23.125  0.00  0.00    +0.000 A 
ATOM     13  C   UNL     1      -3.262  13.648  23.919  0.00  0.00    +0.000 A 
ATOM     14  C   UNL     1      -3.359  14.423  25.079  0.00  0.00    +0.000 A 
ATOM     15  C   UNL     1      -2.299  15.242  25.460  0.00  0.00    +0.000 A 
ATOM     16  C   UNL     1      -1.143  15.286  24.683  0.00  0.00    +0.000 A 
ATOM     17  C   UNL     1      -1.047  14.512  23.522  0.00  0.00    +0.000 A 
ENDBRANCH   7  12
BRANCH   1  19
ATOM     18  S   UNL     1       2.660   6.900  18.031  0.00  0.00    +0.000 S 
ATOM     19  C   UNL     1       2.209   7.296  19.594  0.00  0.00    +0.000 C 
BRANCH  19  20
ATOM     20  N   UNL     1       2.153   6.373  20.620  0.00  0.00    +0.000 N 
ATOM     21  H   UNL     1       2.492   6.763  21.489  0.00  0.00    +0.000 HD
BRANCH  20  22
ATOM     22  C   UNL     1       1.253   5.233  20.742  0.00  0.00    +0.000 C 
BRANCH  22  23
ATOM     23  C   UNL     1       2.018   3.907  20.703  0.00  0.00    +0.000 C 
BRANCH  23  24
ATOM     24  C   UNL     1       2.056   3.263  19.306  0.00  0.00    +0.000 C 
BRANCH  24  25
ATOM     25  N   UNL     1       3.283   2.476  19.086  0.00  0.00    +0.000 NA
ATOM     26  C   UNL     1       4.476   3.013  19.773  0.00  0.00    +0.000 C 
ATOM     27  C   UNL     1       5.077   4.266  19.116  0.00  0.00    +0.000 C 
ATOM     28  O   UNL     1       5.394   4.028  17.740  0.00  0.00    +0.000 OA
ATOM     29  C   UNL     1       4.232   3.606  17.018  0.00  0.00    +0.000 C 
ATOM     30  C   UNL     1       3.604   2.350  17.643  0.00  0.00    +0.000 C 
ENDBRANCH  24  25
ENDBRANCH  23  24
ENDBRANCH  22  23
ENDBRANCH  20  22
ENDBRANCH  19  20
ENDBRANCH   1  19
TORSDOF 7
ENDMDL
MODEL 6
REMARK VINA RESULT:      -6.6      3.191      4.271
REMARK  Name = 
REMARK  7 active torsions:
REMARK  status: ('A' for Active; 'I' for Inactive)
REMARK    1  A    between atoms: C_2  and  N_3
REMARK    2  A    between atoms: C_2  and  N_13
REMARK    3  A    between atoms: N_3  and  C_4
REMARK    4  A    between atoms: C_4  and  C_5
REMARK    5  A    between atoms: C_5  and  C_6
REMARK    6  A    between atoms: C_6  and  N_7
REMARK    7  A    between atoms: C_19  and  C_20
REMARK                            x       y       z     vdW  Elec       q    Type
REMARK                         _______ _______ _______ _____ _____    ______ ____
ROOT
ATOM      1  N   UNL     1       1.930   7.937  20.125  0.00  0.00    +0.000 N 
ATOM      2  C   UNL     1       1.896   8.993  19.090  0.00  0.00    +0.000 C 
ATOM      3  C   UNL     1       0.447   9.441  18.782  0.00  0.00    +0.000 C 
ATOM      4  N   UNL     1      -0.259   9.795  20.016  0.00  0.00    +0.000 N 
ATOM      5  C   UNL     1      -0.784  11.027  20.248  0.00  0.00    +0.000 A 
ATOM      6  N   UNL     1      -0.884  11.577  21.440  0.00  0.00    +0.000 NA
ATOM      7  C   UNL     1      -1.436  12.851  21.369  0.00  0.00    +0.000 A 
ATOM      8  C   UNL     1      -1.852  13.222  20.108  0.00  0.00    +0.000 A 
ATOM      9  S   UNL     1      -1.445  12.010  18.977  0.00  0.00    +0.000 S 
ATOM     10  C   UNL     1      -0.204   8.799  21.095  0.00  0.00    +0.000 C 
ATOM     11  C   UNL     1       1.249   8.368  21.367  0.00  0.00    +0.000 C 
ENDROOT
BRANCH   7  12
ATOM     12  C   UNL     1      -1.546  13.703  22.551  0.00  0.00    +0.000 A 
ATOM     13  C   UNL     1      -2.636  13.604  23.431  0.00  0.00    +0.000 A 
ATOM     14  C   UNL     1      -2.746  14.455  24.535  0.00  0.00    +0.000 A 
ATOM     15  C   UNL     1      -1.769  15.418  24.773  0.00  0.00    +0.000 A 
ATOM     16  C   UNL     1      -0.681  15.529  23.909  0.00  0.00    +0.000 A 
ATOM     17  C   UNL     1      -0.571  14.678  22.804  0.00  0.00    +0.000 A 
ENDBRANCH   7  12
BRANCH   1  19
ATOM     18  S   UNL     1       1.599   5.275  20.661  0.00  0.00    +0.000 S 
ATOM     19  C   UNL     1       2.153   6.594  19.790  0.00  0.00    +0.000 C 
BRANCH  19  20
ATOM     20  N   UNL     1       2.897   6.475  18.633  0.00  0.00    +0.000 N 
ATOM     21  H   UNL     1       3.572   7.222  18.547  0.00  0.00    +0.000 HD
BRANCH  20  22
ATOM     22  C   UNL     1       3.200   5.256  17.892  0.00  0.00    +0.000 C 
BRANCH  22  23
ATOM     23  C   UNL     1       4.303   4.442  18.576  0.00  0.00    +0.000 C 
BRANCH  23  24
ATOM     24  C   UNL     1       5.430   5.310  19.163  0.00  0.00    +0.000 C 
BRANCH  24  25
ATOM     25  N   UNL     1       6.758   4.922  18.656  0.00  0.00    +0.000 NA
ATOM     26  C   UNL     1       7.802   5.951  18.851  0.00  0.00    +0.000 C 
ATOM     27  C   UNL     1       7.704   7.145  17.889  0.00  0.00    +0.000 C 
ATOM     28  O   UNL     1       7.720   6.713  16.524  0.00  0.00    +0.000 OA
ATOM     29  C   UNL     1       6.651   5.794  16.272  0.00  0.00    +0.000 C 
ATOM     30  C   UNL     1       6.718   4.580  17.213  0.00  0.00    +0.000 C 
ENDBRANCH  24  25
ENDBRANCH  23  24
ENDBRANCH  22  23
ENDBRANCH  20  22
ENDBRANCH  19  20
ENDBRANCH   1  19
TORSDOF 7
ENDMDL
MODEL 7
REMARK VINA RESULT:      -6.6      4.551     10.438
REMARK  Name = 
REMARK  7 active torsions:
REMARK  status: ('A' for Active; 'I' for Inactive)
REMARK    1  A    between atoms: C_2  and  N_3
REMARK    2  A    between atoms: C_2  and  N_13
REMARK    3  A    between atoms: N_3  and  C_4
REMARK    4  A    between atoms: C_4  and  C_5
REMARK    5  A    between atoms: C_5  and  C_6
REMARK    6  A    between atoms: C_6  and  N_7
REMARK    7  A    between atoms: C_19  and  C_20
REMARK                            x       y       z     vdW  Elec       q    Type
REMARK                         _______ _______ _______ _____ _____    ______ ____
ROOT
ATOM      1  N   UNL     1      -1.124  11.183  21.665  0.00  0.00    +0.000 N 
ATOM      2  C   UNL     1      -1.152  11.018  20.195  0.00  0.00    +0.000 C 
ATOM      3  C   UNL     1       0.277  10.917  19.607  0.00  0.00    +0.000 C 
ATOM      4  N   UNL     1       1.053   9.890  20.307  0.00  0.00    +0.000 N 
ATOM      5  C   UNL     1       1.589   8.807  19.683  0.00  0.00    +0.000 A 
ATOM      6  N   UNL     1       1.759   7.633  20.255  0.00  0.00    +0.000 NA
ATOM      7  C   UNL     1       2.304   6.710  19.369  0.00  0.00    +0.000 A 
ATOM      8  C   UNL     1       2.646   7.233  18.140  0.00  0.00    +0.000 A 
ATOM      9  S   UNL     1       2.174   8.871  18.049  0.00  0.00    +0.000 S 
ATOM     10  C   UNL     1       1.063   9.980  21.773  0.00  0.00    +0.000 C 
ATOM     11  C   UNL     1      -0.372  10.090  22.323  0.00  0.00    +0.000 C 
ENDROOT
BRANCH   7  12
ATOM     12  C   UNL     1       2.483   5.308  19.741  0.00  0.00    +0.000 A 
ATOM     13  C   UNL     1       1.998   4.801  20.958  0.00  0.00    +0.000 A 
ATOM     14  C   UNL     1       2.214   3.467  21.316  0.00  0.00    +0.000 A 
ATOM     15  C   UNL     1       2.918   2.622  20.462  0.00  0.00    +0.000 A 
ATOM     16  C   UNL     1       3.405   3.109  19.250  0.00  0.00    +0.000 A 
ATOM     17  C   UNL     1       3.190   4.444  18.893  0.00  0.00    +0.000 A 
ENDBRANCH   7  12
BRANCH   1  19
ATOM     18  S   UNL     1      -0.568  13.852  21.887  0.00  0.00    +0.000 S 
ATOM     19  C   UNL     1      -1.364  12.427  22.264  0.00  0.00    +0.000 C 
BRANCH  19  20
ATOM     20  N   UNL     1      -2.354  12.348  23.224  0.00  0.00    +0.000 N 
ATOM     21  H   UNL     1      -1.973  12.413  24.158  0.00  0.00    +0.000 HD
BRANCH  20  22
ATOM     22  C   UNL     1      -3.759  12.710  23.084  0.00  0.00    +0.000 C 
BRANCH  22  23
ATOM     23  C   UNL     1      -4.161  12.841  21.611  0.00  0.00    +0.000 C 
BRANCH  23  24
ATOM     24  C   UNL     1      -5.587  12.341  21.319  0.00  0.00    +0.000 C 
BRANCH  24  25
ATOM     25  N   UNL     1      -6.100  12.832  20.028  0.00  0.00    +0.000 NA
ATOM     26  C   UNL     1      -7.276  12.091  19.525  0.00  0.00    +0.000 C 
ATOM     27  C   UNL     1      -6.953  10.703  18.949  0.00  0.00    +0.000 C 
ATOM     28  O   UNL     1      -5.972  10.789  17.910  0.00  0.00    +0.000 OA
ATOM     29  C   UNL     1      -4.775  11.409  18.394  0.00  0.00    +0.000 C 
ATOM     30  C   UNL     1      -5.057  12.804  18.974  0.00  0.00    +0.000 C 
ENDBRANCH  24  25
ENDBRANCH  23  24
ENDBRANCH  22  23
ENDBRANCH  20  22
ENDBRANCH  19  20
ENDBRANCH   1  19
TORSDOF 7
ENDMDL
MODEL 8
REMARK VINA RESULT:      -6.6      4.372     10.016
REMARK  Name = 
REMARK  7 active torsions:
REMARK  status: ('A' for Active; 'I' for Inactive)
REMARK    1  A    between atoms: C_2  and  N_3
REMARK    2  A    between atoms: C_2  and  N_13
REMARK    3  A    between atoms: N_3  and  C_4
REMARK    4  A    between atoms: C_4  and  C_5
REMARK    5  A    between atoms: C_5  and  C_6
REMARK    6  A    between atoms: C_6  and  N_7
REMARK    7  A    between atoms: C_19  and  C_20
REMARK                            x       y       z     vdW  Elec       q    Type
REMARK                         _______ _______ _______ _____ _____    ______ ____
ROOT
ATOM      1  N   UNL     1       1.281  11.290  19.283  0.00  0.00    +0.000 N 
ATOM      2  C   UNL     1       1.352  10.505  20.535  0.00  0.00    +0.000 C 
ATOM      3  C   UNL     1       0.847   9.056  20.328  0.00  0.00    +0.000 C 
ATOM      4  N   UNL     1       1.529   8.429  19.192  0.00  0.00    +0.000 N 
ATOM      5  C   UNL     1       2.274   7.297  19.304  0.00  0.00    +0.000 A 
ATOM      6  N   UNL     1       3.321   7.023  18.553  0.00  0.00    +0.000 NA
ATOM      7  C   UNL     1       3.899   5.810  18.909  0.00  0.00    +0.000 A 
ATOM      8  C   UNL     1       3.209   5.112  19.877  0.00  0.00    +0.000 A 
ATOM      9  S   UNL     1       1.885   6.036  20.433  0.00  0.00    +0.000 S 
ATOM     10  C   UNL     1       1.534   9.198  17.942  0.00  0.00    +0.000 C 
ATOM     11  C   UNL     1       2.029  10.636  18.186  0.00  0.00    +0.000 C 
ENDROOT
BRANCH   7  12
ATOM     12  C   UNL     1       5.138   5.344  18.291  0.00  0.00    +0.000 A 
ATOM     13  C   UNL     1       6.382   5.508  18.921  0.00  0.00    +0.000 A 
ATOM     14  C   UNL     1       7.563   5.093  18.297  0.00  0.00    +0.000 A 
ATOM     15  C   UNL     1       7.515   4.510  17.033  0.00  0.00    +0.000 A 
ATOM     16  C   UNL     1       6.289   4.340  16.394  0.00  0.00    +0.000 A 
ATOM     17  C   UNL     1       5.108   4.756  17.019  0.00  0.00    +0.000 A 
ENDBRANCH   7  12
BRANCH   1  19
ATOM     18  S   UNL     1       0.113  13.685  19.902  0.00  0.00    +0.000 S 
ATOM     19  C   UNL     1       0.270  12.238  19.073  0.00  0.00    +0.000 C 
BRANCH  19  20
ATOM     20  N   UNL     1      -0.605  11.838  18.082  0.00  0.00    +0.000 N 
ATOM     21  H   UNL     1      -0.127  11.681  17.206  0.00  0.00    +0.000 HD
BRANCH  20  22
ATOM     22  C   UNL     1      -1.878  11.146  18.246  0.00  0.00    +0.000 C 
BRANCH  22  23
ATOM     23  C   UNL     1      -3.028  12.132  18.477  0.00  0.00    +0.000 C 
BRANCH  23  24
ATOM     24  C   UNL     1      -4.277  11.481  19.095  0.00  0.00    +0.000 C 
BRANCH  24  25
ATOM     25  N   UNL     1      -5.254  11.062  18.075  0.00  0.00    +0.000 NA
ATOM     26  C   UNL     1      -5.517  12.083  17.038  0.00  0.00    +0.000 C 
ATOM     27  C   UNL     1      -6.399  13.252  17.506  0.00  0.00    +0.000 C 
ATOM     28  O   UNL     1      -7.646  12.782  18.029  0.00  0.00    +0.000 OA
ATOM     29  C   UNL     1      -7.429  11.869  19.111  0.00  0.00    +0.000 C 
ATOM     30  C   UNL     1      -6.554  10.681  18.680  0.00  0.00    +0.000 C 
ENDBRANCH  24  25
ENDBRANCH  23  24
ENDBRANCH  22  23
ENDBRANCH  20  22
ENDBRANCH  19  20
ENDBRANCH   1  19
TORSDOF 7
ENDMDL
MODEL 9
REMARK VINA RESULT:      -6.5      4.921     10.796
REMARK  Name = 
REMARK  7 active torsions:
REMARK  status: ('A' for Active; 'I' for Inactive)
REMARK    1  A    between atoms: C_2  and  N_3
REMARK    2  A    between atoms: C_2  and  N_13
REMARK    3  A    between atoms: N_3  and  C_4
REMARK    4  A    between atoms: C_4  and  C_5
REMARK    5  A    between atoms: C_5  and  C_6
REMARK    6  A    between atoms: C_6  and  N_7
REMARK    7  A    between atoms: C_19  and  C_20
REMARK                            x       y       z     vdW  Elec       q    Type
REMARK                         _______ _______ _______ _____ _____    ______ ____
ROOT
ATOM      1  N   UNL     1      -1.137  11.216  21.675  0.00  0.00    +0.000 N 
ATOM      2  C   UNL     1      -1.168  11.083  20.202  0.00  0.00    +0.000 C 
ATOM      3  C   UNL     1       0.259  10.991  19.609  0.00  0.00    +0.000 C 
ATOM      4  N   UNL     1       1.034   9.947  20.284  0.00  0.00    +0.000 N 
ATOM      5  C   UNL     1       1.565   8.876  19.636  0.00  0.00    +0.000 A 
ATOM      6  N   UNL     1       1.732   7.689  20.181  0.00  0.00    +0.000 NA
ATOM      7  C   UNL     1       2.272   6.784  19.274  0.00  0.00    +0.000 A 
ATOM      8  C   UNL     1       2.613   7.333  18.056  0.00  0.00    +0.000 A 
ATOM      9  S   UNL     1       2.146   8.973  18.002  0.00  0.00    +0.000 S 
ATOM     10  C   UNL     1       1.046  10.004  21.751  0.00  0.00    +0.000 C 
ATOM     11  C   UNL     1      -0.386  10.107  22.307  0.00  0.00    +0.000 C 
ENDROOT
BRANCH   7  12
ATOM     12  C   UNL     1       2.447   5.374  19.615  0.00  0.00    +0.000 A 
ATOM     13  C   UNL     1       2.045   4.861  20.859  0.00  0.00    +0.000 A 
ATOM     14  C   UNL     1       2.258   3.518  21.184  0.00  0.00    +0.000 A 
ATOM     15  C   UNL     1       2.877   2.669  20.269  0.00  0.00    +0.000 A 
ATOM     16  C   UNL     1       3.281   3.162  19.030  0.00  0.00    +0.000 A 
ATOM     17  C   UNL     1       3.069   4.507  18.706  0.00  0.00    +0.000 A 
ENDBRANCH   7  12
BRANCH   1  19
ATOM     18  S   UNL     1      -0.427  13.819  22.123  0.00  0.00    +0.000 S 
ATOM     19  C   UNL     1      -1.372  12.448  22.302  0.00  0.00    +0.000 C 
BRANCH  19  20
ATOM     20  N   UNL     1      -2.496  12.405  23.102  0.00  0.00    +0.000 N 
ATOM     21  H   UNL     1      -2.724  11.458  23.373  0.00  0.00    +0.000 HD
BRANCH  20  22
ATOM     22  C   UNL     1      -3.007  13.456  23.973  0.00  0.00    +0.000 C 
BRANCH  22  23
ATOM     23  C   UNL     1      -4.242  14.134  23.371  0.00  0.00    +0.000 C 
BRANCH  23  24
ATOM     24  C   UNL     1      -5.296  13.139  22.856  0.00  0.00    +0.000 C 
BRANCH  24  25
ATOM     25  N   UNL     1      -5.052  12.737  21.459  0.00  0.00    +0.000 NA
ATOM     26  C   UNL     1      -4.656  13.852  20.572  0.00  0.00    +0.000 C 
ATOM     27  C   UNL     1      -5.807  14.790  20.176  0.00  0.00    +0.000 C 
ATOM     28  O   UNL     1      -6.880  14.064  19.567  0.00  0.00    +0.000 OA
ATOM     29  C   UNL     1      -7.362  13.041  20.446  0.00  0.00    +0.000 C 
ATOM     30  C   UNL     1      -6.238  12.078  20.860  0.00  0.00    +0.000 C 
ENDBRANCH  24  25
ENDBRANCH  23  24
ENDBRANCH  22  23
ENDBRANCH  20  22
ENDBRANCH  19  20
ENDBRANCH   1  19
TORSDOF 7
ENDMDL
