MODEL 1
REMARK VINA RESULT:      -6.8      0.000      0.000
REMARK  Name = 
REMARK  2 active torsions:
REMARK  status: ('A' for Active; 'I' for Inactive)
REMARK    1  A    between atoms: C_2  and  C_4
REMARK    2  A    between atoms: C_8  and  C_9
REMARK                            x       y       z     vdW  Elec       q    Type
REMARK                         _______ _______ _______ _____ _____    ______ ____
ROOT
ATOM      1  C   UNL     1       2.840   2.709  19.208  0.00  0.00    +0.000 A 
ATOM      2  C   UNL     1       1.803   2.215  19.984  0.00  0.00    +0.000 A 
ATOM      3  S   UNL     1       1.412   3.218  21.309  0.00  0.00    +0.000 S 
ATOM      4  C   UNL     1       2.615   4.346  20.866  0.00  0.00    +0.000 A 
ATOM      5  C   UNL     1       3.311   3.961  19.738  0.00  0.00    +0.000 A 
ENDROOT
BRANCH   5   6
ATOM      6  C   UNL     1       4.397   4.748  19.155  0.00  0.00    +0.000 A 
ATOM      7  C   UNL     1       4.314   5.641  18.096  0.00  0.00    +0.000 A 
ATOM      8  N   UNL     1       5.565   6.114  17.992  0.00  0.00    +0.000 N 
ATOM      9  C   UNL     1       6.353   5.542  18.935  0.00  0.00    +0.000 A 
ATOM     10  N   UNL     1       5.683   4.695  19.672  0.00  0.00    +0.000 NA
ATOM     11  C   UNL     1       7.737   6.041  18.866  0.00  0.00    +0.000 C 
ATOM     12  C   UNL     1       7.690   7.034  17.674  0.00  0.00    +0.000 C 
ATOM     13  C   UNL     1       6.243   7.069  17.149  0.00  0.00    +0.000 C 
ENDBRANCH   5   6
BRANCH   1  15
ATOM     14  F   UNL     1       3.856   0.784  18.310  0.00  0.00    +0.000 F 
ATOM     15  C   UNL     1       3.367   2.020  17.989  0.00  0.00    +0.000 C 
ATOM     16  F   UNL     1       2.380   1.788  17.081  0.00  0.00    +0.000 F 
ENDBRANCH   1  15
TORSDOF 2
ENDMDL
MODEL 2
REMARK VINA RESULT:      -6.6      2.801      3.439
REMARK  Name = 
REMARK  2 active torsions:
REMARK  status: ('A' for Active; 'I' for Inactive)
REMARK    1  A    between atoms: C_2  and  C_4
REMARK    2  A    between atoms: C_8  and  C_9
REMARK                            x       y       z     vdW  Elec       q    Type
REMARK                         _______ _______ _______ _____ _____    ______ ____
ROOT
ATOM      1  C   UNL     1       2.509   5.011  19.979  0.00  0.00    +0.000 A 
ATOM      2  C   UNL     1       1.682   4.498  20.967  0.00  0.00    +0.000 A 
ATOM      3  S   UNL     1       1.864   2.817  21.195  0.00  0.00    +0.000 S 
ATOM      4  C   UNL     1       3.064   2.737  19.985  0.00  0.00    +0.000 A 
ATOM      5  C   UNL     1       3.315   3.966  19.407  0.00  0.00    +0.000 A 
ENDROOT
BRANCH   5   6
ATOM      6  C   UNL     1       4.295   4.169  18.340  0.00  0.00    +0.000 A 
ATOM      7  C   UNL     1       5.648   4.437  18.482  0.00  0.00    +0.000 A 
ATOM      8  N   UNL     1       6.087   4.491  17.215  0.00  0.00    +0.000 N 
ATOM      9  C   UNL     1       5.058   4.265  16.362  0.00  0.00    +0.000 A 
ATOM     10  N   UNL     1       3.937   4.064  17.004  0.00  0.00    +0.000 NA
ATOM     11  C   UNL     1       5.495   4.303  14.956  0.00  0.00    +0.000 C 
ATOM     12  C   UNL     1       7.010   4.622  15.072  0.00  0.00    +0.000 C 
ATOM     13  C   UNL     1       7.359   4.711  16.569  0.00  0.00    +0.000 C 
ENDBRANCH   5   6
BRANCH   1  15
ATOM     14  F   UNL     1       2.051   6.626  18.327  0.00  0.00    +0.000 F 
ATOM     15  C   UNL     1       2.544   6.456  19.592  0.00  0.00    +0.000 C 
ATOM     16  F   UNL     1       1.738   7.206  20.392  0.00  0.00    +0.000 F 
ENDBRANCH   1  15
TORSDOF 2
ENDMDL
MODEL 3
REMARK VINA RESULT:      -6.6      2.704      3.164
REMARK  Name = 
REMARK  2 active torsions:
REMARK  status: ('A' for Active; 'I' for Inactive)
REMARK    1  A    between atoms: C_2  and  C_4
REMARK    2  A    between atoms: C_8  and  C_9
REMARK                            x       y       z     vdW  Elec       q    Type
REMARK                         _______ _______ _______ _____ _____    ______ ____
ROOT
ATOM      1  C   UNL     1       2.611   4.903  20.118  0.00  0.00    +0.000 A 
ATOM      2  C   UNL     1       1.872   4.426  21.191  0.00  0.00    +0.000 A 
ATOM      3  S   UNL     1       2.121   2.766  21.498  0.00  0.00    +0.000 S 
ATOM      4  C   UNL     1       3.235   2.648  20.211  0.00  0.00    +0.000 A 
ATOM      5  C   UNL     1       3.407   3.848  19.550  0.00  0.00    +0.000 A 
ENDROOT
BRANCH   5   6
ATOM      6  C   UNL     1       4.303   4.015  18.405  0.00  0.00    +0.000 A 
ATOM      7  C   UNL     1       3.963   3.984  17.061  0.00  0.00    +0.000 A 
ATOM      8  N   UNL     1       5.129   4.228  16.442  0.00  0.00    +0.000 N 
ATOM      9  C   UNL     1       6.111   4.398  17.361  0.00  0.00    +0.000 A 
ATOM     10  N   UNL     1       5.654   4.274  18.580  0.00  0.00    +0.000 NA
ATOM     11  C   UNL     1       7.410   4.680  16.727  0.00  0.00    +0.000 C 
ATOM     12  C   UNL     1       7.074   4.635  15.212  0.00  0.00    +0.000 C 
ATOM     13  C   UNL     1       5.565   4.361  15.073  0.00  0.00    +0.000 C 
ENDBRANCH   5   6
BRANCH   1  15
ATOM     14  F   UNL     1       2.044   6.399  18.391  0.00  0.00    +0.000 F 
ATOM     15  C   UNL     1       2.574   6.323  19.650  0.00  0.00    +0.000 C 
ATOM     16  F   UNL     1       1.756   7.083  20.427  0.00  0.00    +0.000 F 
ENDBRANCH   1  15
TORSDOF 2
ENDMDL
MODEL 4
REMARK VINA RESULT:      -6.4      3.560      5.581
REMARK  Name = 
REMARK  2 active torsions:
REMARK  status: ('A' for Active; 'I' for Inactive)
REMARK    1  A    between atoms: C_2  and  C_4
REMARK    2  A    between atoms: C_8  and  C_9
REMARK                            x       y       z     vdW  Elec       q    Type
REMARK                         _______ _______ _______ _____ _____    ______ ____
ROOT
ATOM      1  C   UNL     1       6.642   5.042  17.093  0.00  0.00    +0.000 A 
ATOM      2  C   UNL     1       7.228   5.109  15.837  0.00  0.00    +0.000 A 
ATOM      3  S   UNL     1       6.275   4.407  14.608  0.00  0.00    +0.000 S 
ATOM      4  C   UNL     1       5.048   4.008  15.726  0.00  0.00    +0.000 A 
ATOM      5  C   UNL     1       5.362   4.391  17.014  0.00  0.00    +0.000 A 
ENDROOT
BRANCH   5   6
ATOM      6  C   UNL     1       4.482   4.159  18.160  0.00  0.00    +0.000 A 
ATOM      7  C   UNL     1       4.455   3.046  18.987  0.00  0.00    +0.000 A 
ATOM      8  N   UNL     1       3.510   3.353  19.889  0.00  0.00    +0.000 N 
ATOM      9  C   UNL     1       3.001   4.581  19.620  0.00  0.00    +0.000 A 
ATOM     10  N   UNL     1       3.564   5.115  18.568  0.00  0.00    +0.000 NA
ATOM     11  C   UNL     1       1.965   4.968  20.594  0.00  0.00    +0.000 C 
ATOM     12  C   UNL     1       1.891   3.732  21.531  0.00  0.00    +0.000 C 
ATOM     13  C   UNL     1       2.937   2.711  21.047  0.00  0.00    +0.000 C 
ENDBRANCH   5   6
BRANCH   1  15
ATOM     14  F   UNL     1       8.282   4.771  18.762  0.00  0.00    +0.000 F 
ATOM     15  C   UNL     1       7.273   5.590  18.334  0.00  0.00    +0.000 C 
ATOM     16  F   UNL     1       7.864   6.794  18.103  0.00  0.00    +0.000 F 
ENDBRANCH   1  15
TORSDOF 2
ENDMDL
MODEL 5
REMARK VINA RESULT:      -6.4      3.098      5.449
REMARK  Name = 
REMARK  2 active torsions:
REMARK  status: ('A' for Active; 'I' for Inactive)
REMARK    1  A    between atoms: C_2  and  C_4
REMARK    2  A    between atoms: C_8  and  C_9
REMARK                            x       y       z     vdW  Elec       q    Type
REMARK                         _______ _______ _______ _____ _____    ______ ____
ROOT
ATOM      1  C   UNL     1       5.941   5.875  17.168  0.00  0.00    +0.000 A 
ATOM      2  C   UNL     1       7.202   6.452  17.151  0.00  0.00    +0.000 A 
ATOM      3  S   UNL     1       8.001   6.375  18.658  0.00  0.00    +0.000 S 
ATOM      4  C   UNL     1       6.682   5.555  19.365  0.00  0.00    +0.000 A 
ATOM      5  C   UNL     1       5.646   5.354  18.475  0.00  0.00    +0.000 A 
ENDROOT
BRANCH   5   6
ATOM      6  C   UNL     1       4.397   4.680  18.833  0.00  0.00    +0.000 A 
ATOM      7  C   UNL     1       4.015   3.389  18.502  0.00  0.00    +0.000 A 
ATOM      8  N   UNL     1       2.821   3.256  19.101  0.00  0.00    +0.000 N 
ATOM      9  C   UNL     1       2.507   4.401  19.756  0.00  0.00    +0.000 A 
ATOM     10  N   UNL     1       3.441   5.306  19.619  0.00  0.00    +0.000 NA
ATOM     11  C   UNL     1       1.207   4.299  20.441  0.00  0.00    +0.000 C 
ATOM     12  C   UNL     1       0.734   2.866  20.076  0.00  0.00    +0.000 C 
ATOM     13  C   UNL     1       1.834   2.211  19.220  0.00  0.00    +0.000 C 
ENDBRANCH   5   6
BRANCH   1  15
ATOM     14  F   UNL     1       4.922   7.043  15.395  0.00  0.00    +0.000 F 
ATOM     15  C   UNL     1       5.042   5.810  15.974  0.00  0.00    +0.000 C 
ATOM     16  F   UNL     1       5.560   5.009  15.003  0.00  0.00    +0.000 F 
ENDBRANCH   1  15
TORSDOF 2
ENDMDL
MODEL 6
REMARK VINA RESULT:      -6.3      3.576      5.531
REMARK  Name = 
REMARK  2 active torsions:
REMARK  status: ('A' for Active; 'I' for Inactive)
REMARK    1  A    between atoms: C_2  and  C_4
REMARK    2  A    between atoms: C_8  and  C_9
REMARK                            x       y       z     vdW  Elec       q    Type
REMARK                         _______ _______ _______ _____ _____    ______ ____
ROOT
ATOM      1  C   UNL     1       6.638   5.359  17.142  0.00  0.00    +0.000 A 
ATOM      2  C   UNL     1       7.261   5.335  15.903  0.00  0.00    +0.000 A 
ATOM      3  S   UNL     1       6.438   4.382  14.751  0.00  0.00    +0.000 S 
ATOM      4  C   UNL     1       5.220   3.988  15.880  0.00  0.00    +0.000 A 
ATOM      5  C   UNL     1       5.441   4.562  17.117  0.00  0.00    +0.000 A 
ENDROOT
BRANCH   5   6
ATOM      6  C   UNL     1       4.549   4.375  18.261  0.00  0.00    +0.000 A 
ATOM      7  C   UNL     1       3.579   5.253  18.722  0.00  0.00    +0.000 A 
ATOM      8  N   UNL     1       3.029   4.593  19.753  0.00  0.00    +0.000 N 
ATOM      9  C   UNL     1       3.632   3.387  19.901  0.00  0.00    +0.000 A 
ATOM     10  N   UNL     1       4.573   3.208  19.011  0.00  0.00    +0.000 NA
ATOM     11  C   UNL     1       3.052   2.620  21.016  0.00  0.00    +0.000 C 
ATOM     12  C   UNL     1       1.969   3.582  21.574  0.00  0.00    +0.000 C 
ATOM     13  C   UNL     1       1.972   4.850  20.700  0.00  0.00    +0.000 C 
ENDBRANCH   5   6
BRANCH   1  15
ATOM     14  F   UNL     1       7.931   5.322  19.110  0.00  0.00    +0.000 F 
ATOM     15  C   UNL     1       7.157   6.125  18.318  0.00  0.00    +0.000 C 
ATOM     16  F   UNL     1       7.977   7.139  17.930  0.00  0.00    +0.000 F 
ENDBRANCH   1  15
TORSDOF 2
ENDMDL
MODEL 7
REMARK VINA RESULT:      -6.3      2.162      2.655
REMARK  Name = 
REMARK  2 active torsions:
REMARK  status: ('A' for Active; 'I' for Inactive)
REMARK    1  A    between atoms: C_2  and  C_4
REMARK    2  A    between atoms: C_8  and  C_9
REMARK                            x       y       z     vdW  Elec       q    Type
REMARK                         _______ _______ _______ _____ _____    ______ ____
ROOT
ATOM      1  C   UNL     1       2.331   3.781  19.810  0.00  0.00    +0.000 A 
ATOM      2  C   UNL     1       1.349   2.804  19.735  0.00  0.00    +0.000 A 
ATOM      3  S   UNL     1       1.508   1.789  18.373  0.00  0.00    +0.000 S 
ATOM      4  C   UNL     1       2.904   2.624  17.857  0.00  0.00    +0.000 A 
ATOM      5  C   UNL     1       3.237   3.666  18.699  0.00  0.00    +0.000 A 
ENDROOT
BRANCH   5   6
ATOM      6  C   UNL     1       4.388   4.543  18.478  0.00  0.00    +0.000 A 
ATOM      7  C   UNL     1       4.460   5.635  17.626  0.00  0.00    +0.000 A 
ATOM      8  N   UNL     1       5.701   6.104  17.830  0.00  0.00    +0.000 N 
ATOM      9  C   UNL     1       6.335   5.339  18.752  0.00  0.00    +0.000 A 
ATOM     10  N   UNL     1       5.572   4.367  19.179  0.00  0.00    +0.000 NA
ATOM     11  C   UNL     1       7.701   5.824  19.018  0.00  0.00    +0.000 C 
ATOM     12  C   UNL     1       7.828   7.042  18.063  0.00  0.00    +0.000 C 
ATOM     13  C   UNL     1       6.487   7.203  17.324  0.00  0.00    +0.000 C 
ENDBRANCH   5   6
BRANCH   1  15
ATOM     14  F   UNL     1       1.340   5.635  20.871  0.00  0.00    +0.000 F 
ATOM     15  C   UNL     1       2.416   4.791  20.910  0.00  0.00    +0.000 C 
ATOM     16  F   UNL     1       2.360   4.201  22.135  0.00  0.00    +0.000 F 
ENDBRANCH   1  15
TORSDOF 2
ENDMDL
MODEL 8
REMARK VINA RESULT:      -6.3      3.618      5.726
REMARK  Name = 
REMARK  2 active torsions:
REMARK  status: ('A' for Active; 'I' for Inactive)
REMARK    1  A    between atoms: C_2  and  C_4
REMARK    2  A    between atoms: C_8  and  C_9
REMARK                            x       y       z     vdW  Elec       q    Type
REMARK                         _______ _______ _______ _____ _____    ______ ____
ROOT
ATOM      1  C   UNL     1       5.243   5.540  16.608  0.00  0.00    +0.000 A 
ATOM      2  C   UNL     1       6.013   5.576  15.455  0.00  0.00    +0.000 A 
ATOM      3  S   UNL     1       6.187   4.051  14.710  0.00  0.00    +0.000 S 
ATOM      4  C   UNL     1       5.224   3.306  15.906  0.00  0.00    +0.000 A 
ATOM      5  C   UNL     1       4.787   4.200  16.864  0.00  0.00    +0.000 A 
ENDROOT
BRANCH   5   6
ATOM      6  C   UNL     1       3.952   3.815  18.002  0.00  0.00    +0.000 A 
ATOM      7  C   UNL     1       4.374   3.288  19.214  0.00  0.00    +0.000 A 
ATOM      8  N   UNL     1       3.233   3.155  19.907  0.00  0.00    +0.000 N 
ATOM      9  C   UNL     1       2.187   3.580  19.156  0.00  0.00    +0.000 A 
ATOM     10  N   UNL     1       2.576   3.992  17.979  0.00  0.00    +0.000 NA
ATOM     11  C   UNL     1       0.910   3.463  19.882  0.00  0.00    +0.000 C 
ATOM     12  C   UNL     1       1.340   2.856  21.245  0.00  0.00    +0.000 C 
ATOM     13  C   UNL     1       2.872   2.695  21.226  0.00  0.00    +0.000 C 
ENDBRANCH   5   6
BRANCH   1  15
ATOM     14  F   UNL     1       5.952   7.657  17.357  0.00  0.00    +0.000 F 
ATOM     15  C   UNL     1       4.938   6.744  17.442  0.00  0.00    +0.000 C 
ATOM     16  F   UNL     1       3.832   7.396  16.989  0.00  0.00    +0.000 F 
ENDBRANCH   1  15
TORSDOF 2
ENDMDL
MODEL 9
REMARK VINA RESULT:      -6.3      3.520      5.627
REMARK  Name = 
REMARK  2 active torsions:
REMARK  status: ('A' for Active; 'I' for Inactive)
REMARK    1  A    between atoms: C_2  and  C_4
REMARK    2  A    between atoms: C_8  and  C_9
REMARK                            x       y       z     vdW  Elec       q    Type
REMARK                         _______ _______ _______ _____ _____    ______ ____
ROOT
ATOM      1  C   UNL     1       6.524   4.665  17.211  0.00  0.00    +0.000 A 
ATOM      2  C   UNL     1       7.335   4.880  16.106  0.00  0.00    +0.000 A 
ATOM      3  S   UNL     1       6.540   4.606  14.621  0.00  0.00    +0.000 S 
ATOM      4  C   UNL     1       5.086   4.207  15.421  0.00  0.00    +0.000 A 
ATOM      5  C   UNL     1       5.206   4.268  16.795  0.00  0.00    +0.000 A 
ENDROOT
BRANCH   5   6
ATOM      6  C   UNL     1       4.107   3.966  17.713  0.00  0.00    +0.000 A 
ATOM      7  C   UNL     1       3.632   2.713  18.071  0.00  0.00    +0.000 A 
ATOM      8  N   UNL     1       2.661   2.991  18.955  0.00  0.00    +0.000 N 
ATOM      9  C   UNL     1       2.561   4.333  19.121  0.00  0.00    +0.000 A 
ATOM     10  N   UNL     1       3.426   4.975  18.378  0.00  0.00    +0.000 NA
ATOM     11  C   UNL     1       1.514   4.687  20.094  0.00  0.00    +0.000 C 
ATOM     12  C   UNL     1       0.941   3.304  20.506  0.00  0.00    +0.000 C 
ATOM     13  C   UNL     1       1.739   2.222  19.755  0.00  0.00    +0.000 C 
ENDBRANCH   5   6
BRANCH   1  15
ATOM     14  F   UNL     1       8.308   5.174  18.662  0.00  0.00    +0.000 F 
ATOM     15  C   UNL     1       6.982   4.841  18.624  0.00  0.00    +0.000 C 
ATOM     16  F   UNL     1       6.338   5.875  19.232  0.00  0.00    +0.000 F 
ENDBRANCH   1  15
TORSDOF 2
ENDMDL
