MODEL 1
REMARK VINA RESULT:      -6.6      0.000      0.000
REMARK  Name = 
REMARK  11 active torsions:
REMARK  status: ('A' for Active; 'I' for Inactive)
REMARK    1  A    between atoms: C_1  and  C_2
REMARK    2  A    between atoms: C_2  and  O_3
REMARK    3  A    between atoms: O_3  and  P_4
REMARK    4  A    between atoms: P_4  and  O_6
REMARK    5  A    between atoms: P_4  and  C_9
REMARK    6  A    between atoms: O_6  and  C_7
REMARK    7  A    between atoms: C_7  and  C_8
REMARK    8  A    between atoms: C_9  and  C_17
REMARK    9  A    between atoms: C_10  and  C_11
REMARK   10  A    between atoms: C_17  and  C_18
REMARK   11  A    between atoms: C_18  and  C_19
REMARK                            x       y       z     vdW  Elec       q    Type
REMARK                         _______ _______ _______ _____ _____    ______ ____
ROOT
ATOM      1  C   UNL     1       5.043   4.728  18.388  0.00  0.00    +0.000 C 
ATOM      2  C   UNL     1       4.410   3.534  18.474  0.00  0.00    +0.000 C 
ENDROOT
BRANCH   2   3
ATOM      3  C   UNL     1       3.267   3.184  19.316  0.00  0.00    +0.000 A 
ATOM      4  C   UNL     1       3.473   2.906  20.672  0.00  0.00    +0.000 A 
ATOM      5  C   UNL     1       2.387   2.687  21.523  0.00  0.00    +0.000 A 
ATOM      6  C   UNL     1       1.087   2.734  21.016  0.00  0.00    +0.000 A 
ATOM      7  C   UNL     1       0.877   2.984  19.660  0.00  0.00    +0.000 A 
ATOM      8  C   UNL     1       1.965   3.211  18.810  0.00  0.00    +0.000 A 
ENDBRANCH   2   3
BRANCH   1   9
ATOM      9  P   UNL     1       6.349   4.847  17.112  0.00  0.00    +0.000 P 
ATOM     10  O   UNL     1       7.373   4.152  18.038  0.00  0.00    +0.000 OA
BRANCH   9  11
ATOM     11  O   UNL     1       7.584   4.960  15.905  0.00  0.00    +0.000 OA
BRANCH  11  13
ATOM     12  C   UNL     1       5.878   4.095  14.519  0.00  0.00    +0.000 C 
ATOM     13  C   UNL     1       7.150   4.923  14.560  0.00  0.00    +0.000 C 
ENDBRANCH  11  13
ENDBRANCH   9  11
BRANCH   9  14
ATOM     14  O   UNL     1       6.495   6.496  17.304  0.00  0.00    +0.000 OA
BRANCH  14  15
ATOM     15  C   UNL     1       7.698   7.000  17.879  0.00  0.00    +0.000 C 
ATOM     16  C   UNL     1       7.792   8.489  17.637  0.00  0.00    +0.000 C 
ENDBRANCH  14  15
ENDBRANCH   9  14
ENDBRANCH   1   9
BRANCH   1  17
ATOM     17  C   UNL     1       4.698   5.925  19.232  0.00  0.00    +0.000 C 
BRANCH  17  18
ATOM     18  C   UNL     1       3.395   6.561  18.770  0.00  0.00    +0.000 C 
ATOM     19  C   UNL     1       2.318   6.757  19.808  0.00  0.00    +0.000 C 
ATOM     20  O   UNL     1       3.182   6.855  17.590  0.00  0.00    +0.000 OA
ENDBRANCH  17  18
ENDBRANCH   1  17
TORSDOF 8
ENDMDL
MODEL 2
REMARK VINA RESULT:      -6.5      1.820      6.249
REMARK  Name = 
REMARK  11 active torsions:
REMARK  status: ('A' for Active; 'I' for Inactive)
REMARK    1  A    between atoms: C_1  and  C_2
REMARK    2  A    between atoms: C_2  and  O_3
REMARK    3  A    between atoms: O_3  and  P_4
REMARK    4  A    between atoms: P_4  and  O_6
REMARK    5  A    between atoms: P_4  and  C_9
REMARK    6  A    between atoms: O_6  and  C_7
REMARK    7  A    between atoms: C_7  and  C_8
REMARK    8  A    between atoms: C_9  and  C_17
REMARK    9  A    between atoms: C_10  and  C_11
REMARK   10  A    between atoms: C_17  and  C_18
REMARK   11  A    between atoms: C_18  and  C_19
REMARK                            x       y       z     vdW  Elec       q    Type
REMARK                         _______ _______ _______ _____ _____    ______ ____
ROOT
ATOM      1  C   UNL     1       5.734   4.609  16.972  0.00  0.00    +0.000 C 
ATOM      2  C   UNL     1       5.262   4.602  15.703  0.00  0.00    +0.000 C 
ENDROOT
BRANCH   2   3
ATOM      3  C   UNL     1       6.021   4.436  14.464  0.00  0.00    +0.000 A 
ATOM      4  C   UNL     1       5.552   3.553  13.485  0.00  0.00    +0.000 A 
ATOM      5  C   UNL     1       6.193   3.466  12.246  0.00  0.00    +0.000 A 
ATOM      6  C   UNL     1       7.314   4.255  11.986  0.00  0.00    +0.000 A 
ATOM      7  C   UNL     1       7.801   5.117  12.969  0.00  0.00    +0.000 A 
ATOM      8  C   UNL     1       7.155   5.210  14.206  0.00  0.00    +0.000 A 
ENDBRANCH   2   3
BRANCH   1   9
ATOM      9  P   UNL     1       4.469   4.693  18.292  0.00  0.00    +0.000 P 
ATOM     10  O   UNL     1       3.700   3.497  17.686  0.00  0.00    +0.000 OA
BRANCH   9  11
ATOM     11  O   UNL     1       3.273   4.773  19.540  0.00  0.00    +0.000 OA
BRANCH  11  13
ATOM     12  C   UNL     1       1.297   3.829  20.427  0.00  0.00    +0.000 C 
ATOM     13  C   UNL     1       2.710   3.542  19.947  0.00  0.00    +0.000 C 
ENDBRANCH  11  13
ENDBRANCH   9  11
BRANCH   9  14
ATOM     14  O   UNL     1       3.819   6.102  17.686  0.00  0.00    +0.000 OA
BRANCH  14  15
ATOM     15  C   UNL     1       2.923   6.838  18.514  0.00  0.00    +0.000 C 
ATOM     16  C   UNL     1       2.573   8.149  17.847  0.00  0.00    +0.000 C 
ENDBRANCH  14  15
ENDBRANCH   9  14
ENDBRANCH   1   9
BRANCH   1  17
ATOM     17  C   UNL     1       7.192   4.505  17.326  0.00  0.00    +0.000 C 
BRANCH  17  18
ATOM     18  C   UNL     1       7.596   5.603  18.299  0.00  0.00    +0.000 C 
ATOM     19  C   UNL     1       7.568   7.023  17.787  0.00  0.00    +0.000 C 
ATOM     20  O   UNL     1       7.995   5.364  19.443  0.00  0.00    +0.000 OA
ENDBRANCH  17  18
ENDBRANCH   1  17
TORSDOF 8
ENDMDL
MODEL 3
REMARK VINA RESULT:      -6.4      1.878      6.155
REMARK  Name = 
REMARK  11 active torsions:
REMARK  status: ('A' for Active; 'I' for Inactive)
REMARK    1  A    between atoms: C_1  and  C_2
REMARK    2  A    between atoms: C_2  and  O_3
REMARK    3  A    between atoms: O_3  and  P_4
REMARK    4  A    between atoms: P_4  and  O_6
REMARK    5  A    between atoms: P_4  and  C_9
REMARK    6  A    between atoms: O_6  and  C_7
REMARK    7  A    between atoms: C_7  and  C_8
REMARK    8  A    between atoms: C_9  and  C_17
REMARK    9  A    between atoms: C_10  and  C_11
REMARK   10  A    between atoms: C_17  and  C_18
REMARK   11  A    between atoms: C_18  and  C_19
REMARK                            x       y       z     vdW  Elec       q    Type
REMARK                         _______ _______ _______ _____ _____    ______ ____
ROOT
ATOM      1  C   UNL     1       5.734   4.359  16.952  0.00  0.00    +0.000 C 
ATOM      2  C   UNL     1       5.179   4.356  15.717  0.00  0.00    +0.000 C 
ENDROOT
BRANCH   2   3
ATOM      3  C   UNL     1       5.866   4.367  14.425  0.00  0.00    +0.000 A 
ATOM      4  C   UNL     1       7.002   5.167  14.260  0.00  0.00    +0.000 A 
ATOM      5  C   UNL     1       7.744   5.105  13.078  0.00  0.00    +0.000 A 
ATOM      6  C   UNL     1       7.345   4.249  12.050  0.00  0.00    +0.000 A 
ATOM      7  C   UNL     1       6.198   3.469  12.200  0.00  0.00    +0.000 A 
ATOM      8  C   UNL     1       5.459   3.526  13.387  0.00  0.00    +0.000 A 
ENDBRANCH   2   3
BRANCH   1   9
ATOM      9  P   UNL     1       4.565   4.190  18.351  0.00  0.00    +0.000 P 
ATOM     10  O   UNL     1       4.009   2.867  17.778  0.00  0.00    +0.000 OA
BRANCH   9  11
ATOM     11  O   UNL     1       3.460   4.031  19.672  0.00  0.00    +0.000 OA
BRANCH  11  13
ATOM     12  C   UNL     1       1.195   3.602  20.187  0.00  0.00    +0.000 C 
ATOM     13  C   UNL     1       2.449   3.053  19.529  0.00  0.00    +0.000 C 
ENDBRANCH  11  13
ENDBRANCH   9  11
BRANCH   9  14
ATOM     14  O   UNL     1       3.613   5.444  17.807  0.00  0.00    +0.000 OA
BRANCH  14  15
ATOM     15  C   UNL     1       3.347   6.521  18.701  0.00  0.00    +0.000 C 
ATOM     16  C   UNL     1       2.593   7.612  17.974  0.00  0.00    +0.000 C 
ENDBRANCH  14  15
ENDBRANCH   9  14
ENDBRANCH   1   9
BRANCH   1  17
ATOM     17  C   UNL     1       7.213   4.443  17.209  0.00  0.00    +0.000 C 
BRANCH  17  18
ATOM     18  C   UNL     1       7.533   5.555  18.197  0.00  0.00    +0.000 C 
ATOM     19  C   UNL     1       7.413   6.975  17.701  0.00  0.00    +0.000 C 
ATOM     20  O   UNL     1       7.937   5.330  19.342  0.00  0.00    +0.000 OA
ENDBRANCH  17  18
ENDBRANCH   1  17
TORSDOF 8
ENDMDL
MODEL 4
REMARK VINA RESULT:      -6.3      0.704      1.306
REMARK  Name = 
REMARK  11 active torsions:
REMARK  status: ('A' for Active; 'I' for Inactive)
REMARK    1  A    between atoms: C_1  and  C_2
REMARK    2  A    between atoms: C_2  and  O_3
REMARK    3  A    between atoms: O_3  and  P_4
REMARK    4  A    between atoms: P_4  and  O_6
REMARK    5  A    between atoms: P_4  and  C_9
REMARK    6  A    between atoms: O_6  and  C_7
REMARK    7  A    between atoms: C_7  and  C_8
REMARK    8  A    between atoms: C_9  and  C_17
REMARK    9  A    between atoms: C_10  and  C_11
REMARK   10  A    between atoms: C_17  and  C_18
REMARK   11  A    between atoms: C_18  and  C_19
REMARK                            x       y       z     vdW  Elec       q    Type
REMARK                         _______ _______ _______ _____ _____    ______ ____
ROOT
ATOM      1  C   UNL     1       5.048   5.005  17.710  0.00  0.00    +0.000 C 
ATOM      2  C   UNL     1       4.352   3.843  17.681  0.00  0.00    +0.000 C 
ENDROOT
BRANCH   2   3
ATOM      3  C   UNL     1       3.223   3.452  18.524  0.00  0.00    +0.000 A 
ATOM      4  C   UNL     1       1.954   3.315  17.950  0.00  0.00    +0.000 A 
ATOM      5  C   UNL     1       0.885   2.827  18.706  0.00  0.00    +0.000 A 
ATOM      6  C   UNL     1       1.079   2.486  20.045  0.00  0.00    +0.000 A 
ATOM      7  C   UNL     1       2.336   2.646  20.629  0.00  0.00    +0.000 A 
ATOM      8  C   UNL     1       3.408   3.127  19.870  0.00  0.00    +0.000 A 
ENDBRANCH   2   3
BRANCH   1   9
ATOM      9  P   UNL     1       6.311   5.211  16.402  0.00  0.00    +0.000 P 
ATOM     10  O   UNL     1       7.324   4.351  17.191  0.00  0.00    +0.000 OA
BRANCH   9  11
ATOM     11  O   UNL     1       7.505   5.406  15.165  0.00  0.00    +0.000 OA
BRANCH  11  13
ATOM     12  C   UNL     1       5.874   4.114  14.045  0.00  0.00    +0.000 C 
ATOM     13  C   UNL     1       7.190   4.859  13.900  0.00  0.00    +0.000 C 
ENDBRANCH  11  13
ENDBRANCH   9  11
BRANCH   9  14
ATOM     14  O   UNL     1       6.561   6.812  16.788  0.00  0.00    +0.000 OA
BRANCH  14  15
ATOM     15  C   UNL     1       7.739   7.151  17.513  0.00  0.00    +0.000 C 
ATOM     16  C   UNL     1       7.807   8.650  17.703  0.00  0.00    +0.000 C 
ENDBRANCH  14  15
ENDBRANCH   9  14
ENDBRANCH   1   9
BRANCH   1  17
ATOM     17  C   UNL     1       4.801   6.107  18.704  0.00  0.00    +0.000 C 
BRANCH  17  18
ATOM     18  C   UNL     1       3.528   6.870  18.368  0.00  0.00    +0.000 C 
ATOM     19  C   UNL     1       2.419   6.845  19.392  0.00  0.00    +0.000 C 
ATOM     20  O   UNL     1       3.361   7.440  17.286  0.00  0.00    +0.000 OA
ENDBRANCH  17  18
ENDBRANCH   1  17
TORSDOF 8
ENDMDL
MODEL 5
REMARK VINA RESULT:      -6.3      1.899      6.373
REMARK  Name = 
REMARK  11 active torsions:
REMARK  status: ('A' for Active; 'I' for Inactive)
REMARK    1  A    between atoms: C_1  and  C_2
REMARK    2  A    between atoms: C_2  and  O_3
REMARK    3  A    between atoms: O_3  and  P_4
REMARK    4  A    between atoms: P_4  and  O_6
REMARK    5  A    between atoms: P_4  and  C_9
REMARK    6  A    between atoms: O_6  and  C_7
REMARK    7  A    between atoms: C_7  and  C_8
REMARK    8  A    between atoms: C_9  and  C_17
REMARK    9  A    between atoms: C_10  and  C_11
REMARK   10  A    between atoms: C_17  and  C_18
REMARK   11  A    between atoms: C_18  and  C_19
REMARK                            x       y       z     vdW  Elec       q    Type
REMARK                         _______ _______ _______ _____ _____    ______ ____
ROOT
ATOM      1  C   UNL     1       5.889   4.371  17.110  0.00  0.00    +0.000 C 
ATOM      2  C   UNL     1       5.349   4.267  15.872  0.00  0.00    +0.000 C 
ENDROOT
BRANCH   2   3
ATOM      3  C   UNL     1       6.047   4.255  14.587  0.00  0.00    +0.000 A 
ATOM      4  C   UNL     1       5.572   3.436  13.556  0.00  0.00    +0.000 A 
ATOM      5  C   UNL     1       6.147   3.496  12.284  0.00  0.00    +0.000 A 
ATOM      6  C   UNL     1       7.210   4.368  12.042  0.00  0.00    +0.000 A 
ATOM      7  C   UNL     1       7.704   5.167  13.073  0.00  0.00    +0.000 A 
ATOM      8  C   UNL     1       7.123   5.112  14.345  0.00  0.00    +0.000 A 
ENDBRANCH   2   3
BRANCH   1   9
ATOM      9  P   UNL     1       4.718   4.201  18.507  0.00  0.00    +0.000 P 
ATOM     10  O   UNL     1       4.284   2.799  18.023  0.00  0.00    +0.000 OA
BRANCH   9  11
ATOM     11  O   UNL     1       3.612   4.040  19.827  0.00  0.00    +0.000 OA
BRANCH  11  13
ATOM     12  C   UNL     1       2.362   2.801  21.403  0.00  0.00    +0.000 C 
ATOM     13  C   UNL     1       3.494   2.749  20.391  0.00  0.00    +0.000 C 
ENDBRANCH  11  13
ENDBRANCH   9  11
BRANCH   9  14
ATOM     14  O   UNL     1       3.672   5.329  17.868  0.00  0.00    +0.000 OA
BRANCH  14  15
ATOM     15  C   UNL     1       2.344   5.378  18.382  0.00  0.00    +0.000 C 
ATOM     16  C   UNL     1       1.444   4.492  17.550  0.00  0.00    +0.000 C 
ENDBRANCH  14  15
ENDBRANCH   9  14
ENDBRANCH   1   9
BRANCH   1  17
ATOM     17  C   UNL     1       7.357   4.567  17.372  0.00  0.00    +0.000 C 
BRANCH  17  18
ATOM     18  C   UNL     1       7.602   5.821  18.197  0.00  0.00    +0.000 C 
ATOM     19  C   UNL     1       7.411   7.149  17.506  0.00  0.00    +0.000 C 
ATOM     20  O   UNL     1       8.002   5.781  19.364  0.00  0.00    +0.000 OA
ENDBRANCH  17  18
ENDBRANCH   1  17
TORSDOF 8
ENDMDL
MODEL 6
REMARK VINA RESULT:      -6.3      1.449      2.917
REMARK  Name = 
REMARK  11 active torsions:
REMARK  status: ('A' for Active; 'I' for Inactive)
REMARK    1  A    between atoms: C_1  and  C_2
REMARK    2  A    between atoms: C_2  and  O_3
REMARK    3  A    between atoms: O_3  and  P_4
REMARK    4  A    between atoms: P_4  and  O_6
REMARK    5  A    between atoms: P_4  and  C_9
REMARK    6  A    between atoms: O_6  and  C_7
REMARK    7  A    between atoms: C_7  and  C_8
REMARK    8  A    between atoms: C_9  and  C_17
REMARK    9  A    between atoms: C_10  and  C_11
REMARK   10  A    between atoms: C_17  and  C_18
REMARK   11  A    between atoms: C_18  and  C_19
REMARK                            x       y       z     vdW  Elec       q    Type
REMARK                         _______ _______ _______ _____ _____    ______ ____
ROOT
ATOM      1  C   UNL     1       4.167   5.964  17.961  0.00  0.00    +0.000 C 
ATOM      2  C   UNL     1       4.155   4.841  18.719  0.00  0.00    +0.000 C 
ENDROOT
BRANCH   2   3
ATOM      3  C   UNL     1       2.996   4.058  19.145  0.00  0.00    +0.000 A 
ATOM      4  C   UNL     1       2.473   4.250  20.429  0.00  0.00    +0.000 A 
ATOM      5  C   UNL     1       1.296   3.604  20.817  0.00  0.00    +0.000 A 
ATOM      6  C   UNL     1       0.644   2.753  19.924  0.00  0.00    +0.000 A 
ATOM      7  C   UNL     1       1.176   2.537  18.652  0.00  0.00    +0.000 A 
ATOM      8  C   UNL     1       2.350   3.191  18.261  0.00  0.00    +0.000 A 
ENDBRANCH   2   3
BRANCH   1   9
ATOM      9  P   UNL     1       5.820   6.596  17.498  0.00  0.00    +0.000 P 
ATOM     10  O   UNL     1       5.303   7.050  16.114  0.00  0.00    +0.000 OA
BRANCH   9  11
ATOM     11  O   UNL     1       7.384   7.194  17.061  0.00  0.00    +0.000 OA
BRANCH  11  13
ATOM     12  C   UNL     1       8.121   9.250  17.961  0.00  0.00    +0.000 C 
ATOM     13  C   UNL     1       8.161   7.739  18.108  0.00  0.00    +0.000 C 
ENDBRANCH  11  13
ENDBRANCH   9  11
BRANCH   9  14
ATOM     14  O   UNL     1       6.451   5.062  17.351  0.00  0.00    +0.000 OA
BRANCH  14  15
ATOM     15  C   UNL     1       6.996   4.679  16.091  0.00  0.00    +0.000 C 
ATOM     16  C   UNL     1       6.006   3.803  15.354  0.00  0.00    +0.000 C 
ENDBRANCH  14  15
ENDBRANCH   9  14
ENDBRANCH   1   9
BRANCH   1  17
ATOM     17  C   UNL     1       2.926   6.655  17.466  0.00  0.00    +0.000 C 
BRANCH  17  18
ATOM     18  C   UNL     1       2.475   7.732  18.441  0.00  0.00    +0.000 C 
ATOM     19  C   UNL     1       2.218   9.109  17.877  0.00  0.00    +0.000 C 
ATOM     20  O   UNL     1       2.377   7.531  19.655  0.00  0.00    +0.000 OA
ENDBRANCH  17  18
ENDBRANCH   1  17
TORSDOF 8
ENDMDL
MODEL 7
REMARK VINA RESULT:      -6.2      1.122      1.235
REMARK  Name = 
REMARK  11 active torsions:
REMARK  status: ('A' for Active; 'I' for Inactive)
REMARK    1  A    between atoms: C_1  and  C_2
REMARK    2  A    between atoms: C_2  and  O_3
REMARK    3  A    between atoms: O_3  and  P_4
REMARK    4  A    between atoms: P_4  and  O_6
REMARK    5  A    between atoms: P_4  and  C_9
REMARK    6  A    between atoms: O_6  and  C_7
REMARK    7  A    between atoms: C_7  and  C_8
REMARK    8  A    between atoms: C_9  and  C_17
REMARK    9  A    between atoms: C_10  and  C_11
REMARK   10  A    between atoms: C_17  and  C_18
REMARK   11  A    between atoms: C_18  and  C_19
REMARK                            x       y       z     vdW  Elec       q    Type
REMARK                         _______ _______ _______ _____ _____    ______ ____
ROOT
ATOM      1  C   UNL     1       4.373   5.005  17.855  0.00  0.00    +0.000 C 
ATOM      2  C   UNL     1       3.732   3.817  17.972  0.00  0.00    +0.000 C 
ENDROOT
BRANCH   2   3
ATOM      3  C   UNL     1       2.864   3.371  19.061  0.00  0.00    +0.000 A 
ATOM      4  C   UNL     1       3.436   2.954  20.268  0.00  0.00    +0.000 A 
ATOM      5  C   UNL     1       2.626   2.637  21.362  0.00  0.00    +0.000 A 
ATOM      6  C   UNL     1       1.238   2.726  21.248  0.00  0.00    +0.000 A 
ATOM      7  C   UNL     1       0.662   3.115  20.038  0.00  0.00    +0.000 A 
ATOM      8  C   UNL     1       1.473   3.440  18.946  0.00  0.00    +0.000 A 
ENDBRANCH   2   3
BRANCH   1   9
ATOM      9  P   UNL     1       5.261   5.279  16.278  0.00  0.00    +0.000 P 
ATOM     10  O   UNL     1       6.202   4.084  16.555  0.00  0.00    +0.000 OA
BRANCH   9  11
ATOM     11  O   UNL     1       6.101   5.538  14.788  0.00  0.00    +0.000 OA
BRANCH  11  13
ATOM     12  C   UNL     1       5.718   3.848  13.182  0.00  0.00    +0.000 C 
ATOM     13  C   UNL     1       6.700   4.400  14.201  0.00  0.00    +0.000 C 
ENDBRANCH  11  13
ENDBRANCH   9  11
BRANCH   9  14
ATOM     14  O   UNL     1       5.990   6.667  16.841  0.00  0.00    +0.000 OA
BRANCH  14  15
ATOM     15  C   UNL     1       7.413   6.698  16.908  0.00  0.00    +0.000 C 
ATOM     16  C   UNL     1       7.848   7.066  18.309  0.00  0.00    +0.000 C 
ENDBRANCH  14  15
ENDBRANCH   9  14
ENDBRANCH   1   9
BRANCH   1  17
ATOM     17  C   UNL     1       4.345   6.082  18.905  0.00  0.00    +0.000 C 
BRANCH  17  18
ATOM     18  C   UNL     1       3.018   6.827  18.887  0.00  0.00    +0.000 C 
ATOM     19  C   UNL     1       2.797   7.816  17.769  0.00  0.00    +0.000 C 
ATOM     20  O   UNL     1       2.169   6.691  19.773  0.00  0.00    +0.000 OA
ENDBRANCH  17  18
ENDBRANCH   1  17
TORSDOF 8
ENDMDL
MODEL 8
REMARK VINA RESULT:      -6.2      1.983      6.304
REMARK  Name = 
REMARK  11 active torsions:
REMARK  status: ('A' for Active; 'I' for Inactive)
REMARK    1  A    between atoms: C_1  and  C_2
REMARK    2  A    between atoms: C_2  and  O_3
REMARK    3  A    between atoms: O_3  and  P_4
REMARK    4  A    between atoms: P_4  and  O_6
REMARK    5  A    between atoms: P_4  and  C_9
REMARK    6  A    between atoms: O_6  and  C_7
REMARK    7  A    between atoms: C_7  and  C_8
REMARK    8  A    between atoms: C_9  and  C_17
REMARK    9  A    between atoms: C_10  and  C_11
REMARK   10  A    between atoms: C_17  and  C_18
REMARK   11  A    between atoms: C_18  and  C_19
REMARK                            x       y       z     vdW  Elec       q    Type
REMARK                         _______ _______ _______ _____ _____    ______ ____
ROOT
ATOM      1  C   UNL     1       5.654   4.642  16.926  0.00  0.00    +0.000 C 
ATOM      2  C   UNL     1       5.083   4.547  15.701  0.00  0.00    +0.000 C 
ENDROOT
BRANCH   2   3
ATOM      3  C   UNL     1       5.753   4.423  14.407  0.00  0.00    +0.000 A 
ATOM      4  C   UNL     1       6.933   5.137  14.174  0.00  0.00    +0.000 A 
ATOM      5  C   UNL     1       7.655   4.944  12.993  0.00  0.00    +0.000 A 
ATOM      6  C   UNL     1       7.191   4.043  12.035  0.00  0.00    +0.000 A 
ATOM      7  C   UNL     1       6.001   3.348  12.250  0.00  0.00    +0.000 A 
ATOM      8  C   UNL     1       5.282   3.536  13.436  0.00  0.00    +0.000 A 
ENDBRANCH   2   3
BRANCH   1   9
ATOM      9  P   UNL     1       4.499   4.634  18.346  0.00  0.00    +0.000 P 
ATOM     10  O   UNL     1       5.455   3.741  19.169  0.00  0.00    +0.000 OA
BRANCH   9  11
ATOM     11  O   UNL     1       3.408   4.627  19.688  0.00  0.00    +0.000 OA
BRANCH  11  13
ATOM     12  C   UNL     1       2.846   6.763  18.849  0.00  0.00    +0.000 C 
ATOM     13  C   UNL     1       2.351   5.565  19.641  0.00  0.00    +0.000 C 
ENDBRANCH  11  13
ENDBRANCH   9  11
BRANCH   9  14
ATOM     14  O   UNL     1       3.409   3.655  17.554  0.00  0.00    +0.000 OA
BRANCH  14  15
ATOM     15  C   UNL     1       3.279   2.305  17.991  0.00  0.00    +0.000 C 
ATOM     16  C   UNL     1       1.849   2.040  18.403  0.00  0.00    +0.000 C 
ENDBRANCH  14  15
ENDBRANCH   9  14
ENDBRANCH   1   9
BRANCH   1  17
ATOM     17  C   UNL     1       7.139   4.703  17.158  0.00  0.00    +0.000 C 
BRANCH  17  18
ATOM     18  C   UNL     1       7.556   6.073  17.672  0.00  0.00    +0.000 C 
ATOM     19  C   UNL     1       8.001   6.163  19.112  0.00  0.00    +0.000 C 
ATOM     20  O   UNL     1       7.481   7.092  16.981  0.00  0.00    +0.000 OA
ENDBRANCH  17  18
ENDBRANCH   1  17
TORSDOF 8
ENDMDL
MODEL 9
REMARK VINA RESULT:      -6.2      2.052      6.429
REMARK  Name = 
REMARK  11 active torsions:
REMARK  status: ('A' for Active; 'I' for Inactive)
REMARK    1  A    between atoms: C_1  and  C_2
REMARK    2  A    between atoms: C_2  and  O_3
REMARK    3  A    between atoms: O_3  and  P_4
REMARK    4  A    between atoms: P_4  and  O_6
REMARK    5  A    between atoms: P_4  and  C_9
REMARK    6  A    between atoms: O_6  and  C_7
REMARK    7  A    between atoms: C_7  and  C_8
REMARK    8  A    between atoms: C_9  and  C_17
REMARK    9  A    between atoms: C_10  and  C_11
REMARK   10  A    between atoms: C_17  and  C_18
REMARK   11  A    between atoms: C_18  and  C_19
REMARK                            x       y       z     vdW  Elec       q    Type
REMARK                         _______ _______ _______ _____ _____    ______ ____
ROOT
ATOM      1  C   UNL     1       5.565   4.667  16.975  0.00  0.00    +0.000 C 
ATOM      2  C   UNL     1       5.170   4.750  15.682  0.00  0.00    +0.000 C 
ENDROOT
BRANCH   2   3
ATOM      3  C   UNL     1       5.978   4.532  14.482  0.00  0.00    +0.000 A 
ATOM      4  C   UNL     1       5.530   3.631  13.509  0.00  0.00    +0.000 A 
ATOM      5  C   UNL     1       6.220   3.494  12.301  0.00  0.00    +0.000 A 
ATOM      6  C   UNL     1       7.368   4.251  12.068  0.00  0.00    +0.000 A 
ATOM      7  C   UNL     1       7.834   5.131  13.045  0.00  0.00    +0.000 A 
ATOM      8  C   UNL     1       7.139   5.273  14.251  0.00  0.00    +0.000 A 
ENDBRANCH   2   3
BRANCH   1   9
ATOM      9  P   UNL     1       4.243   4.860  18.225  0.00  0.00    +0.000 P 
ATOM     10  O   UNL     1       5.050   4.045  19.261  0.00  0.00    +0.000 OA
BRANCH   9  11
ATOM     11  O   UNL     1       2.993   5.043  19.408  0.00  0.00    +0.000 OA
BRANCH  11  13
ATOM     12  C   UNL     1       2.684   7.152  18.390  0.00  0.00    +0.000 C 
ATOM     13  C   UNL     1       2.583   6.366  19.686  0.00  0.00    +0.000 C 
ENDBRANCH  11  13
ENDBRANCH   9  11
BRANCH   9  14
ATOM     14  O   UNL     1       3.220   3.823  17.417  0.00  0.00    +0.000 OA
BRANCH  14  15
ATOM     15  C   UNL     1       3.188   2.459  17.825  0.00  0.00    +0.000 C 
ATOM     16  C   UNL     1       1.828   2.131  18.399  0.00  0.00    +0.000 C 
ENDBRANCH  14  15
ENDBRANCH   9  14
ENDBRANCH   1   9
BRANCH   1  17
ATOM     17  C   UNL     1       6.979   4.387  17.405  0.00  0.00    +0.000 C 
BRANCH  17  18
ATOM     18  C   UNL     1       7.542   5.545  18.216  0.00  0.00    +0.000 C 
ATOM     19  C   UNL     1       7.459   6.921  17.602  0.00  0.00    +0.000 C 
ATOM     20  O   UNL     1       8.105   5.383  19.302  0.00  0.00    +0.000 OA
ENDBRANCH  17  18
ENDBRANCH   1  17
TORSDOF 8
ENDMDL
