MODEL 1
REMARK VINA RESULT:      -6.7      0.000      0.000
REMARK  Name = 
REMARK  7 active torsions:
REMARK  status: ('A' for Active; 'I' for Inactive)
REMARK    1  A    between atoms: C_1  and  C_2
REMARK    2  A    between atoms: C_2  and  O_3
REMARK    3  A    between atoms: O_3  and  C_4
REMARK    4  A    between atoms: C_4  and  C_6
REMARK    5  A    between atoms: C_7  and  C_8
REMARK    6  A    between atoms: C_12  and  C_13
REMARK    7  A    between atoms: C_18  and  N_19
REMARK                            x       y       z     vdW  Elec       q    Type
REMARK                         _______ _______ _______ _____ _____    ______ ____
ROOT
ATOM      1  C   UNL     1       3.003   4.399  18.372  0.00  0.00    +0.000 A 
ATOM      2  C   UNL     1       3.477   5.757  18.610  0.00  0.00    +0.000 A 
ATOM      3  C   UNL     1       4.854   5.784  18.722  0.00  0.00    +0.000 A 
ATOM      4  S   UNL     1       5.568   4.249  18.556  0.00  0.00    +0.000 S 
ATOM      5  C   UNL     1       4.054   3.495  18.324  0.00  0.00    +0.000 A 
ENDROOT
BRANCH   2   6
ATOM      6  C   UNL     1       2.696   6.995  18.768  0.00  0.00    +0.000 A 
ATOM      7  C   UNL     1       2.491   7.862  17.684  0.00  0.00    +0.000 A 
ATOM      8  C   UNL     1       1.756   9.041  17.835  0.00  0.00    +0.000 A 
ATOM      9  C   UNL     1       1.192   9.361  19.069  0.00  0.00    +0.000 A 
ATOM     10  C   UNL     1       1.380   8.510  20.159  0.00  0.00    +0.000 A 
ATOM     11  C   UNL     1       2.148   7.346  20.011  0.00  0.00    +0.000 A 
BRANCH  10  12
ATOM     12  C   UNL     1       0.793   8.817  21.428  0.00  0.00    +0.000 C 
ATOM     13  N   UNL     1       0.317   9.073  22.459  0.00  0.00    +0.000 NA
ENDBRANCH  10  12
ENDBRANCH   2   6
BRANCH   5  14
ATOM     14  N   UNL     1       4.012   2.162  18.095  0.00  0.00    +0.000 N 
ATOM     15  H   UNL     1       3.735   1.539  18.849  0.00  0.00    +0.000 HD
ATOM     16  H   UNL     1       3.810   1.806  17.164  0.00  0.00    +0.000 HD
ENDBRANCH   5  14
BRANCH   1  17
ATOM     17  C   UNL     1       1.605   4.016  18.163  0.00  0.00    +0.000 C 
ATOM     18  O   UNL     1       0.918   4.455  17.249  0.00  0.00    +0.000 OA
BRANCH  17  19
ATOM     19  O   UNL     1       1.123   3.188  19.142  0.00  0.00    +0.000 OA
BRANCH  19  21
ATOM     20  C   UNL     1       1.721   2.975  21.486  0.00  0.00    +0.000 C 
ATOM     21  C   UNL     1       0.988   3.794  20.437  0.00  0.00    +0.000 C 
ENDBRANCH  19  21
ENDBRANCH  17  19
ENDBRANCH   1  17
TORSDOF 6
ENDMDL
MODEL 2
REMARK VINA RESULT:      -6.7      3.349      5.079
REMARK  Name = 
REMARK  7 active torsions:
REMARK  status: ('A' for Active; 'I' for Inactive)
REMARK    1  A    between atoms: C_1  and  C_2
REMARK    2  A    between atoms: C_2  and  O_3
REMARK    3  A    between atoms: O_3  and  C_4
REMARK    4  A    between atoms: C_4  and  C_6
REMARK    5  A    between atoms: C_7  and  C_8
REMARK    6  A    between atoms: C_12  and  C_13
REMARK    7  A    between atoms: C_18  and  N_19
REMARK                            x       y       z     vdW  Elec       q    Type
REMARK                         _______ _______ _______ _____ _____    ______ ____
ROOT
ATOM      1  C   UNL     1       6.109   5.002  17.568  0.00  0.00    +0.000 A 
ATOM      2  C   UNL     1       4.671   4.760  17.601  0.00  0.00    +0.000 A 
ATOM      3  C   UNL     1       4.244   4.180  16.421  0.00  0.00    +0.000 A 
ATOM      4  S   UNL     1       5.502   3.933  15.304  0.00  0.00    +0.000 S 
ATOM      5  C   UNL     1       6.666   4.591  16.365  0.00  0.00    +0.000 A 
ENDROOT
BRANCH   2   6
ATOM      6  C   UNL     1       3.704   5.080  18.663  0.00  0.00    +0.000 A 
ATOM      7  C   UNL     1       3.177   6.374  18.794  0.00  0.00    +0.000 A 
ATOM      8  C   UNL     1       2.263   6.680  19.806  0.00  0.00    +0.000 A 
ATOM      9  C   UNL     1       1.843   5.689  20.691  0.00  0.00    +0.000 A 
ATOM     10  C   UNL     1       2.350   4.394  20.575  0.00  0.00    +0.000 A 
ATOM     11  C   UNL     1       3.293   4.101  19.580  0.00  0.00    +0.000 A 
BRANCH  10  12
ATOM     12  C   UNL     1       1.913   3.362  21.467  0.00  0.00    +0.000 C 
ATOM     13  N   UNL     1       1.563   2.526  22.196  0.00  0.00    +0.000 NA
ENDBRANCH  10  12
ENDBRANCH   2   6
BRANCH   5  14
ATOM     14  N   UNL     1       7.962   4.628  15.979  0.00  0.00    +0.000 N 
ATOM     15  H   UNL     1       8.417   5.528  15.856  0.00  0.00    +0.000 HD
ATOM     16  H   UNL     1       8.594   3.871  16.229  0.00  0.00    +0.000 HD
ENDBRANCH   5  14
BRANCH   1  17
ATOM     17  C   UNL     1       6.896   5.565  18.666  0.00  0.00    +0.000 C 
ATOM     18  O   UNL     1       6.716   5.272  19.841  0.00  0.00    +0.000 OA
BRANCH  17  19
ATOM     19  O   UNL     1       7.793   6.515  18.252  0.00  0.00    +0.000 OA
BRANCH  19  21
ATOM     20  C   UNL     1       8.125   8.886  17.847  0.00  0.00    +0.000 C 
ATOM     21  C   UNL     1       7.208   7.688  17.667  0.00  0.00    +0.000 C 
ENDBRANCH  19  21
ENDBRANCH  17  19
ENDBRANCH   1  17
TORSDOF 6
ENDMDL
MODEL 3
REMARK VINA RESULT:      -6.4      3.738      5.348
REMARK  Name = 
REMARK  7 active torsions:
REMARK  status: ('A' for Active; 'I' for Inactive)
REMARK    1  A    between atoms: C_1  and  C_2
REMARK    2  A    between atoms: C_2  and  O_3
REMARK    3  A    between atoms: O_3  and  C_4
REMARK    4  A    between atoms: C_4  and  C_6
REMARK    5  A    between atoms: C_7  and  C_8
REMARK    6  A    between atoms: C_12  and  C_13
REMARK    7  A    between atoms: C_18  and  N_19
REMARK                            x       y       z     vdW  Elec       q    Type
REMARK                         _______ _______ _______ _____ _____    ______ ____
ROOT
ATOM      1  C   UNL     1       5.781   6.164  17.550  0.00  0.00    +0.000 A 
ATOM      2  C   UNL     1       5.467   5.079  18.472  0.00  0.00    +0.000 A 
ATOM      3  C   UNL     1       6.519   4.851  19.340  0.00  0.00    +0.000 A 
ATOM      4  S   UNL     1       7.842   5.885  19.071  0.00  0.00    +0.000 S 
ATOM      5  C   UNL     1       7.049   6.678  17.784  0.00  0.00    +0.000 A 
ENDROOT
BRANCH   2   6
ATOM      6  C   UNL     1       4.256   4.245  18.541  0.00  0.00    +0.000 A 
ATOM      7  C   UNL     1       3.681   3.710  17.378  0.00  0.00    +0.000 A 
ATOM      8  C   UNL     1       2.527   2.923  17.442  0.00  0.00    +0.000 A 
ATOM      9  C   UNL     1       1.943   2.639  18.675  0.00  0.00    +0.000 A 
ATOM     10  C   UNL     1       2.501   3.157  19.844  0.00  0.00    +0.000 A 
ATOM     11  C   UNL     1       3.638   3.974  19.771  0.00  0.00    +0.000 A 
BRANCH  10  12
ATOM     12  C   UNL     1       1.921   2.858  21.119  0.00  0.00    +0.000 C 
ATOM     13  N   UNL     1       1.454   2.610  22.155  0.00  0.00    +0.000 NA
ENDBRANCH  10  12
ENDBRANCH   2   6
BRANCH   5  14
ATOM     14  N   UNL     1       7.674   7.700  17.156  0.00  0.00    +0.000 N 
ATOM     15  H   UNL     1       7.298   8.640  17.245  0.00  0.00    +0.000 HD
ATOM     16  H   UNL     1       8.677   7.666  16.991  0.00  0.00    +0.000 HD
ENDBRANCH   5  14
BRANCH   1  17
ATOM     17  C   UNL     1       4.877   6.693  16.528  0.00  0.00    +0.000 C 
ATOM     18  O   UNL     1       3.775   7.164  16.785  0.00  0.00    +0.000 OA
BRANCH  17  19
ATOM     19  O   UNL     1       5.351   6.528  15.254  0.00  0.00    +0.000 OA
BRANCH  19  21
ATOM     20  C   UNL     1       6.926   4.871  14.435  0.00  0.00    +0.000 C 
ATOM     21  C   UNL     1       5.489   5.163  14.830  0.00  0.00    +0.000 C 
ENDBRANCH  19  21
ENDBRANCH  17  19
ENDBRANCH   1  17
TORSDOF 6
ENDMDL
MODEL 4
REMARK VINA RESULT:      -6.4      2.651      5.663
REMARK  Name = 
REMARK  7 active torsions:
REMARK  status: ('A' for Active; 'I' for Inactive)
REMARK    1  A    between atoms: C_1  and  C_2
REMARK    2  A    between atoms: C_2  and  O_3
REMARK    3  A    between atoms: O_3  and  C_4
REMARK    4  A    between atoms: C_4  and  C_6
REMARK    5  A    between atoms: C_7  and  C_8
REMARK    6  A    between atoms: C_12  and  C_13
REMARK    7  A    between atoms: C_18  and  N_19
REMARK                            x       y       z     vdW  Elec       q    Type
REMARK                         _______ _______ _______ _____ _____    ______ ____
ROOT
ATOM      1  C   UNL     1       2.641   3.963  18.912  0.00  0.00    +0.000 A 
ATOM      2  C   UNL     1       4.059   3.627  18.934  0.00  0.00    +0.000 A 
ATOM      3  C   UNL     1       4.350   2.789  19.994  0.00  0.00    +0.000 A 
ATOM      4  S   UNL     1       2.987   2.414  20.941  0.00  0.00    +0.000 S 
ATOM      5  C   UNL     1       1.959   3.359  19.959  0.00  0.00    +0.000 A 
ENDROOT
BRANCH   2   6
ATOM      6  C   UNL     1       5.132   4.084  18.035  0.00  0.00    +0.000 A 
ATOM      7  C   UNL     1       6.233   4.799  18.530  0.00  0.00    +0.000 A 
ATOM      8  C   UNL     1       7.248   5.239  17.677  0.00  0.00    +0.000 A 
ATOM      9  C   UNL     1       7.191   4.949  16.315  0.00  0.00    +0.000 A 
ATOM     10  C   UNL     1       6.108   4.234  15.802  0.00  0.00    +0.000 A 
ATOM     11  C   UNL     1       5.074   3.826  16.657  0.00  0.00    +0.000 A 
BRANCH  10  12
ATOM     12  C   UNL     1       6.045   3.914  14.408  0.00  0.00    +0.000 C 
ATOM     13  N   UNL     1       5.996   3.648  13.276  0.00  0.00    +0.000 NA
ENDBRANCH  10  12
ENDBRANCH   2   6
BRANCH   5  14
ATOM     14  N   UNL     1       0.639   3.411  20.248  0.00  0.00    +0.000 N 
ATOM     15  H   UNL     1       0.183   2.589  20.633  0.00  0.00    +0.000 HD
ATOM     16  H   UNL     1       0.206   4.292  20.516  0.00  0.00    +0.000 HD
ENDBRANCH   5  14
BRANCH   1  17
ATOM     17  C   UNL     1       1.985   4.794  17.901  0.00  0.00    +0.000 C 
ATOM     18  O   UNL     1       1.035   4.411  17.229  0.00  0.00    +0.000 OA
BRANCH  17  19
ATOM     19  O   UNL     1       2.596   6.008  17.725  0.00  0.00    +0.000 OA
BRANCH  19  21
ATOM     20  C   UNL     1       2.259   8.352  18.260  0.00  0.00    +0.000 C 
ATOM     21  C   UNL     1       2.413   6.941  18.801  0.00  0.00    +0.000 C 
ENDBRANCH  19  21
ENDBRANCH  17  19
ENDBRANCH   1  17
TORSDOF 6
ENDMDL
MODEL 5
REMARK VINA RESULT:      -6.4      2.394      3.484
REMARK  Name = 
REMARK  7 active torsions:
REMARK  status: ('A' for Active; 'I' for Inactive)
REMARK    1  A    between atoms: C_1  and  C_2
REMARK    2  A    between atoms: C_2  and  O_3
REMARK    3  A    between atoms: O_3  and  C_4
REMARK    4  A    between atoms: C_4  and  C_6
REMARK    5  A    between atoms: C_7  and  C_8
REMARK    6  A    between atoms: C_12  and  C_13
REMARK    7  A    between atoms: C_18  and  N_19
REMARK                            x       y       z     vdW  Elec       q    Type
REMARK                         _______ _______ _______ _____ _____    ______ ____
ROOT
ATOM      1  C   UNL     1       4.357   5.545  17.255  0.00  0.00    +0.000 A 
ATOM      2  C   UNL     1       3.211   5.802  18.118  0.00  0.00    +0.000 A 
ATOM      3  C   UNL     1       2.690   4.619  18.609  0.00  0.00    +0.000 A 
ATOM      4  S   UNL     1       3.528   3.244  18.062  0.00  0.00    +0.000 S 
ATOM      5  C   UNL     1       4.621   4.187  17.152  0.00  0.00    +0.000 A 
ENDROOT
BRANCH   2   6
ATOM      6  C   UNL     1       2.580   7.088  18.461  0.00  0.00    +0.000 A 
ATOM      7  C   UNL     1       2.370   8.072  17.483  0.00  0.00    +0.000 A 
ATOM      8  C   UNL     1       1.778   9.295  17.810  0.00  0.00    +0.000 A 
ATOM      9  C   UNL     1       1.364   9.545  19.117  0.00  0.00    +0.000 A 
ATOM     10  C   UNL     1       1.559   8.578  20.104  0.00  0.00    +0.000 A 
ATOM     11  C   UNL     1       2.186   7.366  19.778  0.00  0.00    +0.000 A 
BRANCH  10  12
ATOM     12  C   UNL     1       1.124   8.814  21.447  0.00  0.00    +0.000 C 
ATOM     13  N   UNL     1       0.763   9.008  22.536  0.00  0.00    +0.000 NA
ENDBRANCH  10  12
ENDBRANCH   2   6
BRANCH   5  14
ATOM     14  N   UNL     1       5.612   3.569  16.470  0.00  0.00    +0.000 N 
ATOM     15  H   UNL     1       5.923   3.960  15.585  0.00  0.00    +0.000 HD
ATOM     16  H   UNL     1       6.326   3.041  16.966  0.00  0.00    +0.000 HD
ENDBRANCH   5  14
BRANCH   1  17
ATOM     17  C   UNL     1       5.171   6.572  16.603  0.00  0.00    +0.000 C 
ATOM     18  O   UNL     1       5.225   6.716  15.388  0.00  0.00    +0.000 OA
BRANCH  17  19
ATOM     19  O   UNL     1       5.930   7.296  17.485  0.00  0.00    +0.000 OA
BRANCH  19  21
ATOM     20  C   UNL     1       7.697   6.163  18.705  0.00  0.00    +0.000 C 
ATOM     21  C   UNL     1       7.331   6.983  17.480  0.00  0.00    +0.000 C 
ENDBRANCH  19  21
ENDBRANCH  17  19
ENDBRANCH   1  17
TORSDOF 6
ENDMDL
MODEL 6
REMARK VINA RESULT:      -6.4      2.178      3.192
REMARK  Name = 
REMARK  7 active torsions:
REMARK  status: ('A' for Active; 'I' for Inactive)
REMARK    1  A    between atoms: C_1  and  C_2
REMARK    2  A    between atoms: C_2  and  O_3
REMARK    3  A    between atoms: O_3  and  C_4
REMARK    4  A    between atoms: C_4  and  C_6
REMARK    5  A    between atoms: C_7  and  C_8
REMARK    6  A    between atoms: C_12  and  C_13
REMARK    7  A    between atoms: C_18  and  N_19
REMARK                            x       y       z     vdW  Elec       q    Type
REMARK                         _______ _______ _______ _____ _____    ______ ____
ROOT
ATOM      1  C   UNL     1       3.754   4.011  19.152  0.00  0.00    +0.000 A 
ATOM      2  C   UNL     1       2.499   4.724  19.360  0.00  0.00    +0.000 A 
ATOM      3  C   UNL     1       1.464   3.838  19.596  0.00  0.00    +0.000 A 
ATOM      4  S   UNL     1       1.959   2.210  19.566  0.00  0.00    +0.000 S 
ATOM      5  C   UNL     1       3.579   2.638  19.241  0.00  0.00    +0.000 A 
ENDROOT
BRANCH   2   6
ATOM      6  C   UNL     1       2.238   6.172  19.312  0.00  0.00    +0.000 A 
ATOM      7  C   UNL     1       2.339   6.883  18.107  0.00  0.00    +0.000 A 
ATOM      8  C   UNL     1       2.098   8.259  18.061  0.00  0.00    +0.000 A 
ATOM      9  C   UNL     1       1.728   8.943  19.218  0.00  0.00    +0.000 A 
ATOM     10  C   UNL     1       1.616   8.253  20.426  0.00  0.00    +0.000 A 
ATOM     11  C   UNL     1       1.894   6.879  20.473  0.00  0.00    +0.000 A 
BRANCH  10  12
ATOM     12  C   UNL     1       1.220   8.939  21.619  0.00  0.00    +0.000 C 
ATOM     13  N   UNL     1       0.897   9.503  22.584  0.00  0.00    +0.000 NA
ENDBRANCH  10  12
ENDBRANCH   2   6
BRANCH   5  14
ATOM     14  N   UNL     1       4.508   1.660  19.134  0.00  0.00    +0.000 N 
ATOM     15  H   UNL     1       4.217   0.729  18.849  0.00  0.00    +0.000 HD
ATOM     16  H   UNL     1       5.470   1.889  18.893  0.00  0.00    +0.000 HD
ENDBRANCH   5  14
BRANCH   1  17
ATOM     17  C   UNL     1       5.054   4.641  18.920  0.00  0.00    +0.000 C 
ATOM     18  O   UNL     1       5.542   5.473  19.675  0.00  0.00    +0.000 OA
BRANCH  17  19
ATOM     19  O   UNL     1       5.627   4.270  17.732  0.00  0.00    +0.000 OA
BRANCH  19  21
ATOM     20  C   UNL     1       5.329   6.097  16.159  0.00  0.00    +0.000 C 
ATOM     21  C   UNL     1       4.915   4.690  16.558  0.00  0.00    +0.000 C 
ENDBRANCH  19  21
ENDBRANCH  17  19
ENDBRANCH   1  17
TORSDOF 6
ENDMDL
MODEL 7
REMARK VINA RESULT:      -6.4      2.992      6.043
REMARK  Name = 
REMARK  7 active torsions:
REMARK  status: ('A' for Active; 'I' for Inactive)
REMARK    1  A    between atoms: C_1  and  C_2
REMARK    2  A    between atoms: C_2  and  O_3
REMARK    3  A    between atoms: O_3  and  C_4
REMARK    4  A    between atoms: C_4  and  C_6
REMARK    5  A    between atoms: C_7  and  C_8
REMARK    6  A    between atoms: C_12  and  C_13
REMARK    7  A    between atoms: C_18  and  N_19
REMARK                            x       y       z     vdW  Elec       q    Type
REMARK                         _______ _______ _______ _____ _____    ______ ____
ROOT
ATOM      1  C   UNL     1       2.631   4.318  18.878  0.00  0.00    +0.000 A 
ATOM      2  C   UNL     1       3.575   3.523  18.101  0.00  0.00    +0.000 A 
ATOM      3  C   UNL     1       3.215   2.189  18.106  0.00  0.00    +0.000 A 
ATOM      4  S   UNL     1       1.806   1.881  19.008  0.00  0.00    +0.000 S 
ATOM      5  C   UNL     1       1.627   3.528  19.419  0.00  0.00    +0.000 A 
ENDROOT
BRANCH   2   6
ATOM      6  C   UNL     1       4.793   3.959  17.399  0.00  0.00    +0.000 A 
ATOM      7  C   UNL     1       5.844   4.579  18.094  0.00  0.00    +0.000 A 
ATOM      8  C   UNL     1       6.998   4.999  17.427  0.00  0.00    +0.000 A 
ATOM      9  C   UNL     1       7.131   4.784  16.056  0.00  0.00    +0.000 A 
ATOM     10  C   UNL     1       6.100   4.165  15.347  0.00  0.00    +0.000 A 
ATOM     11  C   UNL     1       4.930   3.778  16.015  0.00  0.00    +0.000 A 
BRANCH  10  12
ATOM     12  C   UNL     1       6.231   3.923  13.942  0.00  0.00    +0.000 C 
ATOM     13  N   UNL     1       6.337   3.733  12.800  0.00  0.00    +0.000 NA
ENDBRANCH  10  12
ENDBRANCH   2   6
BRANCH   5  14
ATOM     14  N   UNL     1       0.566   3.907  20.169  0.00  0.00    +0.000 N 
ATOM     15  H   UNL     1       0.720   4.491  20.986  0.00  0.00    +0.000 HD
ATOM     16  H   UNL     1      -0.350   4.020  19.742  0.00  0.00    +0.000 HD
ENDBRANCH   5  14
BRANCH   1  17
ATOM     17  C   UNL     1       2.688   5.771  19.047  0.00  0.00    +0.000 C 
ATOM     18  O   UNL     1       2.828   6.316  20.135  0.00  0.00    +0.000 OA
BRANCH  17  19
ATOM     19  O   UNL     1       2.482   6.455  17.879  0.00  0.00    +0.000 OA
BRANCH  19  21
ATOM     20  C   UNL     1       2.136   8.855  17.734  0.00  0.00    +0.000 C 
ATOM     21  C   UNL     1       3.149   7.724  17.793  0.00  0.00    +0.000 C 
ENDBRANCH  19  21
ENDBRANCH  17  19
ENDBRANCH   1  17
TORSDOF 6
ENDMDL
MODEL 8
REMARK VINA RESULT:      -6.3      2.962      5.847
REMARK  Name = 
REMARK  7 active torsions:
REMARK  status: ('A' for Active; 'I' for Inactive)
REMARK    1  A    between atoms: C_1  and  C_2
REMARK    2  A    between atoms: C_2  and  O_3
REMARK    3  A    between atoms: O_3  and  C_4
REMARK    4  A    between atoms: C_4  and  C_6
REMARK    5  A    between atoms: C_7  and  C_8
REMARK    6  A    between atoms: C_12  and  C_13
REMARK    7  A    between atoms: C_18  and  N_19
REMARK                            x       y       z     vdW  Elec       q    Type
REMARK                         _______ _______ _______ _____ _____    ______ ____
ROOT
ATOM      1  C   UNL     1       2.673   4.460  18.955  0.00  0.00    +0.000 A 
ATOM      2  C   UNL     1       3.679   3.606  18.334  0.00  0.00    +0.000 A 
ATOM      3  C   UNL     1       3.383   2.271  18.538  0.00  0.00    +0.000 A 
ATOM      4  S   UNL     1       1.962   2.032  19.442  0.00  0.00    +0.000 S 
ATOM      5  C   UNL     1       1.691   3.712  19.588  0.00  0.00    +0.000 A 
ENDROOT
BRANCH   2   6
ATOM      6  C   UNL     1       4.897   3.991  17.603  0.00  0.00    +0.000 A 
ATOM      7  C   UNL     1       5.994   4.552  18.275  0.00  0.00    +0.000 A 
ATOM      8  C   UNL     1       7.149   4.925  17.580  0.00  0.00    +0.000 A 
ATOM      9  C   UNL     1       7.233   4.720  16.204  0.00  0.00    +0.000 A 
ATOM     10  C   UNL     1       6.156   4.159  15.518  0.00  0.00    +0.000 A 
ATOM     11  C   UNL     1       4.987   3.820  16.214  0.00  0.00    +0.000 A 
BRANCH  10  12
ATOM     12  C   UNL     1       6.236   3.928  14.107  0.00  0.00    +0.000 C 
ATOM     13  N   UNL     1       6.307   3.736  12.962  0.00  0.00    +0.000 NA
ENDBRANCH  10  12
ENDBRANCH   2   6
BRANCH   5  14
ATOM     14  N   UNL     1       0.590   4.146  20.243  0.00  0.00    +0.000 N 
ATOM     15  H   UNL     1       0.330   5.126  20.179  0.00  0.00    +0.000 HD
ATOM     16  H   UNL     1      -0.192   3.516  20.407  0.00  0.00    +0.000 HD
ENDBRANCH   5  14
BRANCH   1  17
ATOM     17  C   UNL     1       2.656   5.923  18.897  0.00  0.00    +0.000 C 
ATOM     18  O   UNL     1       2.930   6.559  17.887  0.00  0.00    +0.000 OA
BRANCH  17  19
ATOM     19  O   UNL     1       2.385   6.504  20.108  0.00  0.00    +0.000 OA
BRANCH  19  21
ATOM     20  C   UNL     1       1.077   8.178  21.284  0.00  0.00    +0.000 C 
ATOM     21  C   UNL     1       1.877   7.845  20.036  0.00  0.00    +0.000 C 
ENDBRANCH  19  21
ENDBRANCH  17  19
ENDBRANCH   1  17
TORSDOF 6
ENDMDL
MODEL 9
REMARK VINA RESULT:      -6.3      2.760      5.625
REMARK  Name = 
REMARK  7 active torsions:
REMARK  status: ('A' for Active; 'I' for Inactive)
REMARK    1  A    between atoms: C_1  and  C_2
REMARK    2  A    between atoms: C_2  and  O_3
REMARK    3  A    between atoms: O_3  and  C_4
REMARK    4  A    between atoms: C_4  and  C_6
REMARK    5  A    between atoms: C_7  and  C_8
REMARK    6  A    between atoms: C_12  and  C_13
REMARK    7  A    between atoms: C_18  and  N_19
REMARK                            x       y       z     vdW  Elec       q    Type
REMARK                         _______ _______ _______ _____ _____    ______ ____
ROOT
ATOM      1  C   UNL     1       2.613   4.443  19.251  0.00  0.00    +0.000 A 
ATOM      2  C   UNL     1       3.867   3.852  18.796  0.00  0.00    +0.000 A 
ATOM      3  C   UNL     1       3.796   2.472  18.819  0.00  0.00    +0.000 A 
ATOM      4  S   UNL     1       2.295   1.889  19.367  0.00  0.00    +0.000 S 
ATOM      5  C   UNL     1       1.685   3.468  19.588  0.00  0.00    +0.000 A 
ENDROOT
BRANCH   2   6
ATOM      6  C   UNL     1       5.110   4.524  18.384  0.00  0.00    +0.000 A 
ATOM      7  C   UNL     1       5.936   5.154  19.327  0.00  0.00    +0.000 A 
ATOM      8  C   UNL     1       7.114   5.798  18.935  0.00  0.00    +0.000 A 
ATOM      9  C   UNL     1       7.496   5.801  17.595  0.00  0.00    +0.000 A 
ATOM     10  C   UNL     1       6.692   5.176  16.642  0.00  0.00    +0.000 A 
ATOM     11  C   UNL     1       5.494   4.562  17.035  0.00  0.00    +0.000 A 
BRANCH  10  12
ATOM     12  C   UNL     1       7.081   5.157  15.264  0.00  0.00    +0.000 C 
ATOM     13  N   UNL     1       7.392   5.139  14.143  0.00  0.00    +0.000 NA
ENDBRANCH  10  12
ENDBRANCH   2   6
BRANCH   5  14
ATOM     14  N   UNL     1       0.413   3.627  20.021  0.00  0.00    +0.000 N 
ATOM     15  H   UNL     1       0.093   4.553  20.289  0.00  0.00    +0.000 HD
ATOM     16  H   UNL     1      -0.324   3.012  19.686  0.00  0.00    +0.000 HD
ENDBRANCH   5  14
BRANCH   1  17
ATOM     17  C   UNL     1       2.329   5.877  19.312  0.00  0.00    +0.000 C 
ATOM     18  O   UNL     1       2.062   6.466  20.352  0.00  0.00    +0.000 OA
BRANCH  17  19
ATOM     19  O   UNL     1       2.307   6.473  18.079  0.00  0.00    +0.000 OA
BRANCH  19  21
ATOM     20  C   UNL     1       1.939   8.858  17.801  0.00  0.00    +0.000 C 
ATOM     21  C   UNL     1       2.958   7.751  18.010  0.00  0.00    +0.000 C 
ENDBRANCH  19  21
ENDBRANCH  17  19
ENDBRANCH   1  17
TORSDOF 6
ENDMDL
