MODEL 1
REMARK VINA RESULT:      -7.2      0.000      0.000
REMARK  Name = 
REMARK  8 active torsions:
REMARK  status: ('A' for Active; 'I' for Inactive)
REMARK    1  A    between atoms: C_1  and  S_2
REMARK    2  A    between atoms: S_2  and  C_3
REMARK    3  A    between atoms: C_6  and  C_7
REMARK    4  A    between atoms: N_8  and  N_9
REMARK    5  A    between atoms: C_10  and  C_11
REMARK    6  A    between atoms: C_11  and  C_12
REMARK    7  A    between atoms: C_15  and  S_16
REMARK    8  A    between atoms: S_16  and  C_17
REMARK                            x       y       z     vdW  Elec       q    Type
REMARK                         _______ _______ _______ _____ _____    ______ ____
ROOT
ATOM      1  N   UNL     1       3.362   4.350  19.207  0.00  0.00    +0.000 N 
ATOM      2  C   UNL     1       4.692   4.196  18.979  0.00  0.00    +0.000 A 
ATOM      3  N   UNL     1       5.209   3.116  19.507  0.00  0.00    +0.000 NA
ATOM      4  N   UNL     1       4.163   2.525  20.159  0.00  0.00    +0.000 N 
ATOM      5  C   UNL     1       3.013   3.308  20.054  0.00  0.00    +0.000 A 
ATOM      6  S   UNL     1       1.621   2.951  20.887  0.00  0.00    +0.000 S 
ATOM      7  H   UNL     1       4.285   1.714  20.755  0.00  0.00    +0.000 HD
ENDROOT
BRANCH   1   9
ATOM      8  C   UNL     1       2.605   6.403  19.838  0.00  0.00    +0.000 C 
ATOM      9  N   UNL     1       2.675   5.493  18.917  0.00  0.00    +0.000 NA
BRANCH   8  13
ATOM     10  C   UNL     1       0.881  10.237  19.081  0.00  0.00    +0.000 A 
ATOM     11  C   UNL     1       1.606   9.583  18.079  0.00  0.00    +0.000 A 
ATOM     12  C   UNL     1       2.170   8.330  18.320  0.00  0.00    +0.000 A 
ATOM     13  C   UNL     1       2.021   7.731  19.573  0.00  0.00    +0.000 A 
ATOM     14  C   UNL     1       1.339   8.396  20.594  0.00  0.00    +0.000 A 
ATOM     15  C   UNL     1       0.771   9.651  20.346  0.00  0.00    +0.000 A 
BRANCH  10  17
ATOM     16  C   UNL     1       1.208  12.877  19.726  0.00  0.00    +0.000 C 
ATOM     17  S   UNL     1       0.099  11.807  18.767  0.00  0.00    +0.000 S 
ENDBRANCH  10  17
ENDBRANCH   8  13
ENDBRANCH   1   9
BRANCH   2  18
ATOM     18  C   UNL     1       5.496   5.160  18.154  0.00  0.00    +0.000 C 
BRANCH  18  19
ATOM     19  C   UNL     1       5.733   4.721  16.726  0.00  0.00    +0.000 A 
ATOM     20  C   UNL     1       4.752   4.011  16.014  0.00  0.00    +0.000 A 
ATOM     21  C   UNL     1       4.954   3.663  14.675  0.00  0.00    +0.000 A 
ATOM     22  C   UNL     1       6.136   4.045  14.037  0.00  0.00    +0.000 A 
ATOM     23  C   UNL     1       7.131   4.732  14.734  0.00  0.00    +0.000 A 
ATOM     24  C   UNL     1       6.924   5.073  16.071  0.00  0.00    +0.000 A 
BRANCH  22  25
ATOM     25  S   UNL     1       6.387   3.638  12.326  0.00  0.00    +0.000 S 
ATOM     26  C   UNL     1       4.760   3.789  11.635  0.00  0.00    +0.000 C 
ATOM     27  O   UNL     1       7.221   4.675  11.747  0.00  0.00    +0.000 OA
ATOM     28  O   UNL     1       6.778   2.242  12.255  0.00  0.00    +0.000 OA
ENDBRANCH  22  25
ENDBRANCH  18  19
ENDBRANCH   2  18
TORSDOF 6
ENDMDL
MODEL 2
REMARK VINA RESULT:      -7.1      0.664      1.467
REMARK  Name = 
REMARK  8 active torsions:
REMARK  status: ('A' for Active; 'I' for Inactive)
REMARK    1  A    between atoms: C_1  and  S_2
REMARK    2  A    between atoms: S_2  and  C_3
REMARK    3  A    between atoms: C_6  and  C_7
REMARK    4  A    between atoms: N_8  and  N_9
REMARK    5  A    between atoms: C_10  and  C_11
REMARK    6  A    between atoms: C_11  and  C_12
REMARK    7  A    between atoms: C_15  and  S_16
REMARK    8  A    between atoms: S_16  and  C_17
REMARK                            x       y       z     vdW  Elec       q    Type
REMARK                         _______ _______ _______ _____ _____    ______ ____
ROOT
ATOM      1  N   UNL     1       3.750   4.649  19.566  0.00  0.00    +0.000 N 
ATOM      2  C   UNL     1       4.922   4.154  19.087  0.00  0.00    +0.000 A 
ATOM      3  N   UNL     1       5.096   2.876  19.300  0.00  0.00    +0.000 NA
ATOM      4  N   UNL     1       3.984   2.494  19.996  0.00  0.00    +0.000 N 
ATOM      5  C   UNL     1       3.158   3.592  20.243  0.00  0.00    +0.000 A 
ATOM      6  S   UNL     1       1.817   3.488  21.217  0.00  0.00    +0.000 S 
ATOM      7  H   UNL     1       3.885   1.568  20.395  0.00  0.00    +0.000 HD
ENDROOT
BRANCH   1   9
ATOM      8  C   UNL     1       2.549   6.433  18.821  0.00  0.00    +0.000 C 
ATOM      9  N   UNL     1       3.462   5.980  19.623  0.00  0.00    +0.000 NA
BRANCH   8  13
ATOM     10  C   UNL     1       1.156  10.463  19.073  0.00  0.00    +0.000 A 
ATOM     11  C   UNL     1       0.985   9.593  20.154  0.00  0.00    +0.000 A 
ATOM     12  C   UNL     1       1.439   8.275  20.078  0.00  0.00    +0.000 A 
ATOM     13  C   UNL     1       2.057   7.821  18.911  0.00  0.00    +0.000 A 
ATOM     14  C   UNL     1       2.191   8.669  17.810  0.00  0.00    +0.000 A 
ATOM     15  C   UNL     1       1.738   9.990  17.893  0.00  0.00    +0.000 A 
BRANCH  10  17
ATOM     16  C   UNL     1      -0.878  11.947  20.147  0.00  0.00    +0.000 C 
ATOM     17  S   UNL     1       0.641  12.166  19.180  0.00  0.00    +0.000 S 
ENDBRANCH  10  17
ENDBRANCH   8  13
ENDBRANCH   1   9
BRANCH   2  18
ATOM     18  C   UNL     1       5.917   4.995  18.338  0.00  0.00    +0.000 C 
BRANCH  18  19
ATOM     19  C   UNL     1       5.995   4.706  16.855  0.00  0.00    +0.000 A 
ATOM     20  C   UNL     1       7.184   4.918  16.138  0.00  0.00    +0.000 A 
ATOM     21  C   UNL     1       7.266   4.590  14.781  0.00  0.00    +0.000 A 
ATOM     22  C   UNL     1       6.159   4.028  14.142  0.00  0.00    +0.000 A 
ATOM     23  C   UNL     1       4.962   3.830  14.833  0.00  0.00    +0.000 A 
ATOM     24  C   UNL     1       4.887   4.163  16.186  0.00  0.00    +0.000 A 
BRANCH  22  25
ATOM     25  S   UNL     1       6.264   3.575  12.428  0.00  0.00    +0.000 S 
ATOM     26  C   UNL     1       4.608   3.826  11.844  0.00  0.00    +0.000 C 
ATOM     27  O   UNL     1       7.125   4.540  11.771  0.00  0.00    +0.000 OA
ATOM     28  O   UNL     1       6.552   2.154  12.362  0.00  0.00    +0.000 OA
ENDBRANCH  22  25
ENDBRANCH  18  19
ENDBRANCH   2  18
TORSDOF 6
ENDMDL
MODEL 3
REMARK VINA RESULT:      -7.0      0.877      1.660
REMARK  Name = 
REMARK  8 active torsions:
REMARK  status: ('A' for Active; 'I' for Inactive)
REMARK    1  A    between atoms: C_1  and  S_2
REMARK    2  A    between atoms: S_2  and  C_3
REMARK    3  A    between atoms: C_6  and  C_7
REMARK    4  A    between atoms: N_8  and  N_9
REMARK    5  A    between atoms: C_10  and  C_11
REMARK    6  A    between atoms: C_11  and  C_12
REMARK    7  A    between atoms: C_15  and  S_16
REMARK    8  A    between atoms: S_16  and  C_17
REMARK                            x       y       z     vdW  Elec       q    Type
REMARK                         _______ _______ _______ _____ _____    ______ ____
ROOT
ATOM      1  N   UNL     1       3.424   4.190  19.274  0.00  0.00    +0.000 N 
ATOM      2  C   UNL     1       4.763   4.007  19.132  0.00  0.00    +0.000 A 
ATOM      3  N   UNL     1       5.218   2.905  19.669  0.00  0.00    +0.000 NA
ATOM      4  N   UNL     1       4.118   2.327  20.237  0.00  0.00    +0.000 N 
ATOM      5  C   UNL     1       2.995   3.140  20.073  0.00  0.00    +0.000 A 
ATOM      6  S   UNL     1       1.543   2.799  20.802  0.00  0.00    +0.000 S 
ATOM      7  H   UNL     1       4.180   1.501  20.822  0.00  0.00    +0.000 HD
ENDROOT
BRANCH   1   9
ATOM      8  C   UNL     1       2.594   6.209  19.920  0.00  0.00    +0.000 C 
ATOM      9  N   UNL     1       2.785   5.354  18.963  0.00  0.00    +0.000 NA
BRANCH   8  13
ATOM     10  C   UNL     1       1.061  10.122  19.154  0.00  0.00    +0.000 A 
ATOM     11  C   UNL     1       0.870   9.525  20.404  0.00  0.00    +0.000 A 
ATOM     12  C   UNL     1       1.370   8.248  20.661  0.00  0.00    +0.000 A 
ATOM     13  C   UNL     1       2.054   7.556  19.659  0.00  0.00    +0.000 A 
ATOM     14  C   UNL     1       2.210   8.125  18.393  0.00  0.00    +0.000 A 
ATOM     15  C   UNL     1       1.711   9.408  18.142  0.00  0.00    +0.000 A 
BRANCH  10  17
ATOM     16  C   UNL     1      -0.928  11.817  19.969  0.00  0.00    +0.000 C 
ATOM     17  S   UNL     1       0.487  11.778  18.833  0.00  0.00    +0.000 S 
ENDBRANCH  10  17
ENDBRANCH   8  13
ENDBRANCH   1   9
BRANCH   2  18
ATOM     18  C   UNL     1       5.643   4.969  18.383  0.00  0.00    +0.000 C 
BRANCH  18  19
ATOM     19  C   UNL     1       5.750   4.699  16.899  0.00  0.00    +0.000 A 
ATOM     20  C   UNL     1       6.916   5.021  16.186  0.00  0.00    +0.000 A 
ATOM     21  C   UNL     1       7.031   4.711  14.828  0.00  0.00    +0.000 A 
ATOM     22  C   UNL     1       5.979   4.058  14.182  0.00  0.00    +0.000 A 
ATOM     23  C   UNL     1       4.804   3.748  14.867  0.00  0.00    +0.000 A 
ATOM     24  C   UNL     1       4.695   4.064  16.223  0.00  0.00    +0.000 A 
BRANCH  22  25
ATOM     25  S   UNL     1       6.128   3.628  12.464  0.00  0.00    +0.000 S 
ATOM     26  C   UNL     1       7.324   4.793  11.862  0.00  0.00    +0.000 C 
ATOM     27  O   UNL     1       6.715   2.303  12.392  0.00  0.00    +0.000 OA
ATOM     28  O   UNL     1       4.858   3.916  11.823  0.00  0.00    +0.000 OA
ENDBRANCH  22  25
ENDBRANCH  18  19
ENDBRANCH   2  18
TORSDOF 6
ENDMDL
MODEL 4
REMARK VINA RESULT:      -7.0      1.041      1.498
REMARK  Name = 
REMARK  8 active torsions:
REMARK  status: ('A' for Active; 'I' for Inactive)
REMARK    1  A    between atoms: C_1  and  S_2
REMARK    2  A    between atoms: S_2  and  C_3
REMARK    3  A    between atoms: C_6  and  C_7
REMARK    4  A    between atoms: N_8  and  N_9
REMARK    5  A    between atoms: C_10  and  C_11
REMARK    6  A    between atoms: C_11  and  C_12
REMARK    7  A    between atoms: C_15  and  S_16
REMARK    8  A    between atoms: S_16  and  C_17
REMARK                            x       y       z     vdW  Elec       q    Type
REMARK                         _______ _______ _______ _____ _____    ______ ____
ROOT
ATOM      1  N   UNL     1       3.629   4.346  19.815  0.00  0.00    +0.000 N 
ATOM      2  C   UNL     1       4.825   3.950  19.308  0.00  0.00    +0.000 A 
ATOM      3  N   UNL     1       5.090   2.680  19.479  0.00  0.00    +0.000 NA
ATOM      4  N   UNL     1       4.016   2.201  20.174  0.00  0.00    +0.000 N 
ATOM      5  C   UNL     1       3.120   3.231  20.465  0.00  0.00    +0.000 A 
ATOM      6  S   UNL     1       1.802   3.004  21.450  0.00  0.00    +0.000 S 
ATOM      7  H   UNL     1       3.986   1.258  20.545  0.00  0.00    +0.000 HD
ENDROOT
BRANCH   1   9
ATOM      8  C   UNL     1       2.804   6.235  18.849  0.00  0.00    +0.000 C 
ATOM      9  N   UNL     1       3.250   5.652  19.919  0.00  0.00    +0.000 NA
BRANCH   8  13
ATOM     10  C   UNL     1       1.102  10.151  18.976  0.00  0.00    +0.000 A 
ATOM     11  C   UNL     1       1.737   9.699  17.815  0.00  0.00    +0.000 A 
ATOM     12  C   UNL     1       2.294   8.421  17.767  0.00  0.00    +0.000 A 
ATOM     13  C   UNL     1       2.227   7.592  18.890  0.00  0.00    +0.000 A 
ATOM     14  C   UNL     1       1.635   8.051  20.069  0.00  0.00    +0.000 A 
ATOM     15  C   UNL     1       1.075   9.333  20.110  0.00  0.00    +0.000 A 
BRANCH  10  17
ATOM     16  C   UNL     1      -1.396  11.236  19.250  0.00  0.00    +0.000 C 
ATOM     17  S   UNL     1       0.329  11.756  19.030  0.00  0.00    +0.000 S 
ENDBRANCH  10  17
ENDBRANCH   8  13
ENDBRANCH   1   9
BRANCH   2  18
ATOM     18  C   UNL     1       5.749   4.880  18.576  0.00  0.00    +0.000 C 
BRANCH  18  19
ATOM     19  C   UNL     1       5.830   4.641  17.084  0.00  0.00    +0.000 A 
ATOM     20  C   UNL     1       7.053   4.737  16.399  0.00  0.00    +0.000 A 
ATOM     21  C   UNL     1       7.130   4.455  15.033  0.00  0.00    +0.000 A 
ATOM     22  C   UNL     1       5.980   4.053  14.349  0.00  0.00    +0.000 A 
ATOM     23  C   UNL     1       4.751   3.972  15.007  0.00  0.00    +0.000 A 
ATOM     24  C   UNL     1       4.682   4.260  16.371  0.00  0.00    +0.000 A 
BRANCH  22  25
ATOM     25  S   UNL     1       6.074   3.657  12.620  0.00  0.00    +0.000 S 
ATOM     26  C   UNL     1       7.252   4.832  12.002  0.00  0.00    +0.000 C 
ATOM     27  O   UNL     1       6.655   2.333  12.503  0.00  0.00    +0.000 OA
ATOM     28  O   UNL     1       4.784   3.959  12.025  0.00  0.00    +0.000 OA
ENDBRANCH  22  25
ENDBRANCH  18  19
ENDBRANCH   2  18
TORSDOF 6
ENDMDL
MODEL 5
REMARK VINA RESULT:      -7.0      0.511      1.052
REMARK  Name = 
REMARK  8 active torsions:
REMARK  status: ('A' for Active; 'I' for Inactive)
REMARK    1  A    between atoms: C_1  and  S_2
REMARK    2  A    between atoms: S_2  and  C_3
REMARK    3  A    between atoms: C_6  and  C_7
REMARK    4  A    between atoms: N_8  and  N_9
REMARK    5  A    between atoms: C_10  and  C_11
REMARK    6  A    between atoms: C_11  and  C_12
REMARK    7  A    between atoms: C_15  and  S_16
REMARK    8  A    between atoms: S_16  and  C_17
REMARK                            x       y       z     vdW  Elec       q    Type
REMARK                         _______ _______ _______ _____ _____    ______ ____
ROOT
ATOM      1  N   UNL     1       3.660   4.429  19.718  0.00  0.00    +0.000 N 
ATOM      2  C   UNL     1       4.823   4.021  19.148  0.00  0.00    +0.000 A 
ATOM      3  N   UNL     1       5.086   2.749  19.305  0.00  0.00    +0.000 NA
ATOM      4  N   UNL     1       4.046   2.281  20.058  0.00  0.00    +0.000 N 
ATOM      5  C   UNL     1       3.176   3.319  20.396  0.00  0.00    +0.000 A 
ATOM      6  S   UNL     1       1.912   3.105  21.450  0.00  0.00    +0.000 S 
ATOM      7  H   UNL     1       4.027   1.338  20.431  0.00  0.00    +0.000 HD
ENDROOT
BRANCH   1   9
ATOM      8  C   UNL     1       2.681   6.288  18.840  0.00  0.00    +0.000 C 
ATOM      9  N   UNL     1       3.299   5.739  19.840  0.00  0.00    +0.000 NA
BRANCH   8  13
ATOM     10  C   UNL     1       1.072  10.237  19.091  0.00  0.00    +0.000 A 
ATOM     11  C   UNL     1       1.058   9.400  20.211  0.00  0.00    +0.000 A 
ATOM     12  C   UNL     1       1.583   8.110  20.137  0.00  0.00    +0.000 A 
ATOM     13  C   UNL     1       2.115   7.646  18.931  0.00  0.00    +0.000 A 
ATOM     14  C   UNL     1       2.093   8.457  17.794  0.00  0.00    +0.000 A 
ATOM     15  C   UNL     1       1.569   9.752  17.876  0.00  0.00    +0.000 A 
BRANCH  10  17
ATOM     16  C   UNL     1       2.047  12.794  19.095  0.00  0.00    +0.000 C 
ATOM     17  S   UNL     1       0.466  11.909  19.190  0.00  0.00    +0.000 S 
ENDBRANCH  10  17
ENDBRANCH   8  13
ENDBRANCH   1   9
BRANCH   2  18
ATOM     18  C   UNL     1       5.716   4.942  18.365  0.00  0.00    +0.000 C 
BRANCH  18  19
ATOM     19  C   UNL     1       5.882   4.570  16.908  0.00  0.00    +0.000 A 
ATOM     20  C   UNL     1       4.799   4.084  16.157  0.00  0.00    +0.000 A 
ATOM     21  C   UNL     1       4.945   3.801  14.796  0.00  0.00    +0.000 A 
ATOM     22  C   UNL     1       6.177   4.024  14.177  0.00  0.00    +0.000 A 
ATOM     23  C   UNL     1       7.270   4.486  14.911  0.00  0.00    +0.000 A 
ATOM     24  C   UNL     1       7.117   4.762  16.270  0.00  0.00    +0.000 A 
BRANCH  22  25
ATOM     25  S   UNL     1       6.363   3.701  12.440  0.00  0.00    +0.000 S 
ATOM     26  C   UNL     1       4.706   3.852  11.823  0.00  0.00    +0.000 C 
ATOM     27  O   UNL     1       7.154   4.778  11.875  0.00  0.00    +0.000 OA
ATOM     28  O   UNL     1       6.774   2.317  12.288  0.00  0.00    +0.000 OA
ENDBRANCH  22  25
ENDBRANCH  18  19
ENDBRANCH   2  18
TORSDOF 6
ENDMDL
MODEL 6
REMARK VINA RESULT:      -6.9      3.942      8.277
REMARK  Name = 
REMARK  8 active torsions:
REMARK  status: ('A' for Active; 'I' for Inactive)
REMARK    1  A    between atoms: C_1  and  S_2
REMARK    2  A    between atoms: S_2  and  C_3
REMARK    3  A    between atoms: C_6  and  C_7
REMARK    4  A    between atoms: N_8  and  N_9
REMARK    5  A    between atoms: C_10  and  C_11
REMARK    6  A    between atoms: C_11  and  C_12
REMARK    7  A    between atoms: C_15  and  S_16
REMARK    8  A    between atoms: S_16  and  C_17
REMARK                            x       y       z     vdW  Elec       q    Type
REMARK                         _______ _______ _______ _____ _____    ______ ____
ROOT
ATOM      1  N   UNL     1       2.466   4.682  19.053  0.00  0.00    +0.000 N 
ATOM      2  C   UNL     1       2.124   5.641  19.953  0.00  0.00    +0.000 A 
ATOM      3  N   UNL     1       1.244   5.259  20.842  0.00  0.00    +0.000 NA
ATOM      4  N   UNL     1       0.952   3.970  20.496  0.00  0.00    +0.000 N 
ATOM      5  C   UNL     1       1.642   3.603  19.340  0.00  0.00    +0.000 A 
ATOM      6  S   UNL     1       1.366   2.160  18.566  0.00  0.00    +0.000 S 
ATOM      7  H   UNL     1       0.215   3.441  20.948  0.00  0.00    +0.000 HD
ENDROOT
BRANCH   1   9
ATOM      8  C   UNL     1       4.444   4.530  17.936  0.00  0.00    +0.000 C 
ATOM      9  N   UNL     1       3.209   4.928  17.936  0.00  0.00    +0.000 NA
BRANCH   8  13
ATOM     10  C   UNL     1       6.883   4.792  14.439  0.00  0.00    +0.000 A 
ATOM     11  C   UNL     1       5.574   4.308  14.348  0.00  0.00    +0.000 A 
ATOM     12  C   UNL     1       4.772   4.221  15.486  0.00  0.00    +0.000 A 
ATOM     13  C   UNL     1       5.284   4.608  16.727  0.00  0.00    +0.000 A 
ATOM     14  C   UNL     1       6.604   5.050  16.836  0.00  0.00    +0.000 A 
ATOM     15  C   UNL     1       7.402   5.140  15.690  0.00  0.00    +0.000 A 
BRANCH  10  17
ATOM     16  C   UNL     1       7.015   3.833  11.879  0.00  0.00    +0.000 C 
ATOM     17  S   UNL     1       7.896   4.971  12.985  0.00  0.00    +0.000 S 
ENDBRANCH  10  17
ENDBRANCH   8  13
ENDBRANCH   1   9
BRANCH   2  18
ATOM     18  C   UNL     1       2.736   7.014  19.955  0.00  0.00    +0.000 C 
BRANCH  18  19
ATOM     19  C   UNL     1       1.762   8.137  19.677  0.00  0.00    +0.000 A 
ATOM     20  C   UNL     1       1.004   8.710  20.712  0.00  0.00    +0.000 A 
ATOM     21  C   UNL     1       0.152   9.789  20.458  0.00  0.00    +0.000 A 
ATOM     22  C   UNL     1       0.072  10.312  19.165  0.00  0.00    +0.000 A 
ATOM     23  C   UNL     1       0.801   9.743  18.120  0.00  0.00    +0.000 A 
ATOM     24  C   UNL     1       1.647   8.663  18.381  0.00  0.00    +0.000 A 
BRANCH  22  25
ATOM     25  S   UNL     1      -0.981  11.705  18.840  0.00  0.00    +0.000 S 
ATOM     26  C   UNL     1      -2.016  11.126  17.520  0.00  0.00    +0.000 C 
ATOM     27  O   UNL     1      -1.815  11.909  20.010  0.00  0.00    +0.000 OA
ATOM     28  O   UNL     1      -0.150  12.777  18.322  0.00  0.00    +0.000 OA
ENDBRANCH  22  25
ENDBRANCH  18  19
ENDBRANCH   2  18
TORSDOF 6
ENDMDL
MODEL 7
REMARK VINA RESULT:      -6.9      0.877      1.011
REMARK  Name = 
REMARK  8 active torsions:
REMARK  status: ('A' for Active; 'I' for Inactive)
REMARK    1  A    between atoms: C_1  and  S_2
REMARK    2  A    between atoms: S_2  and  C_3
REMARK    3  A    between atoms: C_6  and  C_7
REMARK    4  A    between atoms: N_8  and  N_9
REMARK    5  A    between atoms: C_10  and  C_11
REMARK    6  A    between atoms: C_11  and  C_12
REMARK    7  A    between atoms: C_15  and  S_16
REMARK    8  A    between atoms: S_16  and  C_17
REMARK                            x       y       z     vdW  Elec       q    Type
REMARK                         _______ _______ _______ _____ _____    ______ ____
ROOT
ATOM      1  N   UNL     1       3.657   4.412  19.799  0.00  0.00    +0.000 N 
ATOM      2  C   UNL     1       4.820   3.976  19.251  0.00  0.00    +0.000 A 
ATOM      3  N   UNL     1       5.064   2.705  19.442  0.00  0.00    +0.000 NA
ATOM      4  N   UNL     1       4.011   2.268  20.195  0.00  0.00    +0.000 N 
ATOM      5  C   UNL     1       3.152   3.325  20.498  0.00  0.00    +0.000 A 
ATOM      6  S   UNL     1       1.874   3.153  21.545  0.00  0.00    +0.000 S 
ATOM      7  H   UNL     1       3.977   1.335  20.590  0.00  0.00    +0.000 HD
ENDROOT
BRANCH   1   9
ATOM      8  C   UNL     1       2.684   6.254  18.880  0.00  0.00    +0.000 C 
ATOM      9  N   UNL     1       3.312   5.729  19.886  0.00  0.00    +0.000 NA
BRANCH   8  13
ATOM     10  C   UNL     1       1.059  10.200  19.056  0.00  0.00    +0.000 A 
ATOM     11  C   UNL     1       1.663   9.742  17.881  0.00  0.00    +0.000 A 
ATOM     12  C   UNL     1       2.195   8.453  17.817  0.00  0.00    +0.000 A 
ATOM     13  C   UNL     1       2.134   7.621  18.937  0.00  0.00    +0.000 A 
ATOM     14  C   UNL     1       1.574   8.086  20.129  0.00  0.00    +0.000 A 
ATOM     15  C   UNL     1       1.038   9.377  20.187  0.00  0.00    +0.000 A 
BRANCH  10  17
ATOM     16  C   UNL     1       1.810  12.805  19.438  0.00  0.00    +0.000 C 
ATOM     17  S   UNL     1       0.318  11.819  19.132  0.00  0.00    +0.000 S 
ENDBRANCH  10  17
ENDBRANCH   8  13
ENDBRANCH   1   9
BRANCH   2  18
ATOM     18  C   UNL     1       5.733   4.866  18.456  0.00  0.00    +0.000 C 
BRANCH  18  19
ATOM     19  C   UNL     1       5.840   4.509  16.990  0.00  0.00    +0.000 A 
ATOM     20  C   UNL     1       4.712   4.099  16.259  0.00  0.00    +0.000 A 
ATOM     21  C   UNL     1       4.807   3.830  14.891  0.00  0.00    +0.000 A 
ATOM     22  C   UNL     1       6.034   3.991  14.244  0.00  0.00    +0.000 A 
ATOM     23  C   UNL     1       7.171   4.376  14.956  0.00  0.00    +0.000 A 
ATOM     24  C   UNL     1       7.069   4.639  16.323  0.00  0.00    +0.000 A 
BRANCH  22  25
ATOM     25  S   UNL     1       6.158   3.686  12.498  0.00  0.00    +0.000 S 
ATOM     26  C   UNL     1       7.316   4.916  11.956  0.00  0.00    +0.000 C 
ATOM     27  O   UNL     1       6.770   2.382  12.322  0.00  0.00    +0.000 OA
ATOM     28  O   UNL     1       4.869   3.989  11.903  0.00  0.00    +0.000 OA
ENDBRANCH  22  25
ENDBRANCH  18  19
ENDBRANCH   2  18
TORSDOF 6
ENDMDL
MODEL 8
REMARK VINA RESULT:      -6.8      3.955      8.378
REMARK  Name = 
REMARK  8 active torsions:
REMARK  status: ('A' for Active; 'I' for Inactive)
REMARK    1  A    between atoms: C_1  and  S_2
REMARK    2  A    between atoms: S_2  and  C_3
REMARK    3  A    between atoms: C_6  and  C_7
REMARK    4  A    between atoms: N_8  and  N_9
REMARK    5  A    between atoms: C_10  and  C_11
REMARK    6  A    between atoms: C_11  and  C_12
REMARK    7  A    between atoms: C_15  and  S_16
REMARK    8  A    between atoms: S_16  and  C_17
REMARK                            x       y       z     vdW  Elec       q    Type
REMARK                         _______ _______ _______ _____ _____    ______ ____
ROOT
ATOM      1  N   UNL     1       2.471   4.783  19.065  0.00  0.00    +0.000 N 
ATOM      2  C   UNL     1       2.112   5.723  19.978  0.00  0.00    +0.000 A 
ATOM      3  N   UNL     1       1.223   5.319  20.848  0.00  0.00    +0.000 NA
ATOM      4  N   UNL     1       0.944   4.035  20.474  0.00  0.00    +0.000 N 
ATOM      5  C   UNL     1       1.651   3.694  19.321  0.00  0.00    +0.000 A 
ATOM      6  S   UNL     1       1.395   2.263  18.517  0.00  0.00    +0.000 S 
ATOM      7  H   UNL     1       0.204   3.493  20.907  0.00  0.00    +0.000 HD
ENDROOT
BRANCH   1   9
ATOM      8  C   UNL     1       4.415   4.534  17.906  0.00  0.00    +0.000 C 
ATOM      9  N   UNL     1       3.228   5.054  17.963  0.00  0.00    +0.000 NA
BRANCH   8  13
ATOM     10  C   UNL     1       6.824   4.803  14.389  0.00  0.00    +0.000 A 
ATOM     11  C   UNL     1       7.361   5.141  15.635  0.00  0.00    +0.000 A 
ATOM     12  C   UNL     1       6.579   5.054  16.788  0.00  0.00    +0.000 A 
ATOM     13  C   UNL     1       5.249   4.638  16.694  0.00  0.00    +0.000 A 
ATOM     14  C   UNL     1       4.690   4.342  15.449  0.00  0.00    +0.000 A 
ATOM     15  C   UNL     1       5.480   4.427  14.297  0.00  0.00    +0.000 A 
BRANCH  10  17
ATOM     16  C   UNL     1       6.948   3.602  11.932  0.00  0.00    +0.000 C 
ATOM     17  S   UNL     1       7.829   4.845  12.918  0.00  0.00    +0.000 S 
ENDBRANCH  10  17
ENDBRANCH   8  13
ENDBRANCH   1   9
BRANCH   2  18
ATOM     18  C   UNL     1       2.715   7.099  20.013  0.00  0.00    +0.000 C 
BRANCH  18  19
ATOM     19  C   UNL     1       1.739   8.220  19.730  0.00  0.00    +0.000 A 
ATOM     20  C   UNL     1       1.605   8.755  18.438  0.00  0.00    +0.000 A 
ATOM     21  C   UNL     1       0.658   9.748  18.171  0.00  0.00    +0.000 A 
ATOM     22  C   UNL     1      -0.174  10.196  19.199  0.00  0.00    +0.000 A 
ATOM     23  C   UNL     1      -0.042   9.693  20.494  0.00  0.00    +0.000 A 
ATOM     24  C   UNL     1       0.909   8.704  20.753  0.00  0.00    +0.000 A 
BRANCH  22  25
ATOM     25  S   UNL     1      -1.405  11.432  18.863  0.00  0.00    +0.000 S 
ATOM     26  C   UNL     1      -1.806  12.048  20.478  0.00  0.00    +0.000 C 
ATOM     27  O   UNL     1      -0.763  12.501  18.120  0.00  0.00    +0.000 OA
ATOM     28  O   UNL     1      -2.577  10.759  18.336  0.00  0.00    +0.000 OA
ENDBRANCH  22  25
ENDBRANCH  18  19
ENDBRANCH   2  18
TORSDOF 6
ENDMDL
MODEL 9
REMARK VINA RESULT:      -6.7      0.943      1.048
REMARK  Name = 
REMARK  8 active torsions:
REMARK  status: ('A' for Active; 'I' for Inactive)
REMARK    1  A    between atoms: C_1  and  S_2
REMARK    2  A    between atoms: S_2  and  C_3
REMARK    3  A    between atoms: C_6  and  C_7
REMARK    4  A    between atoms: N_8  and  N_9
REMARK    5  A    between atoms: C_10  and  C_11
REMARK    6  A    between atoms: C_11  and  C_12
REMARK    7  A    between atoms: C_15  and  S_16
REMARK    8  A    between atoms: S_16  and  C_17
REMARK                            x       y       z     vdW  Elec       q    Type
REMARK                         _______ _______ _______ _____ _____    ______ ____
ROOT
ATOM      1  N   UNL     1       3.884   4.568  19.472  0.00  0.00    +0.000 N 
ATOM      2  C   UNL     1       5.049   4.023  19.037  0.00  0.00    +0.000 A 
ATOM      3  N   UNL     1       5.199   2.758  19.335  0.00  0.00    +0.000 NA
ATOM      4  N   UNL     1       4.074   2.443  20.045  0.00  0.00    +0.000 N 
ATOM      5  C   UNL     1       3.267   3.569  20.213  0.00  0.00    +0.000 A 
ATOM      6  S   UNL     1       1.918   3.554  21.181  0.00  0.00    +0.000 S 
ATOM      7  H   UNL     1       3.955   1.547  20.503  0.00  0.00    +0.000 HD
ENDROOT
BRANCH   1   9
ATOM      8  C   UNL     1       2.512   6.287  18.882  0.00  0.00    +0.000 C 
ATOM      9  N   UNL     1       3.619   5.906  19.439  0.00  0.00    +0.000 NA
BRANCH   8  13
ATOM     10  C   UNL     1       1.176  10.341  19.033  0.00  0.00    +0.000 A 
ATOM     11  C   UNL     1       1.820   9.856  17.891  0.00  0.00    +0.000 A 
ATOM     12  C   UNL     1       2.258   8.533  17.834  0.00  0.00    +0.000 A 
ATOM     13  C   UNL     1       2.062   7.690  18.931  0.00  0.00    +0.000 A 
ATOM     14  C   UNL     1       1.461   8.177  20.094  0.00  0.00    +0.000 A 
ATOM     15  C   UNL     1       1.020   9.504  20.143  0.00  0.00    +0.000 A 
BRANCH  10  17
ATOM     16  C   UNL     1      -0.527  11.860  20.545  0.00  0.00    +0.000 C 
ATOM     17  S   UNL     1       0.553  12.009  19.094  0.00  0.00    +0.000 S 
ENDBRANCH  10  17
ENDBRANCH   8  13
ENDBRANCH   1   9
BRANCH   2  18
ATOM     18  C   UNL     1       6.065   4.794  18.242  0.00  0.00    +0.000 C 
BRANCH  18  19
ATOM     19  C   UNL     1       6.078   4.477  16.763  0.00  0.00    +0.000 A 
ATOM     20  C   UNL     1       4.947   3.941  16.126  0.00  0.00    +0.000 A 
ATOM     21  C   UNL     1       4.947   3.709  14.747  0.00  0.00    +0.000 A 
ATOM     22  C   UNL     1       6.079   4.034  13.997  0.00  0.00    +0.000 A 
ATOM     23  C   UNL     1       7.220   4.548  14.614  0.00  0.00    +0.000 A 
ATOM     24  C   UNL     1       7.214   4.773  15.992  0.00  0.00    +0.000 A 
BRANCH  22  25
ATOM     25  S   UNL     1       6.077   3.777  12.239  0.00  0.00    +0.000 S 
ATOM     26  C   UNL     1       6.430   2.045  12.087  0.00  0.00    +0.000 C 
ATOM     27  O   UNL     1       4.725   4.004  11.764  0.00  0.00    +0.000 OA
ATOM     28  O   UNL     1       7.195   4.514  11.682  0.00  0.00    +0.000 OA
ENDBRANCH  22  25
ENDBRANCH  18  19
ENDBRANCH   2  18
TORSDOF 6
ENDMDL
