MODEL 1
REMARK VINA RESULT:      -7.9      0.000      0.000
REMARK  Name = 
REMARK  7 active torsions:
REMARK  status: ('A' for Active; 'I' for Inactive)
REMARK    1  A    between atoms: C_1  and  C_2
REMARK    2  A    between atoms: C_5  and  N_6
REMARK    3  A    between atoms: N_6  and  S_7
REMARK    4  A    between atoms: S_7  and  C_10
REMARK    5  A    between atoms: C_13  and  C_14
REMARK    6  A    between atoms: C_15  and  N_16
REMARK    7  A    between atoms: C_20  and  N_21
REMARK                            x       y       z     vdW  Elec       q    Type
REMARK                         _______ _______ _______ _____ _____    ______ ____
ROOT
ATOM      1  S   UNL     1       2.578   5.867  19.191  0.00  0.00    +0.000 S 
ATOM      2  O   UNL     1       1.833   5.353  18.060  0.00  0.00    +0.000 OA
ATOM      3  O   UNL     1       2.637   5.151  20.446  0.00  0.00    +0.000 OA
ENDROOT
BRANCH   1   4
ATOM      4  C   UNL     1       1.969   7.502  19.503  0.00  0.00    +0.000 A 
ATOM      5  C   UNL     1       1.932   8.455  18.492  0.00  0.00    +0.000 A 
ATOM      6  C   UNL     1       1.402   9.719  18.766  0.00  0.00    +0.000 A 
ATOM      7  C   UNL     1       0.891  10.045  20.042  0.00  0.00    +0.000 A 
ATOM      8  C   UNL     1       0.318  11.424  20.229  0.00  0.00    +0.000 C 
ATOM      9  C   UNL     1       0.946   9.061  21.057  0.00  0.00    +0.000 A 
ATOM     10  C   UNL     1       1.513   7.805  20.789  0.00  0.00    +0.000 A 
BRANCH   9  11
ATOM     11  N   UNL     1       0.403   9.271  22.417  0.00  0.00    +0.000 N 
ATOM     12  O   UNL     1      -0.787   9.011  22.636  0.00  0.00    +0.000 OA
ATOM     13  O   UNL     1       1.177   9.711  23.283  0.00  0.00    +0.000 OA
ENDBRANCH   9  11
ENDBRANCH   1   4
BRANCH   1  14
ATOM     14  N   UNL     1       4.146   6.163  18.638  0.00  0.00    +0.000 N 
ATOM     15  H   UNL     1       4.456   7.115  18.844  0.00  0.00    +0.000 HD
BRANCH  14  20
ATOM     16  C   UNL     1       6.277   3.973  13.759  0.00  0.00    +0.000 C 
ATOM     17  C   UNL     1       5.703   4.540  15.025  0.00  0.00    +0.000 A 
ATOM     18  C   UNL     1       5.484   5.908  15.185  0.00  0.00    +0.000 A 
ATOM     19  C   UNL     1       4.954   6.403  16.382  0.00  0.00    +0.000 A 
ATOM     20  C   UNL     1       4.620   5.547  17.442  0.00  0.00    +0.000 A 
ATOM     21  C   UNL     1       4.867   4.171  17.290  0.00  0.00    +0.000 A 
ATOM     22  C   UNL     1       5.395   3.678  16.080  0.00  0.00    +0.000 A 
BRANCH  21  23
ATOM     23  N   UNL     1       4.636   3.188  18.355  0.00  0.00    +0.000 N 
ATOM     24  O   UNL     1       3.823   2.277  18.161  0.00  0.00    +0.000 OA
ATOM     25  O   UNL     1       5.258   3.336  19.417  0.00  0.00    +0.000 OA
ENDBRANCH  21  23
ENDBRANCH  14  20
ENDBRANCH   1  14
TORSDOF 5
ENDMDL
MODEL 2
REMARK VINA RESULT:      -7.9      4.383      6.067
REMARK  Name = 
REMARK  7 active torsions:
REMARK  status: ('A' for Active; 'I' for Inactive)
REMARK    1  A    between atoms: C_1  and  C_2
REMARK    2  A    between atoms: C_5  and  N_6
REMARK    3  A    between atoms: N_6  and  S_7
REMARK    4  A    between atoms: S_7  and  C_10
REMARK    5  A    between atoms: C_13  and  C_14
REMARK    6  A    between atoms: C_15  and  N_16
REMARK    7  A    between atoms: C_20  and  N_21
REMARK                            x       y       z     vdW  Elec       q    Type
REMARK                         _______ _______ _______ _____ _____    ______ ____
ROOT
ATOM      1  S   UNL     1       7.068   5.741  16.600  0.00  0.00    +0.000 S 
ATOM      2  O   UNL     1       7.813   4.502  16.512  0.00  0.00    +0.000 OA
ATOM      3  O   UNL     1       7.667   6.948  17.122  0.00  0.00    +0.000 OA
ENDROOT
BRANCH   1   4
ATOM      4  C   UNL     1       5.602   5.391  17.532  0.00  0.00    +0.000 A 
ATOM      5  C   UNL     1       4.589   6.336  17.650  0.00  0.00    +0.000 A 
ATOM      6  C   UNL     1       3.428   6.007  18.354  0.00  0.00    +0.000 A 
ATOM      7  C   UNL     1       3.254   4.731  18.937  0.00  0.00    +0.000 A 
ATOM      8  C   UNL     1       1.957   4.464  19.653  0.00  0.00    +0.000 C 
ATOM      9  C   UNL     1       4.302   3.789  18.810  0.00  0.00    +0.000 A 
ATOM     10  C   UNL     1       5.482   4.136  18.133  0.00  0.00    +0.000 A 
BRANCH   9  11
ATOM     11  N   UNL     1       4.218   2.409  19.338  0.00  0.00    +0.000 N 
ATOM     12  O   UNL     1       3.492   1.588  18.763  0.00  0.00    +0.000 OA
ATOM     13  O   UNL     1       4.883   2.141  20.353  0.00  0.00    +0.000 OA
ENDBRANCH   9  11
ENDBRANCH   1   4
BRANCH   1  14
ATOM     14  N   UNL     1       6.454   6.041  15.055  0.00  0.00    +0.000 N 
ATOM     15  H   UNL     1       5.695   6.726  15.067  0.00  0.00    +0.000 HD
BRANCH  14  20
ATOM     16  C   UNL     1       5.879   1.843  11.159  0.00  0.00    +0.000 C 
ATOM     17  C   UNL     1       6.042   2.927  12.184  0.00  0.00    +0.000 A 
ATOM     18  C   UNL     1       5.196   3.028  13.289  0.00  0.00    +0.000 A 
ATOM     19  C   UNL     1       5.374   4.056  14.222  0.00  0.00    +0.000 A 
ATOM     20  C   UNL     1       6.403   5.000  14.082  0.00  0.00    +0.000 A 
ATOM     21  C   UNL     1       7.237   4.913  12.953  0.00  0.00    +0.000 A 
ATOM     22  C   UNL     1       7.058   3.872  12.021  0.00  0.00    +0.000 A 
BRANCH  21  23
ATOM     23  N   UNL     1       8.294   5.887  12.656  0.00  0.00    +0.000 N 
ATOM     24  O   UNL     1       9.221   6.027  13.461  0.00  0.00    +0.000 OA
ATOM     25  O   UNL     1       8.190   6.545  11.610  0.00  0.00    +0.000 OA
ENDBRANCH  21  23
ENDBRANCH  14  20
ENDBRANCH   1  14
TORSDOF 5
ENDMDL
MODEL 3
REMARK VINA RESULT:      -7.6      0.635      1.073
REMARK  Name = 
REMARK  7 active torsions:
REMARK  status: ('A' for Active; 'I' for Inactive)
REMARK    1  A    between atoms: C_1  and  C_2
REMARK    2  A    between atoms: C_5  and  N_6
REMARK    3  A    between atoms: N_6  and  S_7
REMARK    4  A    between atoms: S_7  and  C_10
REMARK    5  A    between atoms: C_13  and  C_14
REMARK    6  A    between atoms: C_15  and  N_16
REMARK    7  A    between atoms: C_20  and  N_21
REMARK                            x       y       z     vdW  Elec       q    Type
REMARK                         _______ _______ _______ _____ _____    ______ ____
ROOT
ATOM      1  S   UNL     1       2.551   5.972  19.140  0.00  0.00    +0.000 S 
ATOM      2  O   UNL     1       1.860   5.289  18.066  0.00  0.00    +0.000 OA
ATOM      3  O   UNL     1       2.492   5.494  20.503  0.00  0.00    +0.000 OA
ENDROOT
BRANCH   1   4
ATOM      4  C   UNL     1       2.003   7.657  19.111  0.00  0.00    +0.000 A 
ATOM      5  C   UNL     1       2.066   8.409  17.943  0.00  0.00    +0.000 A 
ATOM      6  C   UNL     1       1.581   9.719  17.947  0.00  0.00    +0.000 A 
ATOM      7  C   UNL     1       1.015  10.293  19.108  0.00  0.00    +0.000 A 
ATOM      8  C   UNL     1       0.497  11.702  19.004  0.00  0.00    +0.000 C 
ATOM      9  C   UNL     1       0.969   9.512  20.286  0.00  0.00    +0.000 A 
ATOM     10  C   UNL     1       1.491   8.209  20.288  0.00  0.00    +0.000 A 
BRANCH   9  11
ATOM     11  N   UNL     1       0.361   9.988  21.549  0.00  0.00    +0.000 N 
ATOM     12  O   UNL     1       0.792  11.025  22.069  0.00  0.00    +0.000 OA
ATOM     13  O   UNL     1      -0.559   9.310  22.036  0.00  0.00    +0.000 OA
ENDBRANCH   9  11
ENDBRANCH   1   4
BRANCH   1  14
ATOM     14  N   UNL     1       4.165   6.107  18.662  0.00  0.00    +0.000 N 
ATOM     15  H   UNL     1       4.573   7.008  18.924  0.00  0.00    +0.000 HD
BRANCH  14  20
ATOM     16  C   UNL     1       6.220   3.908  13.756  0.00  0.00    +0.000 C 
ATOM     17  C   UNL     1       5.667   4.479  15.028  0.00  0.00    +0.000 A 
ATOM     18  C   UNL     1       5.502   5.852  15.209  0.00  0.00    +0.000 A 
ATOM     19  C   UNL     1       4.989   6.350  16.412  0.00  0.00    +0.000 A 
ATOM     20  C   UNL     1       4.618   5.491  17.458  0.00  0.00    +0.000 A 
ATOM     21  C   UNL     1       4.810   4.109  17.285  0.00  0.00    +0.000 A 
ATOM     22  C   UNL     1       5.321   3.613  16.069  0.00  0.00    +0.000 A 
BRANCH  21  23
ATOM     23  N   UNL     1       4.537   3.121  18.336  0.00  0.00    +0.000 N 
ATOM     24  O   UNL     1       5.095   3.243  19.432  0.00  0.00    +0.000 OA
ATOM     25  O   UNL     1       3.768   2.189  18.060  0.00  0.00    +0.000 OA
ENDBRANCH  21  23
ENDBRANCH  14  20
ENDBRANCH   1  14
TORSDOF 5
ENDMDL
MODEL 4
REMARK VINA RESULT:      -7.5      3.030      4.401
REMARK  Name = 
REMARK  7 active torsions:
REMARK  status: ('A' for Active; 'I' for Inactive)
REMARK    1  A    between atoms: C_1  and  C_2
REMARK    2  A    between atoms: C_5  and  N_6
REMARK    3  A    between atoms: N_6  and  S_7
REMARK    4  A    between atoms: S_7  and  C_10
REMARK    5  A    between atoms: C_13  and  C_14
REMARK    6  A    between atoms: C_15  and  N_16
REMARK    7  A    between atoms: C_20  and  N_21
REMARK                            x       y       z     vdW  Elec       q    Type
REMARK                         _______ _______ _______ _____ _____    ______ ____
ROOT
ATOM      1  S   UNL     1       2.585   7.201  18.839  0.00  0.00    +0.000 S 
ATOM      2  O   UNL     1       2.396   7.724  20.176  0.00  0.00    +0.000 OA
ATOM      3  O   UNL     1       1.948   7.807  17.692  0.00  0.00    +0.000 OA
ENDROOT
BRANCH   1   4
ATOM      4  C   UNL     1       2.136   5.487  18.892  0.00  0.00    +0.000 A 
ATOM      5  C   UNL     1       1.770   4.809  17.735  0.00  0.00    +0.000 A 
ATOM      6  C   UNL     1       1.467   3.446  17.810  0.00  0.00    +0.000 A 
ATOM      7  C   UNL     1       1.538   2.740  19.032  0.00  0.00    +0.000 A 
ATOM      8  C   UNL     1       1.218   1.270  19.004  0.00  0.00    +0.000 C 
ATOM      9  C   UNL     1       1.905   3.453  20.197  0.00  0.00    +0.000 A 
ATOM     10  C   UNL     1       2.173   4.830  20.125  0.00  0.00    +0.000 A 
BRANCH   9  11
ATOM     11  N   UNL     1       2.055   2.814  21.524  0.00  0.00    +0.000 N 
ATOM     12  O   UNL     1       1.063   2.708  22.255  0.00  0.00    +0.000 OA
ATOM     13  O   UNL     1       3.188   2.418  21.845  0.00  0.00    +0.000 OA
ENDBRANCH   9  11
ENDBRANCH   1   4
BRANCH   1  14
ATOM     14  N   UNL     1       4.253   7.130  18.584  0.00  0.00    +0.000 N 
ATOM     15  H   UNL     1       4.711   8.027  18.765  0.00  0.00    +0.000 HD
BRANCH  14  20
ATOM     16  C   UNL     1       6.526   4.067  14.273  0.00  0.00    +0.000 C 
ATOM     17  C   UNL     1       5.918   4.855  15.396  0.00  0.00    +0.000 A 
ATOM     18  C   UNL     1       5.228   6.046  15.170  0.00  0.00    +0.000 A 
ATOM     19  C   UNL     1       4.680   6.759  16.243  0.00  0.00    +0.000 A 
ATOM     20  C   UNL     1       4.795   6.295  17.562  0.00  0.00    +0.000 A 
ATOM     21  C   UNL     1       5.514   5.109  17.791  0.00  0.00    +0.000 A 
ATOM     22  C   UNL     1       6.058   4.392  16.707  0.00  0.00    +0.000 A 
BRANCH  21  23
ATOM     23  N   UNL     1       5.771   4.568  19.131  0.00  0.00    +0.000 N 
ATOM     24  O   UNL     1       6.464   5.224  19.917  0.00  0.00    +0.000 OA
ATOM     25  O   UNL     1       5.291   3.458  19.404  0.00  0.00    +0.000 OA
ENDBRANCH  21  23
ENDBRANCH  14  20
ENDBRANCH   1  14
TORSDOF 5
ENDMDL
MODEL 5
REMARK VINA RESULT:      -7.5      3.059      6.650
REMARK  Name = 
REMARK  7 active torsions:
REMARK  status: ('A' for Active; 'I' for Inactive)
REMARK    1  A    between atoms: C_1  and  C_2
REMARK    2  A    between atoms: C_5  and  N_6
REMARK    3  A    between atoms: N_6  and  S_7
REMARK    4  A    between atoms: S_7  and  C_10
REMARK    5  A    between atoms: C_13  and  C_14
REMARK    6  A    between atoms: C_15  and  N_16
REMARK    7  A    between atoms: C_20  and  N_21
REMARK                            x       y       z     vdW  Elec       q    Type
REMARK                         _______ _______ _______ _____ _____    ______ ____
ROOT
ATOM      1  S   UNL     1       3.799   2.504  18.421  0.00  0.00    +0.000 S 
ATOM      2  O   UNL     1       3.990   1.960  19.750  0.00  0.00    +0.000 OA
ATOM      3  O   UNL     1       3.899   1.673  17.242  0.00  0.00    +0.000 OA
ENDROOT
BRANCH   1   4
ATOM      4  C   UNL     1       4.930   3.857  18.254  0.00  0.00    +0.000 A 
ATOM      5  C   UNL     1       5.482   4.470  19.374  0.00  0.00    +0.000 A 
ATOM      6  C   UNL     1       6.406   5.503  19.201  0.00  0.00    +0.000 A 
ATOM      7  C   UNL     1       6.803   5.931  17.914  0.00  0.00    +0.000 A 
ATOM      8  C   UNL     1       7.824   7.034  17.833  0.00  0.00    +0.000 C 
ATOM      9  C   UNL     1       6.223   5.299  16.790  0.00  0.00    +0.000 A 
ATOM     10  C   UNL     1       5.267   4.286  16.968  0.00  0.00    +0.000 A 
BRANCH   9  11
ATOM     11  N   UNL     1       6.591   5.630  15.395  0.00  0.00    +0.000 N 
ATOM     12  O   UNL     1       7.697   5.277  14.966  0.00  0.00    +0.000 OA
ATOM     13  O   UNL     1       5.765   6.262  14.717  0.00  0.00    +0.000 OA
ENDBRANCH   9  11
ENDBRANCH   1   4
BRANCH   1  14
ATOM     14  N   UNL     1       2.300   3.283  18.434  0.00  0.00    +0.000 N 
ATOM     15  H   UNL     1       1.775   3.126  17.570  0.00  0.00    +0.000 HD
BRANCH  14  20
ATOM     16  C   UNL     1       1.484   8.462  20.810  0.00  0.00    +0.000 C 
ATOM     17  C   UNL     1       1.716   7.112  20.195  0.00  0.00    +0.000 A 
ATOM     18  C   UNL     1       1.981   6.959  18.834  0.00  0.00    +0.000 A 
ATOM     19  C   UNL     1       2.184   5.684  18.294  0.00  0.00    +0.000 A 
ATOM     20  C   UNL     1       2.141   4.535  19.098  0.00  0.00    +0.000 A 
ATOM     21  C   UNL     1       1.846   4.688  20.464  0.00  0.00    +0.000 A 
ATOM     22  C   UNL     1       1.648   5.975  21.004  0.00  0.00    +0.000 A 
BRANCH  21  23
ATOM     23  N   UNL     1       1.693   3.557  21.387  0.00  0.00    +0.000 N 
ATOM     24  O   UNL     1       0.840   2.697  21.142  0.00  0.00    +0.000 OA
ATOM     25  O   UNL     1       2.421   3.533  22.390  0.00  0.00    +0.000 OA
ENDBRANCH  21  23
ENDBRANCH  14  20
ENDBRANCH   1  14
TORSDOF 5
ENDMDL
MODEL 6
REMARK VINA RESULT:      -7.5      1.760      2.212
REMARK  Name = 
REMARK  7 active torsions:
REMARK  status: ('A' for Active; 'I' for Inactive)
REMARK    1  A    between atoms: C_1  and  C_2
REMARK    2  A    between atoms: C_5  and  N_6
REMARK    3  A    between atoms: N_6  and  S_7
REMARK    4  A    between atoms: S_7  and  C_10
REMARK    5  A    between atoms: C_13  and  C_14
REMARK    6  A    between atoms: C_15  and  N_16
REMARK    7  A    between atoms: C_20  and  N_21
REMARK                            x       y       z     vdW  Elec       q    Type
REMARK                         _______ _______ _______ _____ _____    ______ ____
ROOT
ATOM      1  S   UNL     1       2.997   4.526  19.484  0.00  0.00    +0.000 S 
ATOM      2  O   UNL     1       2.561   3.860  18.274  0.00  0.00    +0.000 OA
ATOM      3  O   UNL     1       2.610   4.047  20.792  0.00  0.00    +0.000 OA
ENDROOT
BRANCH   1   4
ATOM      4  C   UNL     1       2.506   6.222  19.338  0.00  0.00    +0.000 A 
ATOM      5  C   UNL     1       2.635   6.902  18.132  0.00  0.00    +0.000 A 
ATOM      6  C   UNL     1       2.194   8.225  18.043  0.00  0.00    +0.000 A 
ATOM      7  C   UNL     1       1.608   8.883  19.148  0.00  0.00    +0.000 A 
ATOM      8  C   UNL     1       1.142  10.300  18.945  0.00  0.00    +0.000 C 
ATOM      9  C   UNL     1       1.495   8.175  20.367  0.00  0.00    +0.000 A 
ATOM     10  C   UNL     1       1.973   6.858  20.462  0.00  0.00    +0.000 A 
BRANCH   9  11
ATOM     11  N   UNL     1       0.861   8.743  21.578  0.00  0.00    +0.000 N 
ATOM     12  O   UNL     1      -0.354   8.589  21.747  0.00  0.00    +0.000 OA
ATOM     13  O   UNL     1       1.590   9.362  22.371  0.00  0.00    +0.000 OA
ENDBRANCH   9  11
ENDBRANCH   1   4
BRANCH   1  14
ATOM     14  N   UNL     1       4.680   4.625  19.397  0.00  0.00    +0.000 N 
ATOM     15  H   UNL     1       5.075   5.186  20.156  0.00  0.00    +0.000 HD
BRANCH  14  20
ATOM     16  C   UNL     1       7.011   4.777  14.136  0.00  0.00    +0.000 C 
ATOM     17  C   UNL     1       6.413   4.721  15.511  0.00  0.00    +0.000 A 
ATOM     18  C   UNL     1       5.159   4.156  15.746  0.00  0.00    +0.000 A 
ATOM     19  C   UNL     1       4.629   4.128  17.041  0.00  0.00    +0.000 A 
ATOM     20  C   UNL     1       5.340   4.650  18.132  0.00  0.00    +0.000 A 
ATOM     21  C   UNL     1       6.591   5.243  17.890  0.00  0.00    +0.000 A 
ATOM     22  C   UNL     1       7.122   5.264  16.585  0.00  0.00    +0.000 A 
BRANCH  21  23
ATOM     23  N   UNL     1       7.390   5.894  18.935  0.00  0.00    +0.000 N 
ATOM     24  O   UNL     1       8.030   6.914  18.651  0.00  0.00    +0.000 OA
ATOM     25  O   UNL     1       7.400   5.371  20.059  0.00  0.00    +0.000 OA
ENDBRANCH  21  23
ENDBRANCH  14  20
ENDBRANCH   1  14
TORSDOF 5
ENDMDL
MODEL 7
REMARK VINA RESULT:      -7.4      4.603      6.117
REMARK  Name = 
REMARK  7 active torsions:
REMARK  status: ('A' for Active; 'I' for Inactive)
REMARK    1  A    between atoms: C_1  and  C_2
REMARK    2  A    between atoms: C_5  and  N_6
REMARK    3  A    between atoms: N_6  and  S_7
REMARK    4  A    between atoms: S_7  and  C_10
REMARK    5  A    between atoms: C_13  and  C_14
REMARK    6  A    between atoms: C_15  and  N_16
REMARK    7  A    between atoms: C_20  and  N_21
REMARK                            x       y       z     vdW  Elec       q    Type
REMARK                         _______ _______ _______ _____ _____    ______ ____
ROOT
ATOM      1  S   UNL     1       6.162   6.618  16.234  0.00  0.00    +0.000 S 
ATOM      2  O   UNL     1       6.925   7.586  16.994  0.00  0.00    +0.000 OA
ATOM      3  O   UNL     1       5.186   7.028  15.250  0.00  0.00    +0.000 OA
ENDROOT
BRANCH   1   4
ATOM      4  C   UNL     1       5.364   5.559  17.410  0.00  0.00    +0.000 A 
ATOM      5  C   UNL     1       5.885   5.390  18.688  0.00  0.00    +0.000 A 
ATOM      6  C   UNL     1       5.203   4.584  19.603  0.00  0.00    +0.000 A 
ATOM      7  C   UNL     1       3.988   3.947  19.262  0.00  0.00    +0.000 A 
ATOM      8  C   UNL     1       3.316   3.119  20.325  0.00  0.00    +0.000 C 
ATOM      9  C   UNL     1       3.482   4.126  17.954  0.00  0.00    +0.000 A 
ATOM     10  C   UNL     1       4.189   4.907  17.026  0.00  0.00    +0.000 A 
BRANCH   9  11
ATOM     11  N   UNL     1       2.199   3.546  17.496  0.00  0.00    +0.000 N 
ATOM     12  O   UNL     1       1.201   4.274  17.427  0.00  0.00    +0.000 OA
ATOM     13  O   UNL     1       2.186   2.338  17.206  0.00  0.00    +0.000 OA
ENDBRANCH   9  11
ENDBRANCH   1   4
BRANCH   1  14
ATOM     14  N   UNL     1       7.284   5.581  15.514  0.00  0.00    +0.000 N 
ATOM     15  H   UNL     1       8.231   5.968  15.525  0.00  0.00    +0.000 HD
BRANCH  14  20
ATOM     16  C   UNL     1       5.420   2.261  11.197  0.00  0.00    +0.000 C 
ATOM     17  C   UNL     1       5.921   3.115  12.325  0.00  0.00    +0.000 A 
ATOM     18  C   UNL     1       5.431   2.979  13.625  0.00  0.00    +0.000 A 
ATOM     19  C   UNL     1       5.916   3.797  14.651  0.00  0.00    +0.000 A 
ATOM     20  C   UNL     1       6.908   4.760  14.411  0.00  0.00    +0.000 A 
ATOM     21  C   UNL     1       7.380   4.915  13.096  0.00  0.00    +0.000 A 
ATOM     22  C   UNL     1       6.893   4.084  12.067  0.00  0.00    +0.000 A 
BRANCH  21  23
ATOM     23  N   UNL     1       8.355   5.941  12.706  0.00  0.00    +0.000 N 
ATOM     24  O   UNL     1       9.340   6.135  13.427  0.00  0.00    +0.000 OA
ATOM     25  O   UNL     1       8.128   6.584  11.671  0.00  0.00    +0.000 OA
ENDBRANCH  21  23
ENDBRANCH  14  20
ENDBRANCH   1  14
TORSDOF 5
ENDMDL
MODEL 8
REMARK VINA RESULT:      -7.2      4.368      6.103
REMARK  Name = 
REMARK  7 active torsions:
REMARK  status: ('A' for Active; 'I' for Inactive)
REMARK    1  A    between atoms: C_1  and  C_2
REMARK    2  A    between atoms: C_5  and  N_6
REMARK    3  A    between atoms: N_6  and  S_7
REMARK    4  A    between atoms: S_7  and  C_10
REMARK    5  A    between atoms: C_13  and  C_14
REMARK    6  A    between atoms: C_15  and  N_16
REMARK    7  A    between atoms: C_20  and  N_21
REMARK                            x       y       z     vdW  Elec       q    Type
REMARK                         _______ _______ _______ _____ _____    ______ ____
ROOT
ATOM      1  S   UNL     1       6.950   5.525  16.332  0.00  0.00    +0.000 S 
ATOM      2  O   UNL     1       7.757   4.326  16.250  0.00  0.00    +0.000 OA
ATOM      3  O   UNL     1       7.532   6.809  16.653  0.00  0.00    +0.000 OA
ENDROOT
BRANCH   1   4
ATOM      4  C   UNL     1       5.652   5.190  17.491  0.00  0.00    +0.000 A 
ATOM      5  C   UNL     1       5.728   5.651  18.801  0.00  0.00    +0.000 A 
ATOM      6  C   UNL     1       4.664   5.407  19.673  0.00  0.00    +0.000 A 
ATOM      7  C   UNL     1       3.507   4.714  19.250  0.00  0.00    +0.000 A 
ATOM      8  C   UNL     1       2.404   4.524  20.257  0.00  0.00    +0.000 C 
ATOM      9  C   UNL     1       3.455   4.248  17.916  0.00  0.00    +0.000 A 
ATOM     10  C   UNL     1       4.542   4.464  17.053  0.00  0.00    +0.000 A 
BRANCH   9  11
ATOM     11  N   UNL     1       2.280   3.551  17.347  0.00  0.00    +0.000 N 
ATOM     12  O   UNL     1       2.350   2.334  17.133  0.00  0.00    +0.000 OA
ATOM     13  O   UNL     1       1.271   4.232  17.101  0.00  0.00    +0.000 OA
ENDBRANCH   9  11
ENDBRANCH   1   4
BRANCH   1  14
ATOM     14  N   UNL     1       6.110   5.639  14.870  0.00  0.00    +0.000 N 
ATOM     15  H   UNL     1       5.175   6.034  14.991  0.00  0.00    +0.000 HD
BRANCH  14  20
ATOM     16  C   UNL     1       6.501   1.650  10.738  0.00  0.00    +0.000 C 
ATOM     17  C   UNL     1       6.412   2.681  11.826  0.00  0.00    +0.000 A 
ATOM     18  C   UNL     1       5.438   2.616  12.823  0.00  0.00    +0.000 A 
ATOM     19  C   UNL     1       5.381   3.599  13.818  0.00  0.00    +0.000 A 
ATOM     20  C   UNL     1       6.298   4.660  13.850  0.00  0.00    +0.000 A 
ATOM     21  C   UNL     1       7.261   4.739  12.829  0.00  0.00    +0.000 A 
ATOM     22  C   UNL     1       7.319   3.744  11.833  0.00  0.00    +0.000 A 
BRANCH  21  23
ATOM     23  N   UNL     1       8.221   5.844  12.710  0.00  0.00    +0.000 N 
ATOM     24  O   UNL     1       9.056   6.009  13.605  0.00  0.00    +0.000 OA
ATOM     25  O   UNL     1       8.129   6.578  11.715  0.00  0.00    +0.000 OA
ENDBRANCH  21  23
ENDBRANCH  14  20
ENDBRANCH   1  14
TORSDOF 5
ENDMDL
MODEL 9
REMARK VINA RESULT:      -7.2      1.138      1.232
REMARK  Name = 
REMARK  7 active torsions:
REMARK  status: ('A' for Active; 'I' for Inactive)
REMARK    1  A    between atoms: C_1  and  C_2
REMARK    2  A    between atoms: C_5  and  N_6
REMARK    3  A    between atoms: N_6  and  S_7
REMARK    4  A    between atoms: S_7  and  C_10
REMARK    5  A    between atoms: C_13  and  C_14
REMARK    6  A    between atoms: C_15  and  N_16
REMARK    7  A    between atoms: C_20  and  N_21
REMARK                            x       y       z     vdW  Elec       q    Type
REMARK                         _______ _______ _______ _____ _____    ______ ____
ROOT
ATOM      1  S   UNL     1       2.337   5.765  19.813  0.00  0.00    +0.000 S 
ATOM      2  O   UNL     1       1.313   4.934  20.411  0.00  0.00    +0.000 OA
ATOM      3  O   UNL     1       3.720   5.677  20.226  0.00  0.00    +0.000 OA
ENDROOT
BRANCH   1   4
ATOM      4  C   UNL     1       1.802   7.445  19.992  0.00  0.00    +0.000 A 
ATOM      5  C   UNL     1       1.825   8.321  18.913  0.00  0.00    +0.000 A 
ATOM      6  C   UNL     1       1.351   9.625  19.082  0.00  0.00    +0.000 A 
ATOM      7  C   UNL     1       0.835  10.068  20.322  0.00  0.00    +0.000 A 
ATOM      8  C   UNL     1       0.325  11.482  20.396  0.00  0.00    +0.000 C 
ATOM      9  C   UNL     1       0.829   9.161  21.407  0.00  0.00    +0.000 A 
ATOM     10  C   UNL     1       1.340   7.864  21.243  0.00  0.00    +0.000 A 
BRANCH   9  11
ATOM     11  N   UNL     1       0.275   9.496  22.738  0.00  0.00    +0.000 N 
ATOM     12  O   UNL     1      -0.950   9.602  22.869  0.00  0.00    +0.000 OA
ATOM     13  O   UNL     1       1.080   9.665  23.669  0.00  0.00    +0.000 OA
ENDBRANCH   9  11
ENDBRANCH   1   4
BRANCH   1  14
ATOM     14  N   UNL     1       2.233   5.527  18.144  0.00  0.00    +0.000 N 
ATOM     15  H   UNL     1       1.358   5.074  17.871  0.00  0.00    +0.000 HD
BRANCH  14  20
ATOM     16  C   UNL     1       7.118   4.672  15.220  0.00  0.00    +0.000 C 
ATOM     17  C   UNL     1       5.834   4.894  15.966  0.00  0.00    +0.000 A 
ATOM     18  C   UNL     1       5.377   6.174  16.280  0.00  0.00    +0.000 A 
ATOM     19  C   UNL     1       4.179   6.343  16.983  0.00  0.00    +0.000 A 
ATOM     20  C   UNL     1       3.403   5.244  17.379  0.00  0.00    +0.000 A 
ATOM     21  C   UNL     1       3.879   3.953  17.087  0.00  0.00    +0.000 A 
ATOM     22  C   UNL     1       5.083   3.789  16.373  0.00  0.00    +0.000 A 
BRANCH  21  23
ATOM     23  N   UNL     1       3.198   2.727  17.520  0.00  0.00    +0.000 N 
ATOM     24  O   UNL     1       1.992   2.597  17.284  0.00  0.00    +0.000 OA
ATOM     25  O   UNL     1       3.871   1.881  18.127  0.00  0.00    +0.000 OA
ENDBRANCH  21  23
ENDBRANCH  14  20
ENDBRANCH   1  14
TORSDOF 5
ENDMDL
