MODEL 1
REMARK VINA RESULT:      -7.6      0.000      0.000
REMARK  Name = 
REMARK  12 active torsions:
REMARK  status: ('A' for Active; 'I' for Inactive)
REMARK    1  A    between atoms: C_1  and  C_2
REMARK    2  A    between atoms: C_2  and  N_3
REMARK    3  A    between atoms: C_5  and  C_6
REMARK    4  A    between atoms: N_8  and  C_9
REMARK    5  A    between atoms: C_9  and  C_10
REMARK    6  A    between atoms: C_10  and  O_11
REMARK    7  A    between atoms: C_10  and  O_13
REMARK    8  A    between atoms: O_11  and  C_12
REMARK    9  A    between atoms: O_13  and  C_14
REMARK   10  A    between atoms: C_19  and  S_20
REMARK   11  A    between atoms: S_20  and  N_23
REMARK   12  A    between atoms: C_26  and  C_27
REMARK                            x       y       z     vdW  Elec       q    Type
REMARK                         _______ _______ _______ _____ _____    ______ ____
ROOT
ATOM      1  N   UNL     1       1.011  11.665  19.293  0.00  0.00    +0.000 N 
ATOM      2  C   UNL     1       0.296  12.183  20.366  0.00  0.00    +0.000 A 
ATOM      3  C   UNL     1      -0.077  11.517  21.470  0.00  0.00    +0.000 A 
ATOM      4  C   UNL     1       0.358  10.102  21.577  0.00  0.00    +0.000 A 
ATOM      5  O   UNL     1       0.170   9.444  22.598  0.00  0.00    +0.000 OA
ATOM      6  C   UNL     1       1.026   9.487  20.402  0.00  0.00    +0.000 A 
ATOM      7  C   UNL     1       1.397   8.132  20.468  0.00  0.00    +0.000 A 
ATOM      8  C   UNL     1       2.038   7.553  19.375  0.00  0.00    +0.000 A 
ATOM      9  C   UNL     1       2.242   8.289  18.210  0.00  0.00    +0.000 A 
ATOM     10  C   UNL     1       1.870   9.637  18.157  0.00  0.00    +0.000 A 
ATOM     11  C   UNL     1       1.303  10.282  19.270  0.00  0.00    +0.000 A 
ENDROOT
BRANCH   3  12
ATOM     12  C   UNL     1      -0.870  12.235  22.508  0.00  0.00    +0.000 C 
ATOM     13  O   UNL     1      -0.388  13.126  23.201  0.00  0.00    +0.000 OA
ATOM     14  N   UNL     1      -2.168  11.828  22.623  0.00  0.00    +0.000 N 
ATOM     15  H   UNL     1      -2.539  11.143  21.964  0.00  0.00    +0.000 HD
BRANCH  14  16
ATOM     16  C   UNL     1      -3.091  12.415  23.577  0.00  0.00    +0.000 C 
BRANCH  16  17
ATOM     17  C   UNL     1      -4.225  13.245  22.934  0.00  0.00    +0.000 C 
BRANCH  17  18
ATOM     18  O   UNL     1      -5.261  12.317  22.567  0.00  0.00    +0.000 OA
ATOM     19  C   UNL     1      -5.826  12.596  21.295  0.00  0.00    +0.000 C 
ENDBRANCH  17  18
BRANCH  17  20
ATOM     20  O   UNL     1      -4.758  14.191  23.867  0.00  0.00    +0.000 OA
ATOM     21  C   UNL     1      -3.780  15.040  24.447  0.00  0.00    +0.000 C 
ENDBRANCH  17  20
ENDBRANCH  16  17
ENDBRANCH  14  16
ENDBRANCH   3  12
BRANCH   8  22
ATOM     22  S   UNL     1       2.767   5.933  19.498  0.00  0.00    +0.000 S 
ATOM     23  O   UNL     1       4.190   6.150  19.640  0.00  0.00    +0.000 OA
ATOM     24  O   UNL     1       2.029   5.181  20.487  0.00  0.00    +0.000 OA
BRANCH  22  25
ATOM     25  N   UNL     1       2.492   5.246  17.963  0.00  0.00    +0.000 NA
ATOM     26  C   UNL     1       1.415   4.241  17.824  0.00  0.00    +0.000 C 
ATOM     27  C   UNL     1       1.852   2.879  18.347  0.00  0.00    +0.000 C 
ATOM     28  C   UNL     1       3.174   2.394  17.735  0.00  0.00    +0.000 C 
ATOM     29  C   UNL     1       3.715   1.186  18.515  0.00  0.00    +0.000 C 
ATOM     30  C   UNL     1       4.242   3.498  17.647  0.00  0.00    +0.000 C 
ATOM     31  C   UNL     1       3.701   4.851  17.198  0.00  0.00    +0.000 C 
ENDBRANCH  22  25
ENDBRANCH   8  22
BRANCH   1  33
ATOM     32  C   UNL     1       2.677  13.456  18.946  0.00  0.00    +0.000 C 
ATOM     33  C   UNL     1       1.633  12.559  18.301  0.00  0.00    +0.000 C 
ENDBRANCH   1  33
TORSDOF 8
ENDMDL
MODEL 2
REMARK VINA RESULT:      -7.5      1.247      1.564
REMARK  Name = 
REMARK  12 active torsions:
REMARK  status: ('A' for Active; 'I' for Inactive)
REMARK    1  A    between atoms: C_1  and  C_2
REMARK    2  A    between atoms: C_2  and  N_3
REMARK    3  A    between atoms: C_5  and  C_6
REMARK    4  A    between atoms: N_8  and  C_9
REMARK    5  A    between atoms: C_9  and  C_10
REMARK    6  A    between atoms: C_10  and  O_11
REMARK    7  A    between atoms: C_10  and  O_13
REMARK    8  A    between atoms: O_11  and  C_12
REMARK    9  A    between atoms: O_13  and  C_14
REMARK   10  A    between atoms: C_19  and  S_20
REMARK   11  A    between atoms: S_20  and  N_23
REMARK   12  A    between atoms: C_26  and  C_27
REMARK                            x       y       z     vdW  Elec       q    Type
REMARK                         _______ _______ _______ _____ _____    ______ ____
ROOT
ATOM      1  N   UNL     1       0.758  10.893  19.122  0.00  0.00    +0.000 N 
ATOM      2  C   UNL     1       0.110  11.126  20.328  0.00  0.00    +0.000 A 
ATOM      3  C   UNL     1       0.079  10.302  21.387  0.00  0.00    +0.000 A 
ATOM      4  C   UNL     1       0.853   9.041  21.278  0.00  0.00    +0.000 A 
ATOM      5  O   UNL     1       0.987   8.279  22.233  0.00  0.00    +0.000 OA
ATOM      6  C   UNL     1       1.465   8.711  19.965  0.00  0.00    +0.000 A 
ATOM      7  C   UNL     1       2.158   7.495  19.830  0.00  0.00    +0.000 A 
ATOM      8  C   UNL     1       2.748   7.185  18.606  0.00  0.00    +0.000 A 
ATOM      9  C   UNL     1       2.590   8.038  17.516  0.00  0.00    +0.000 A 
ATOM     10  C   UNL     1       1.900   9.246  17.663  0.00  0.00    +0.000 A 
ATOM     11  C   UNL     1       1.368   9.636  18.905  0.00  0.00    +0.000 A 
ENDROOT
BRANCH   3  12
ATOM     12  C   UNL     1      -0.698  10.712  22.592  0.00  0.00    +0.000 C 
ATOM     13  O   UNL     1      -0.407  10.329  23.721  0.00  0.00    +0.000 OA
ATOM     14  N   UNL     1      -1.750  11.545  22.341  0.00  0.00    +0.000 N 
ATOM     15  H   UNL     1      -1.894  11.899  21.395  0.00  0.00    +0.000 HD
BRANCH  14  16
ATOM     16  C   UNL     1      -2.616  12.049  23.390  0.00  0.00    +0.000 C 
BRANCH  16  17
ATOM     17  C   UNL     1      -3.653  13.092  22.910  0.00  0.00    +0.000 C 
BRANCH  17  18
ATOM     18  O   UNL     1      -4.823  12.358  22.510  0.00  0.00    +0.000 OA
ATOM     19  C   UNL     1      -6.030  12.960  22.954  0.00  0.00    +0.000 C 
ENDBRANCH  17  18
BRANCH  17  20
ATOM     20  O   UNL     1      -4.006  13.986  23.970  0.00  0.00    +0.000 OA
ATOM     21  C   UNL     1      -2.890  14.577  24.619  0.00  0.00    +0.000 C 
ENDBRANCH  17  20
ENDBRANCH  16  17
ENDBRANCH  14  16
ENDBRANCH   3  12
BRANCH   8  22
ATOM     22  S   UNL     1       3.856   5.800  18.451  0.00  0.00    +0.000 S 
ATOM     23  O   UNL     1       4.772   6.145  17.385  0.00  0.00    +0.000 OA
ATOM     24  O   UNL     1       4.345   5.465  19.768  0.00  0.00    +0.000 OA
BRANCH  22  25
ATOM     25  N   UNL     1       2.854   4.538  17.896  0.00  0.00    +0.000 NA
ATOM     26  C   UNL     1       1.418   4.573  18.247  0.00  0.00    +0.000 C 
ATOM     27  C   UNL     1       1.183   4.119  19.681  0.00  0.00    +0.000 C 
ATOM     28  C   UNL     1       1.818   2.756  19.994  0.00  0.00    +0.000 C 
ATOM     29  C   UNL     1       1.818   2.499  21.509  0.00  0.00    +0.000 C 
ATOM     30  C   UNL     1       3.240   2.606  19.424  0.00  0.00    +0.000 C 
ATOM     31  C   UNL     1       3.407   3.166  18.017  0.00  0.00    +0.000 C 
ENDBRANCH  22  25
ENDBRANCH   8  22
BRANCH   1  33
ATOM     32  C   UNL     1       2.185  12.834  18.576  0.00  0.00    +0.000 C 
ATOM     33  C   UNL     1       0.989  11.991  18.166  0.00  0.00    +0.000 C 
ENDBRANCH   1  33
TORSDOF 8
ENDMDL
MODEL 3
REMARK VINA RESULT:      -7.5      3.181     10.462
REMARK  Name = 
REMARK  12 active torsions:
REMARK  status: ('A' for Active; 'I' for Inactive)
REMARK    1  A    between atoms: C_1  and  C_2
REMARK    2  A    between atoms: C_2  and  N_3
REMARK    3  A    between atoms: C_5  and  C_6
REMARK    4  A    between atoms: N_8  and  C_9
REMARK    5  A    between atoms: C_9  and  C_10
REMARK    6  A    between atoms: C_10  and  O_11
REMARK    7  A    between atoms: C_10  and  O_13
REMARK    8  A    between atoms: O_11  and  C_12
REMARK    9  A    between atoms: O_13  and  C_14
REMARK   10  A    between atoms: C_19  and  S_20
REMARK   11  A    between atoms: S_20  and  N_23
REMARK   12  A    between atoms: C_26  and  C_27
REMARK                            x       y       z     vdW  Elec       q    Type
REMARK                         _______ _______ _______ _____ _____    ______ ____
ROOT
ATOM      1  N   UNL     1       2.312   5.346  20.202  0.00  0.00    +0.000 N 
ATOM      2  C   UNL     1       3.026   4.887  19.103  0.00  0.00    +0.000 A 
ATOM      3  C   UNL     1       3.387   5.607  18.029  0.00  0.00    +0.000 A 
ATOM      4  C   UNL     1       3.029   7.047  18.038  0.00  0.00    +0.000 A 
ATOM      5  O   UNL     1       3.417   7.815  17.161  0.00  0.00    +0.000 OA
ATOM      6  C   UNL     1       2.171   7.545  19.143  0.00  0.00    +0.000 A 
ATOM      7  C   UNL     1       1.779   8.895  19.138  0.00  0.00    +0.000 A 
ATOM      8  C   UNL     1       0.987   9.374  20.179  0.00  0.00    +0.000 A 
ATOM      9  C   UNL     1       0.533   8.506  21.170  0.00  0.00    +0.000 A 
ATOM     10  C   UNL     1       0.930   7.165  21.165  0.00  0.00    +0.000 A 
ATOM     11  C   UNL     1       1.802   6.665  20.183  0.00  0.00    +0.000 A 
ENDROOT
BRANCH   3  12
ATOM     12  C   UNL     1       4.131   4.930  16.928  0.00  0.00    +0.000 C 
ATOM     13  O   UNL     1       4.053   3.722  16.730  0.00  0.00    +0.000 OA
ATOM     14  N   UNL     1       4.896   5.759  16.159  0.00  0.00    +0.000 N 
ATOM     15  H   UNL     1       4.858   6.767  16.315  0.00  0.00    +0.000 HD
BRANCH  14  16
ATOM     16  C   UNL     1       5.687   5.280  15.041  0.00  0.00    +0.000 C 
BRANCH  16  17
ATOM     17  C   UNL     1       7.147   4.923  15.403  0.00  0.00    +0.000 C 
BRANCH  17  18
ATOM     18  O   UNL     1       7.976   5.455  14.355  0.00  0.00    +0.000 OA
ATOM     19  C   UNL     1       7.561   5.043  13.062  0.00  0.00    +0.000 C 
ENDBRANCH  17  18
BRANCH  17  20
ATOM     20  O   UNL     1       7.527   5.524  16.646  0.00  0.00    +0.000 OA
ATOM     21  C   UNL     1       7.696   4.595  17.705  0.00  0.00    +0.000 C 
ENDBRANCH  17  20
ENDBRANCH  16  17
ENDBRANCH  14  16
ENDBRANCH   3  12
BRANCH   8  22
ATOM     22  S   UNL     1       0.685  11.118  20.370  0.00  0.00    +0.000 S 
ATOM     23  O   UNL     1       1.519  11.544  21.474  0.00  0.00    +0.000 OA
ATOM     24  O   UNL     1       0.800  11.740  19.072  0.00  0.00    +0.000 OA
BRANCH  22  25
ATOM     25  N   UNL     1      -0.939  11.197  20.879  0.00  0.00    +0.000 NA
ATOM     26  C   UNL     1      -1.897  11.967  20.057  0.00  0.00    +0.000 C 
ATOM     27  C   UNL     1      -1.759  13.464  20.293  0.00  0.00    +0.000 C 
ATOM     28  C   UNL     1      -1.835  13.850  21.778  0.00  0.00    +0.000 C 
ATOM     29  C   UNL     1      -1.385  15.305  21.978  0.00  0.00    +0.000 C 
ATOM     30  C   UNL     1      -1.031  12.908  22.690  0.00  0.00    +0.000 C 
ATOM     31  C   UNL     1      -1.159  11.433  22.328  0.00  0.00    +0.000 C 
ENDBRANCH  22  25
ENDBRANCH   8  22
BRANCH   1  33
ATOM     32  C   UNL     1       1.532   3.241  21.230  0.00  0.00    +0.000 C 
ATOM     33  C   UNL     1       2.255   4.560  21.446  0.00  0.00    +0.000 C 
ENDBRANCH   1  33
TORSDOF 8
ENDMDL
MODEL 4
REMARK VINA RESULT:      -7.3      0.590      1.298
REMARK  Name = 
REMARK  12 active torsions:
REMARK  status: ('A' for Active; 'I' for Inactive)
REMARK    1  A    between atoms: C_1  and  C_2
REMARK    2  A    between atoms: C_2  and  N_3
REMARK    3  A    between atoms: C_5  and  C_6
REMARK    4  A    between atoms: N_8  and  C_9
REMARK    5  A    between atoms: C_9  and  C_10
REMARK    6  A    between atoms: C_10  and  O_11
REMARK    7  A    between atoms: C_10  and  O_13
REMARK    8  A    between atoms: O_11  and  C_12
REMARK    9  A    between atoms: O_13  and  C_14
REMARK   10  A    between atoms: C_19  and  S_20
REMARK   11  A    between atoms: S_20  and  N_23
REMARK   12  A    between atoms: C_26  and  C_27
REMARK                            x       y       z     vdW  Elec       q    Type
REMARK                         _______ _______ _______ _____ _____    ______ ____
ROOT
ATOM      1  N   UNL     1       1.202  11.649  19.075  0.00  0.00    +0.000 N 
ATOM      2  C   UNL     1       0.452  12.225  20.092  0.00  0.00    +0.000 A 
ATOM      3  C   UNL     1      -0.011  11.606  21.189  0.00  0.00    +0.000 A 
ATOM      4  C   UNL     1       0.353  10.177  21.355  0.00  0.00    +0.000 A 
ATOM      5  O   UNL     1       0.080   9.556  22.380  0.00  0.00    +0.000 OA
ATOM      6  C   UNL     1       1.058   9.503  20.235  0.00  0.00    +0.000 A 
ATOM      7  C   UNL     1       1.364   8.136  20.356  0.00  0.00    +0.000 A 
ATOM      8  C   UNL     1       2.039   7.500  19.316  0.00  0.00    +0.000 A 
ATOM      9  C   UNL     1       2.340   8.195  18.147  0.00  0.00    +0.000 A 
ATOM     10  C   UNL     1       2.031   9.555  18.039  0.00  0.00    +0.000 A 
ATOM     11  C   UNL     1       1.433  10.255  19.102  0.00  0.00    +0.000 A 
ENDROOT
BRANCH   3  12
ATOM     12  C   UNL     1      -0.828  12.386  22.163  0.00  0.00    +0.000 C 
ATOM     13  O   UNL     1      -0.398  12.716  23.263  0.00  0.00    +0.000 OA
ATOM     14  N   UNL     1      -2.084  12.706  21.732  0.00  0.00    +0.000 N 
ATOM     15  H   UNL     1      -2.359  12.479  20.776  0.00  0.00    +0.000 HD
BRANCH  14  16
ATOM     16  C   UNL     1      -3.020  13.463  22.542  0.00  0.00    +0.000 C 
BRANCH  16  17
ATOM     17  C   UNL     1      -3.771  12.620  23.598  0.00  0.00    +0.000 C 
BRANCH  17  18
ATOM     18  O   UNL     1      -3.813  13.406  24.802  0.00  0.00    +0.000 OA
ATOM     19  C   UNL     1      -3.030  14.586  24.717  0.00  0.00    +0.000 C 
ENDBRANCH  17  18
BRANCH  17  20
ATOM     20  O   UNL     1      -5.111  12.347  23.175  0.00  0.00    +0.000 OA
ATOM     21  C   UNL     1      -5.643  13.320  22.289  0.00  0.00    +0.000 C 
ENDBRANCH  17  20
ENDBRANCH  16  17
ENDBRANCH  14  16
ENDBRANCH   3  12
BRANCH   8  22
ATOM     22  S   UNL     1       2.687   5.854  19.519  0.00  0.00    +0.000 S 
ATOM     23  O   UNL     1       4.116   6.010  19.684  0.00  0.00    +0.000 OA
ATOM     24  O   UNL     1       1.895   5.179  20.521  0.00  0.00    +0.000 OA
BRANCH  22  25
ATOM     25  N   UNL     1       2.410   5.118  18.008  0.00  0.00    +0.000 NA
ATOM     26  C   UNL     1       1.379   4.061  17.918  0.00  0.00    +0.000 C 
ATOM     27  C   UNL     1       1.890   2.734  18.462  0.00  0.00    +0.000 C 
ATOM     28  C   UNL     1       3.219   2.296  17.830  0.00  0.00    +0.000 C 
ATOM     29  C   UNL     1       3.834   1.133  18.625  0.00  0.00    +0.000 C 
ATOM     30  C   UNL     1       4.232   3.446  17.691  0.00  0.00    +0.000 C 
ATOM     31  C   UNL     1       3.619   4.761  17.225  0.00  0.00    +0.000 C 
ENDBRANCH  22  25
ENDBRANCH   8  22
BRANCH   1  33
ATOM     32  C   UNL     1       1.906  13.949  18.516  0.00  0.00    +0.000 C 
ATOM     33  C   UNL     1       1.917  12.488  18.098  0.00  0.00    +0.000 C 
ENDBRANCH   1  33
TORSDOF 8
ENDMDL
MODEL 5
REMARK VINA RESULT:      -7.1      4.022     11.145
REMARK  Name = 
REMARK  12 active torsions:
REMARK  status: ('A' for Active; 'I' for Inactive)
REMARK    1  A    between atoms: C_1  and  C_2
REMARK    2  A    between atoms: C_2  and  N_3
REMARK    3  A    between atoms: C_5  and  C_6
REMARK    4  A    between atoms: N_8  and  C_9
REMARK    5  A    between atoms: C_9  and  C_10
REMARK    6  A    between atoms: C_10  and  O_11
REMARK    7  A    between atoms: C_10  and  O_13
REMARK    8  A    between atoms: O_11  and  C_12
REMARK    9  A    between atoms: O_13  and  C_14
REMARK   10  A    between atoms: C_19  and  S_20
REMARK   11  A    between atoms: S_20  and  N_23
REMARK   12  A    between atoms: C_26  and  C_27
REMARK                            x       y       z     vdW  Elec       q    Type
REMARK                         _______ _______ _______ _____ _____    ______ ____
ROOT
ATOM      1  N   UNL     1       4.590   4.713  18.591  0.00  0.00    +0.000 N 
ATOM      2  C   UNL     1       5.437   4.420  17.530  0.00  0.00    +0.000 A 
ATOM      3  C   UNL     1       5.605   5.153  16.419  0.00  0.00    +0.000 A 
ATOM      4  C   UNL     1       4.847   6.426  16.336  0.00  0.00    +0.000 A 
ATOM      5  O   UNL     1       5.021   7.224  15.418  0.00  0.00    +0.000 OA
ATOM      6  C   UNL     1       3.850   6.715  17.399  0.00  0.00    +0.000 A 
ATOM      7  C   UNL     1       3.086   7.891  17.308  0.00  0.00    +0.000 A 
ATOM      8  C   UNL     1       2.160   8.176  18.309  0.00  0.00    +0.000 A 
ATOM      9  C   UNL     1       1.948   7.270  19.346  0.00  0.00    +0.000 A 
ATOM     10  C   UNL     1       2.715   6.103  19.427  0.00  0.00    +0.000 A 
ATOM     11  C   UNL     1       3.722   5.824  18.486  0.00  0.00    +0.000 A 
ENDROOT
BRANCH   3  12
ATOM     12  C   UNL     1       6.542   4.662  15.369  0.00  0.00    +0.000 C 
ATOM     13  O   UNL     1       7.756   4.622  15.541  0.00  0.00    +0.000 OA
ATOM     14  N   UNL     1       5.945   4.258  14.209  0.00  0.00    +0.000 N 
ATOM     15  H   UNL     1       4.927   4.233  14.152  0.00  0.00    +0.000 HD
BRANCH  14  16
ATOM     16  C   UNL     1       6.697   3.747  13.078  0.00  0.00    +0.000 C 
BRANCH  16  17
ATOM     17  C   UNL     1       5.821   3.276  11.895  0.00  0.00    +0.000 C 
BRANCH  17  18
ATOM     18  O   UNL     1       5.901   1.840  11.866  0.00  0.00    +0.000 OA
ATOM     19  C   UNL     1       6.862   1.360  10.937  0.00  0.00    +0.000 C 
ENDBRANCH  17  18
BRANCH  17  20
ATOM     20  O   UNL     1       4.456   3.661  12.085  0.00  0.00    +0.000 OA
ATOM     21  C   UNL     1       3.599   3.285  11.017  0.00  0.00    +0.000 C 
ENDBRANCH  17  20
ENDBRANCH  16  17
ENDBRANCH  14  16
ENDBRANCH   3  12
BRANCH   8  22
ATOM     22  S   UNL     1       1.363   9.766  18.391  0.00  0.00    +0.000 S 
ATOM     23  O   UNL     1       2.383  10.737  18.057  0.00  0.00    +0.000 OA
ATOM     24  O   UNL     1       0.134   9.693  17.634  0.00  0.00    +0.000 OA
BRANCH  22  25
ATOM     25  N   UNL     1       0.985   9.948  20.042  0.00  0.00    +0.000 NA
ATOM     26  C   UNL     1      -0.422   9.781  20.465  0.00  0.00    +0.000 C 
ATOM     27  C   UNL     1      -1.251  11.018  20.147  0.00  0.00    +0.000 C 
ATOM     28  C   UNL     1      -0.635  12.313  20.696  0.00  0.00    +0.000 C 
ATOM     29  C   UNL     1      -1.335  13.539  20.088  0.00  0.00    +0.000 C 
ATOM     30  C   UNL     1       0.885  12.400  20.478  0.00  0.00    +0.000 C 
ATOM     31  C   UNL     1       1.625  11.093  20.736  0.00  0.00    +0.000 C 
ENDBRANCH  22  25
ENDBRANCH   8  22
BRANCH   1  33
ATOM     32  C   UNL     1       4.141   2.613  19.811  0.00  0.00    +0.000 C 
ATOM     33  C   UNL     1       4.727   4.013  19.880  0.00  0.00    +0.000 C 
ENDBRANCH   1  33
TORSDOF 8
ENDMDL
MODEL 6
REMARK VINA RESULT:      -7.1      0.815      1.394
REMARK  Name = 
REMARK  12 active torsions:
REMARK  status: ('A' for Active; 'I' for Inactive)
REMARK    1  A    between atoms: C_1  and  C_2
REMARK    2  A    between atoms: C_2  and  N_3
REMARK    3  A    between atoms: C_5  and  C_6
REMARK    4  A    between atoms: N_8  and  C_9
REMARK    5  A    between atoms: C_9  and  C_10
REMARK    6  A    between atoms: C_10  and  O_11
REMARK    7  A    between atoms: C_10  and  O_13
REMARK    8  A    between atoms: O_11  and  C_12
REMARK    9  A    between atoms: O_13  and  C_14
REMARK   10  A    between atoms: C_19  and  S_20
REMARK   11  A    between atoms: S_20  and  N_23
REMARK   12  A    between atoms: C_26  and  C_27
REMARK                            x       y       z     vdW  Elec       q    Type
REMARK                         _______ _______ _______ _____ _____    ______ ____
ROOT
ATOM      1  N   UNL     1       0.899  11.586  19.240  0.00  0.00    +0.000 N 
ATOM      2  C   UNL     1       0.045  12.023  20.244  0.00  0.00    +0.000 A 
ATOM      3  C   UNL     1      -0.421  11.291  21.269  0.00  0.00    +0.000 A 
ATOM      4  C   UNL     1       0.062   9.891  21.365  0.00  0.00    +0.000 A 
ATOM      5  O   UNL     1      -0.209   9.178  22.328  0.00  0.00    +0.000 OA
ATOM      6  C   UNL     1       0.887   9.360  20.249  0.00  0.00    +0.000 A 
ATOM      7  C   UNL     1       1.308   8.019  20.300  0.00  0.00    +0.000 A 
ATOM      8  C   UNL     1       2.094   7.518  19.265  0.00  0.00    +0.000 A 
ATOM      9  C   UNL     1       2.396   8.316  18.163  0.00  0.00    +0.000 A 
ATOM     10  C   UNL     1       1.971   9.649  18.125  0.00  0.00    +0.000 A 
ATOM     11  C   UNL     1       1.254  10.218  19.191  0.00  0.00    +0.000 A 
ENDROOT
BRANCH   3  12
ATOM     12  C   UNL     1      -1.357  11.927  22.239  0.00  0.00    +0.000 C 
ATOM     13  O   UNL     1      -1.129  11.962  23.443  0.00  0.00    +0.000 OA
ATOM     14  N   UNL     1      -2.480  12.469  21.681  0.00  0.00    +0.000 N 
ATOM     15  H   UNL     1      -2.577  12.486  20.665  0.00  0.00    +0.000 HD
BRANCH  14  16
ATOM     16  C   UNL     1      -3.503  13.132  22.468  0.00  0.00    +0.000 C 
BRANCH  16  17
ATOM     17  C   UNL     1      -4.944  12.667  22.157  0.00  0.00    +0.000 C 
BRANCH  17  18
ATOM     18  O   UNL     1      -5.827  13.535  22.889  0.00  0.00    +0.000 OA
ATOM     19  C   UNL     1      -6.647  12.836  23.813  0.00  0.00    +0.000 C 
ENDBRANCH  17  18
BRANCH  17  20
ATOM     20  O   UNL     1      -5.229  12.786  20.759  0.00  0.00    +0.000 OA
ATOM     21  C   UNL     1      -6.255  11.917  20.306  0.00  0.00    +0.000 C 
ENDBRANCH  17  20
ENDBRANCH  16  17
ENDBRANCH  14  16
ENDBRANCH   3  12
BRANCH   8  22
ATOM     22  S   UNL     1       2.877   5.925  19.401  0.00  0.00    +0.000 S 
ATOM     23  O   UNL     1       4.296   6.189  19.498  0.00  0.00    +0.000 OA
ATOM     24  O   UNL     1       2.192   5.173  20.427  0.00  0.00    +0.000 OA
BRANCH  22  25
ATOM     25  N   UNL     1       2.581   5.195  17.890  0.00  0.00    +0.000 NA
ATOM     26  C   UNL     1       1.475   4.219  17.784  0.00  0.00    +0.000 C 
ATOM     27  C   UNL     1       1.870   2.863  18.353  0.00  0.00    +0.000 C 
ATOM     28  C   UNL     1       3.177   2.318  17.758  0.00  0.00    +0.000 C 
ATOM     29  C   UNL     1       3.681   1.121  18.579  0.00  0.00    +0.000 C 
ATOM     30  C   UNL     1       4.277   3.386  17.634  0.00  0.00    +0.000 C 
ATOM     31  C   UNL     1       3.778   4.738  17.140  0.00  0.00    +0.000 C 
ENDBRANCH  22  25
ENDBRANCH   8  22
BRANCH   1  33
ATOM     32  C   UNL     1       2.514  13.452  19.162  0.00  0.00    +0.000 C 
ATOM     33  C   UNL     1       1.588  12.550  18.364  0.00  0.00    +0.000 C 
ENDBRANCH   1  33
TORSDOF 8
ENDMDL
MODEL 7
REMARK VINA RESULT:      -7.1      1.813      2.857
REMARK  Name = 
REMARK  12 active torsions:
REMARK  status: ('A' for Active; 'I' for Inactive)
REMARK    1  A    between atoms: C_1  and  C_2
REMARK    2  A    between atoms: C_2  and  N_3
REMARK    3  A    between atoms: C_5  and  C_6
REMARK    4  A    between atoms: N_8  and  C_9
REMARK    5  A    between atoms: C_9  and  C_10
REMARK    6  A    between atoms: C_10  and  O_11
REMARK    7  A    between atoms: C_10  and  O_13
REMARK    8  A    between atoms: O_11  and  C_12
REMARK    9  A    between atoms: O_13  and  C_14
REMARK   10  A    between atoms: C_19  and  S_20
REMARK   11  A    between atoms: S_20  and  N_23
REMARK   12  A    between atoms: C_26  and  C_27
REMARK                            x       y       z     vdW  Elec       q    Type
REMARK                         _______ _______ _______ _____ _____    ______ ____
ROOT
ATOM      1  N   UNL     1       1.787   9.545  18.650  0.00  0.00    +0.000 N 
ATOM      2  C   UNL     1       0.940   9.701  19.739  0.00  0.00    +0.000 A 
ATOM      3  C   UNL     1       0.730   8.808  20.720  0.00  0.00    +0.000 A 
ATOM      4  C   UNL     1       1.515   7.551  20.660  0.00  0.00    +0.000 A 
ATOM      5  O   UNL     1       1.484   6.725  21.569  0.00  0.00    +0.000 OA
ATOM      6  C   UNL     1       2.345   7.304  19.453  0.00  0.00    +0.000 A 
ATOM      7  C   UNL     1       3.054   6.094  19.357  0.00  0.00    +0.000 A 
ATOM      8  C   UNL     1       3.847   5.863  18.235  0.00  0.00    +0.000 A 
ATOM      9  C   UNL     1       3.878   6.788  17.194  0.00  0.00    +0.000 A 
ATOM     10  C   UNL     1       3.168   7.989  17.302  0.00  0.00    +0.000 A 
ATOM     11  C   UNL     1       2.430   8.300  18.457  0.00  0.00    +0.000 A 
ENDROOT
BRANCH   3  12
ATOM     12  C   UNL     1      -0.245   9.142  21.798  0.00  0.00    +0.000 C 
ATOM     13  O   UNL     1      -0.897   8.283  22.381  0.00  0.00    +0.000 OA
ATOM     14  N   UNL     1      -0.349  10.473  22.084  0.00  0.00    +0.000 N 
ATOM     15  H   UNL     1       0.278  11.136  21.628  0.00  0.00    +0.000 HD
BRANCH  14  16
ATOM     16  C   UNL     1      -1.244  10.986  23.106  0.00  0.00    +0.000 C 
BRANCH  16  17
ATOM     17  C   UNL     1      -2.110  12.182  22.648  0.00  0.00    +0.000 C 
BRANCH  17  18
ATOM     18  O   UNL     1      -2.045  12.215  21.211  0.00  0.00    +0.000 OA
ATOM     19  C   UNL     1      -2.247  13.515  20.680  0.00  0.00    +0.000 C 
ENDBRANCH  17  18
BRANCH  17  20
ATOM     20  O   UNL     1      -3.474  12.007  23.047  0.00  0.00    +0.000 OA
ATOM     21  C   UNL     1      -3.814  12.690  24.244  0.00  0.00    +0.000 C 
ENDBRANCH  17  20
ENDBRANCH  16  17
ENDBRANCH  14  16
ENDBRANCH   3  12
BRANCH   8  22
ATOM     22  S   UNL     1       4.970   4.482  18.180  0.00  0.00    +0.000 S 
ATOM     23  O   UNL     1       5.915   4.783  17.126  0.00  0.00    +0.000 OA
ATOM     24  O   UNL     1       5.422   4.214  19.526  0.00  0.00    +0.000 OA
BRANCH  22  25
ATOM     25  N   UNL     1       3.996   3.186  17.656  0.00  0.00    +0.000 NA
ATOM     26  C   UNL     1       2.709   3.495  16.995  0.00  0.00    +0.000 C 
ATOM     27  C   UNL     1       1.639   3.880  18.009  0.00  0.00    +0.000 C 
ATOM     28  C   UNL     1       1.475   2.847  19.133  0.00  0.00    +0.000 C 
ATOM     29  C   UNL     1       0.622   3.425  20.273  0.00  0.00    +0.000 C 
ATOM     30  C   UNL     1       2.817   2.326  19.677  0.00  0.00    +0.000 C 
ATOM     31  C   UNL     1       3.859   2.049  18.600  0.00  0.00    +0.000 C 
ENDBRANCH  22  25
ENDBRANCH   8  22
BRANCH   1  33
ATOM     32  C   UNL     1       1.867  12.010  18.534  0.00  0.00    +0.000 C 
ATOM     33  C   UNL     1       2.176  10.702  17.825  0.00  0.00    +0.000 C 
ENDBRANCH   1  33
TORSDOF 8
ENDMDL
MODEL 8
REMARK VINA RESULT:      -7.1      1.415      1.922
REMARK  Name = 
REMARK  12 active torsions:
REMARK  status: ('A' for Active; 'I' for Inactive)
REMARK    1  A    between atoms: C_1  and  C_2
REMARK    2  A    between atoms: C_2  and  N_3
REMARK    3  A    between atoms: C_5  and  C_6
REMARK    4  A    between atoms: N_8  and  C_9
REMARK    5  A    between atoms: C_9  and  C_10
REMARK    6  A    between atoms: C_10  and  O_11
REMARK    7  A    between atoms: C_10  and  O_13
REMARK    8  A    between atoms: O_11  and  C_12
REMARK    9  A    between atoms: O_13  and  C_14
REMARK   10  A    between atoms: C_19  and  S_20
REMARK   11  A    between atoms: S_20  and  N_23
REMARK   12  A    between atoms: C_26  and  C_27
REMARK                            x       y       z     vdW  Elec       q    Type
REMARK                         _______ _______ _______ _____ _____    ______ ____
ROOT
ATOM      1  N   UNL     1       0.959  10.896  19.030  0.00  0.00    +0.000 N 
ATOM      2  C   UNL     1       0.281  11.163  20.212  0.00  0.00    +0.000 A 
ATOM      3  C   UNL     1       0.179  10.348  21.273  0.00  0.00    +0.000 A 
ATOM      4  C   UNL     1       0.901   9.054  21.196  0.00  0.00    +0.000 A 
ATOM      5  O   UNL     1       0.969   8.293  22.158  0.00  0.00    +0.000 OA
ATOM      6  C   UNL     1       1.542   8.690  19.906  0.00  0.00    +0.000 A 
ATOM      7  C   UNL     1       2.185   7.445  19.800  0.00  0.00    +0.000 A 
ATOM      8  C   UNL     1       2.802   7.103  18.598  0.00  0.00    +0.000 A 
ATOM      9  C   UNL     1       2.719   7.955  17.500  0.00  0.00    +0.000 A 
ATOM     10  C   UNL     1       2.077   9.193  17.618  0.00  0.00    +0.000 A 
ATOM     11  C   UNL     1       1.521   9.613  18.839  0.00  0.00    +0.000 A 
ENDROOT
BRANCH   3  12
ATOM     12  C   UNL     1      -0.620  10.798  22.450  0.00  0.00    +0.000 C 
ATOM     13  O   UNL     1      -0.342  10.464  23.597  0.00  0.00    +0.000 OA
ATOM     14  N   UNL     1      -1.676  11.609  22.149  0.00  0.00    +0.000 N 
ATOM     15  H   UNL     1      -1.811  11.923  21.188  0.00  0.00    +0.000 HD
BRANCH  14  16
ATOM     16  C   UNL     1      -2.564  12.146  23.165  0.00  0.00    +0.000 C 
BRANCH  16  17
ATOM     17  C   UNL     1      -2.537  13.688  23.279  0.00  0.00    +0.000 C 
BRANCH  17  18
ATOM     18  O   UNL     1      -1.566  14.157  22.327  0.00  0.00    +0.000 OA
ATOM     19  C   UNL     1      -2.135  14.985  21.324  0.00  0.00    +0.000 C 
ENDBRANCH  17  18
BRANCH  17  20
ATOM     20  O   UNL     1      -3.814  14.247  22.955  0.00  0.00    +0.000 OA
ATOM     21  C   UNL     1      -4.845  13.891  23.864  0.00  0.00    +0.000 C 
ENDBRANCH  17  20
ENDBRANCH  16  17
ENDBRANCH  14  16
ENDBRANCH   3  12
BRANCH   8  22
ATOM     22  S   UNL     1       3.854   5.671  18.487  0.00  0.00    +0.000 S 
ATOM     23  O   UNL     1       4.797   5.954  17.426  0.00  0.00    +0.000 OA
ATOM     24  O   UNL     1       4.313   5.344  19.818  0.00  0.00    +0.000 OA
BRANCH  22  25
ATOM     25  N   UNL     1       2.809   4.439  17.945  0.00  0.00    +0.000 NA
ATOM     26  C   UNL     1       1.381   4.510  18.326  0.00  0.00    +0.000 C 
ATOM     27  C   UNL     1       1.163   4.053  19.762  0.00  0.00    +0.000 C 
ATOM     28  C   UNL     1       1.768   2.672  20.054  0.00  0.00    +0.000 C 
ATOM     29  C   UNL     1       1.792   2.405  21.567  0.00  0.00    +0.000 C 
ATOM     30  C   UNL     1       3.173   2.488  19.454  0.00  0.00    +0.000 C 
ATOM     31  C   UNL     1       3.327   3.052  18.047  0.00  0.00    +0.000 C 
ENDBRANCH  22  25
ENDBRANCH   8  22
BRANCH   1  33
ATOM     32  C   UNL     1       2.293  12.941  18.655  0.00  0.00    +0.000 C 
ATOM     33  C   UNL     1       1.269  11.978  18.078  0.00  0.00    +0.000 C 
ENDBRANCH   1  33
TORSDOF 8
ENDMDL
MODEL 9
REMARK VINA RESULT:      -7.1      1.934      2.323
REMARK  Name = 
REMARK  12 active torsions:
REMARK  status: ('A' for Active; 'I' for Inactive)
REMARK    1  A    between atoms: C_1  and  C_2
REMARK    2  A    between atoms: C_2  and  N_3
REMARK    3  A    between atoms: C_5  and  C_6
REMARK    4  A    between atoms: N_8  and  C_9
REMARK    5  A    between atoms: C_9  and  C_10
REMARK    6  A    between atoms: C_10  and  O_11
REMARK    7  A    between atoms: C_10  and  O_13
REMARK    8  A    between atoms: O_11  and  C_12
REMARK    9  A    between atoms: O_13  and  C_14
REMARK   10  A    between atoms: C_19  and  S_20
REMARK   11  A    between atoms: S_20  and  N_23
REMARK   12  A    between atoms: C_26  and  C_27
REMARK                            x       y       z     vdW  Elec       q    Type
REMARK                         _______ _______ _______ _____ _____    ______ ____
ROOT
ATOM      1  N   UNL     1       1.038  10.963  19.158  0.00  0.00    +0.000 N 
ATOM      2  C   UNL     1       0.340  11.220  20.330  0.00  0.00    +0.000 A 
ATOM      3  C   UNL     1       0.164  10.370  21.355  0.00  0.00    +0.000 A 
ATOM      4  C   UNL     1       0.821   9.044  21.245  0.00  0.00    +0.000 A 
ATOM      5  O   UNL     1       0.820   8.244  22.178  0.00  0.00    +0.000 OA
ATOM      6  C   UNL     1       1.480   8.697  19.960  0.00  0.00    +0.000 A 
ATOM      7  C   UNL     1       2.061   7.424  19.822  0.00  0.00    +0.000 A 
ATOM      8  C   UNL     1       2.695   7.097  18.625  0.00  0.00    +0.000 A 
ATOM      9  C   UNL     1       2.689   7.995  17.560  0.00  0.00    +0.000 A 
ATOM     10  C   UNL     1       2.108   9.259  17.710  0.00  0.00    +0.000 A 
ATOM     11  C   UNL     1       1.539   9.660  18.931  0.00  0.00    +0.000 A 
ENDROOT
BRANCH   3  12
ATOM     12  C   UNL     1      -0.645  10.816  22.526  0.00  0.00    +0.000 C 
ATOM     13  O   UNL     1      -0.405  10.440  23.669  0.00  0.00    +0.000 OA
ATOM     14  N   UNL     1      -1.665  11.672  22.226  0.00  0.00    +0.000 N 
ATOM     15  H   UNL     1      -1.766  12.017  21.271  0.00  0.00    +0.000 HD
BRANCH  14  16
ATOM     16  C   UNL     1      -2.556  12.212  23.236  0.00  0.00    +0.000 C 
BRANCH  16  17
ATOM     17  C   UNL     1      -3.893  12.754  22.679  0.00  0.00    +0.000 C 
BRANCH  17  18
ATOM     18  O   UNL     1      -4.909  12.420  23.641  0.00  0.00    +0.000 OA
ATOM     19  C   UNL     1      -6.184  12.939  23.298  0.00  0.00    +0.000 C 
ENDBRANCH  17  18
BRANCH  17  20
ATOM     20  O   UNL     1      -3.845  14.177  22.530  0.00  0.00    +0.000 OA
ATOM     21  C   UNL     1      -3.041  14.829  23.501  0.00  0.00    +0.000 C 
ENDBRANCH  17  20
ENDBRANCH  16  17
ENDBRANCH  14  16
ENDBRANCH   3  12
BRANCH   8  22
ATOM     22  S   UNL     1       3.675   5.617  18.486  0.00  0.00    +0.000 S 
ATOM     23  O   UNL     1       3.763   5.074  19.824  0.00  0.00    +0.000 OA
ATOM     24  O   UNL     1       3.143   4.826  17.400  0.00  0.00    +0.000 OA
BRANCH  22  25
ATOM     25  N   UNL     1       5.218   6.190  18.048  0.00  0.00    +0.000 NA
ATOM     26  C   UNL     1       5.352   6.965  16.796  0.00  0.00    +0.000 C 
ATOM     27  C   UNL     1       5.351   6.057  15.573  0.00  0.00    +0.000 C 
ATOM     28  C   UNL     1       6.385   4.926  15.663  0.00  0.00    +0.000 C 
ATOM     29  C   UNL     1       6.130   3.878  14.568  0.00  0.00    +0.000 C 
ATOM     30  C   UNL     1       6.432   4.256  17.047  0.00  0.00    +0.000 C 
ATOM     31  C   UNL     1       6.341   5.233  18.213  0.00  0.00    +0.000 C 
ENDBRANCH  22  25
ENDBRANCH   8  22
BRANCH   1  33
ATOM     32  C   UNL     1       2.257  13.105  18.995  0.00  0.00    +0.000 C 
ATOM     33  C   UNL     1       1.432  12.062  18.259  0.00  0.00    +0.000 C 
ENDBRANCH   1  33
TORSDOF 8
ENDMDL
