MODEL 1
REMARK VINA RESULT:      -9.3      0.000      0.000
REMARK  Name = 
REMARK  5 active torsions:
REMARK  status: ('A' for Active; 'I' for Inactive)
REMARK    1  A    between atoms: C_1  and  N_2
REMARK    2  A    between atoms: C_9  and  O_10
REMARK    3  A    between atoms: O_10  and  C_11
REMARK    4  A    between atoms: C_11  and  C_12
REMARK    5  A    between atoms: C_16  and  C_17
REMARK                            x       y       z     vdW  Elec       q    Type
REMARK                         _______ _______ _______ _____ _____    ______ ____
ROOT
ATOM      1  C   UNL     1       2.649   4.423  18.813  0.00  0.00    +0.000 A 
ATOM      2  C   UNL     1       2.389   3.049  18.797  0.00  0.00    +0.000 A 
ATOM      3  C   UNL     1       3.154   2.197  18.000  0.00  0.00    +0.000 A 
ATOM      4  C   UNL     1       4.197   2.708  17.223  0.00  0.00    +0.000 A 
ATOM      5  C   UNL     1       4.487   4.078  17.227  0.00  0.00    +0.000 A 
ATOM      6  C   UNL     1       3.702   4.921  18.027  0.00  0.00    +0.000 A 
ENDROOT
BRANCH   5   7
ATOM      7  C   UNL     1       5.588   4.634  16.444  0.00  0.00    +0.000 A 
ATOM      8  C   UNL     1       6.530   5.514  16.951  0.00  0.00    +0.000 A 
ATOM      9  N   UNL     1       7.415   5.825  15.949  0.00  0.00    +0.000 N 
ATOM     10  C   UNL     1       7.083   5.154  14.800  0.00  0.00    +0.000 A 
ATOM     11  C   UNL     1       7.648   5.128  13.536  0.00  0.00    +0.000 A 
ATOM     12  N   UNL     1       8.770   5.849  13.172  0.00  0.00    +0.000 N 
ATOM     13  N   UNL     1       7.069   4.351  12.607  0.00  0.00    +0.000 NA
ATOM     14  C   UNL     1       5.967   3.661  12.953  0.00  0.00    +0.000 A 
ATOM     15  N   UNL     1       5.353   3.628  14.142  0.00  0.00    +0.000 NA
ATOM     16  C   UNL     1       5.948   4.406  15.077  0.00  0.00    +0.000 A 
ATOM     17  H   UNL     1       8.198   6.458  16.036  0.00  0.00    +0.000 HD
ATOM     18  H   UNL     1       9.439   6.047  13.900  0.00  0.00    +0.000 HD
ATOM     19  H   UNL     1       9.154   5.489  12.304  0.00  0.00    +0.000 HD
ENDBRANCH   5   7
BRANCH   1  20
ATOM     20  C   UNL     1       1.904   5.373  19.721  0.00  0.00    +0.000 C 
BRANCH  20  21
ATOM     21  O   UNL     1       2.650   6.571  19.953  0.00  0.00    +0.000 OA
BRANCH  21  30
ATOM     22  C   UNL     1      -1.570  11.471  23.076  0.00  0.00    +0.000 C 
ATOM     23  N   UNL     1      -1.527  12.062  21.750  0.00  0.00    +0.000 N 
ATOM     24  C   UNL     1      -0.749  11.371  20.804  0.00  0.00    +0.000 A 
ATOM     25  C   UNL     1      -0.657  11.931  19.536  0.00  0.00    +0.000 A 
ATOM     26  C   UNL     1       0.115  11.307  18.564  0.00  0.00    +0.000 A 
ATOM     27  C   UNL     1       0.778  10.122  18.877  0.00  0.00    +0.000 A 
ATOM     28  C   UNL     1       1.562   9.465  17.918  0.00  0.00    +0.000 A 
ATOM     29  C   UNL     1       2.211   8.275  18.241  0.00  0.00    +0.000 A 
ATOM     30  C   UNL     1       2.076   7.738  19.517  0.00  0.00    +0.000 A 
ATOM     31  C   UNL     1       1.294   8.411  20.468  0.00  0.00    +0.000 A 
ATOM     32  C   UNL     1       0.640   9.605  20.179  0.00  0.00    +0.000 A 
ATOM     33  N   UNL     1      -0.102  10.228  21.122  0.00  0.00    +0.000 NA
ATOM     34  H   UNL     1      -2.454  12.212  21.366  0.00  0.00    +0.000 HD
ENDBRANCH  21  30
ENDBRANCH  20  21
ENDBRANCH   1  20
TORSDOF 4
ENDMDL
MODEL 2
REMARK VINA RESULT:      -9.3      1.830      3.189
REMARK  Name = 
REMARK  5 active torsions:
REMARK  status: ('A' for Active; 'I' for Inactive)
REMARK    1  A    between atoms: C_1  and  N_2
REMARK    2  A    between atoms: C_9  and  O_10
REMARK    3  A    between atoms: O_10  and  C_11
REMARK    4  A    between atoms: C_11  and  C_12
REMARK    5  A    between atoms: C_16  and  C_17
REMARK                            x       y       z     vdW  Elec       q    Type
REMARK                         _______ _______ _______ _____ _____    ______ ____
ROOT
ATOM      1  C   UNL     1       2.063   5.162  20.665  0.00  0.00    +0.000 A 
ATOM      2  C   UNL     1       2.037   3.969  21.393  0.00  0.00    +0.000 A 
ATOM      3  C   UNL     1       2.766   2.862  20.958  0.00  0.00    +0.000 A 
ATOM      4  C   UNL     1       3.542   2.942  19.797  0.00  0.00    +0.000 A 
ATOM      5  C   UNL     1       3.595   4.128  19.053  0.00  0.00    +0.000 A 
ATOM      6  C   UNL     1       2.848   5.227  19.501  0.00  0.00    +0.000 A 
ENDROOT
BRANCH   5   7
ATOM      7  C   UNL     1       4.418   4.246  17.852  0.00  0.00    +0.000 A 
ATOM      8  C   UNL     1       4.208   3.511  16.696  0.00  0.00    +0.000 A 
ATOM      9  N   UNL     1       5.157   3.876  15.774  0.00  0.00    +0.000 N 
ATOM     10  C   UNL     1       5.973   4.847  16.294  0.00  0.00    +0.000 A 
ATOM     11  C   UNL     1       7.060   5.532  15.776  0.00  0.00    +0.000 A 
ATOM     12  N   UNL     1       7.563   5.338  14.503  0.00  0.00    +0.000 N 
ATOM     13  N   UNL     1       7.659   6.441  16.560  0.00  0.00    +0.000 NA
ATOM     14  C   UNL     1       7.182   6.619  17.806  0.00  0.00    +0.000 A 
ATOM     15  N   UNL     1       6.146   6.005  18.388  0.00  0.00    +0.000 NA
ATOM     16  C   UNL     1       5.539   5.095  17.589  0.00  0.00    +0.000 A 
ATOM     17  H   UNL     1       5.247   3.489  14.845  0.00  0.00    +0.000 HD
ATOM     18  H   UNL     1       6.909   5.041  13.796  0.00  0.00    +0.000 HD
ATOM     19  H   UNL     1       8.175   6.107  14.246  0.00  0.00    +0.000 HD
ENDBRANCH   5   7
BRANCH   1  20
ATOM     20  C   UNL     1       1.358   6.411  21.139  0.00  0.00    +0.000 C 
BRANCH  20  21
ATOM     21  O   UNL     1       1.865   7.579  20.490  0.00  0.00    +0.000 OA
BRANCH  21  30
ATOM     22  C   UNL     1      -2.672  10.948  16.057  0.00  0.00    +0.000 C 
ATOM     23  N   UNL     1      -2.739  11.887  17.162  0.00  0.00    +0.000 N 
ATOM     24  C   UNL     1      -1.961  11.557  18.287  0.00  0.00    +0.000 A 
ATOM     25  C   UNL     1      -2.033  12.417  19.376  0.00  0.00    +0.000 A 
ATOM     26  C   UNL     1      -1.305  12.133  20.524  0.00  0.00    +0.000 A 
ATOM     27  C   UNL     1      -0.507  10.991  20.560  0.00  0.00    +0.000 A 
ATOM     28  C   UNL     1       0.244  10.678  21.702  0.00  0.00    +0.000 A 
ATOM     29  C   UNL     1       1.047   9.539  21.721  0.00  0.00    +0.000 A 
ATOM     30  C   UNL     1       1.105   8.716  20.602  0.00  0.00    +0.000 A 
ATOM     31  C   UNL     1       0.343   9.039  19.469  0.00  0.00    +0.000 A 
ATOM     32  C   UNL     1      -0.475  10.164  19.422  0.00  0.00    +0.000 A 
ATOM     33  N   UNL     1      -1.199  10.442  18.314  0.00  0.00    +0.000 NA
ATOM     34  H   UNL     1      -2.515  12.834  16.875  0.00  0.00    +0.000 HD
ENDBRANCH  21  30
ENDBRANCH  20  21
ENDBRANCH   1  20
TORSDOF 4
ENDMDL
MODEL 3
REMARK VINA RESULT:      -9.3      6.013      7.342
REMARK  Name = 
REMARK  5 active torsions:
REMARK  status: ('A' for Active; 'I' for Inactive)
REMARK    1  A    between atoms: C_1  and  N_2
REMARK    2  A    between atoms: C_9  and  O_10
REMARK    3  A    between atoms: O_10  and  C_11
REMARK    4  A    between atoms: C_11  and  C_12
REMARK    5  A    between atoms: C_16  and  C_17
REMARK                            x       y       z     vdW  Elec       q    Type
REMARK                         _______ _______ _______ _____ _____    ______ ____
ROOT
ATOM      1  C   UNL     1       7.890   7.855  17.942  0.00  0.00    +0.000 A 
ATOM      2  C   UNL     1       8.310   7.242  19.126  0.00  0.00    +0.000 A 
ATOM      3  C   UNL     1       8.164   5.864  19.295  0.00  0.00    +0.000 A 
ATOM      4  C   UNL     1       7.610   5.084  18.276  0.00  0.00    +0.000 A 
ATOM      5  C   UNL     1       7.189   5.671  17.075  0.00  0.00    +0.000 A 
ATOM      6  C   UNL     1       7.335   7.057  16.927  0.00  0.00    +0.000 A 
ENDROOT
BRANCH   5   7
ATOM      7  C   UNL     1       6.631   4.875  15.985  0.00  0.00    +0.000 A 
ATOM      8  C   UNL     1       5.585   3.980  16.138  0.00  0.00    +0.000 A 
ATOM      9  N   UNL     1       5.317   3.414  14.916  0.00  0.00    +0.000 N 
ATOM     10  C   UNL     1       6.153   3.933  13.962  0.00  0.00    +0.000 A 
ATOM     11  C   UNL     1       6.284   3.695  12.604  0.00  0.00    +0.000 A 
ATOM     12  N   UNL     1       5.505   2.799  11.895  0.00  0.00    +0.000 N 
ATOM     13  N   UNL     1       7.225   4.380  11.936  0.00  0.00    +0.000 NA
ATOM     14  C   UNL     1       7.996   5.240  12.626  0.00  0.00    +0.000 A 
ATOM     15  N   UNL     1       7.943   5.530  13.932  0.00  0.00    +0.000 NA
ATOM     16  C   UNL     1       6.986   4.843  14.598  0.00  0.00    +0.000 A 
ATOM     17  H   UNL     1       4.608   2.716  14.739  0.00  0.00    +0.000 HD
ATOM     18  H   UNL     1       4.570   2.640  12.236  0.00  0.00    +0.000 HD
ATOM     19  H   UNL     1       5.590   2.972  10.898  0.00  0.00    +0.000 HD
ENDBRANCH   5   7
BRANCH   1  20
ATOM     20  C   UNL     1       8.103   9.328  17.678  0.00  0.00    +0.000 C 
BRANCH  20  21
ATOM     21  O   UNL     1       8.991   9.909  18.636  0.00  0.00    +0.000 OA
BRANCH  21  30
ATOM     22  C   UNL     1       6.725  16.722  18.812  0.00  0.00    +0.000 C 
ATOM     23  N   UNL     1       8.026  16.961  18.214  0.00  0.00    +0.000 N 
ATOM     24  C   UNL     1       8.823  15.817  18.018  0.00  0.00    +0.000 A 
ATOM     25  C   UNL     1      10.089  16.017  17.482  0.00  0.00    +0.000 A 
ATOM     26  C   UNL     1      10.930  14.930  17.286  0.00  0.00    +0.000 A 
ATOM     27  C   UNL     1      10.485  13.653  17.625  0.00  0.00    +0.000 A 
ATOM     28  C   UNL     1      11.309  12.534  17.436  0.00  0.00    +0.000 A 
ATOM     29  C   UNL     1      10.847  11.262  17.768  0.00  0.00    +0.000 A 
ATOM     30  C   UNL     1       9.565  11.104  18.285  0.00  0.00    +0.000 A 
ATOM     31  C   UNL     1       8.756  12.235  18.474  0.00  0.00    +0.000 A 
ATOM     32  C   UNL     1       9.191  13.519  18.160  0.00  0.00    +0.000 A 
ATOM     33  N   UNL     1       8.384  14.586  18.360  0.00  0.00    +0.000 NA
ATOM     34  H   UNL     1       7.959  17.467  17.336  0.00  0.00    +0.000 HD
ENDBRANCH  21  30
ENDBRANCH  20  21
ENDBRANCH   1  20
TORSDOF 4
ENDMDL
MODEL 4
REMARK VINA RESULT:      -9.1      1.414      2.418
REMARK  Name = 
REMARK  5 active torsions:
REMARK  status: ('A' for Active; 'I' for Inactive)
REMARK    1  A    between atoms: C_1  and  N_2
REMARK    2  A    between atoms: C_9  and  O_10
REMARK    3  A    between atoms: O_10  and  C_11
REMARK    4  A    between atoms: C_11  and  C_12
REMARK    5  A    between atoms: C_16  and  C_17
REMARK                            x       y       z     vdW  Elec       q    Type
REMARK                         _______ _______ _______ _____ _____    ______ ____
ROOT
ATOM      1  C   UNL     1       2.061   5.135  20.579  0.00  0.00    +0.000 A 
ATOM      2  C   UNL     1       2.009   3.985  21.372  0.00  0.00    +0.000 A 
ATOM      3  C   UNL     1       2.762   2.861  21.030  0.00  0.00    +0.000 A 
ATOM      4  C   UNL     1       3.586   2.881  19.901  0.00  0.00    +0.000 A 
ATOM      5  C   UNL     1       3.665   4.024  19.094  0.00  0.00    +0.000 A 
ATOM      6  C   UNL     1       2.894   5.141  19.447  0.00  0.00    +0.000 A 
ENDROOT
BRANCH   5   7
ATOM      7  C   UNL     1       4.537   4.080  17.924  0.00  0.00    +0.000 A 
ATOM      8  C   UNL     1       4.504   3.159  16.890  0.00  0.00    +0.000 A 
ATOM      9  N   UNL     1       5.448   3.517  15.961  0.00  0.00    +0.000 N 
ATOM     10  C   UNL     1       6.089   4.662  16.355  0.00  0.00    +0.000 A 
ATOM     11  C   UNL     1       7.101   5.414  15.781  0.00  0.00    +0.000 A 
ATOM     12  N   UNL     1       7.705   5.108  14.575  0.00  0.00    +0.000 N 
ATOM     13  N   UNL     1       7.519   6.507  16.437  0.00  0.00    +0.000 NA
ATOM     14  C   UNL     1       6.945   6.798  17.619  0.00  0.00    +0.000 A 
ATOM     15  N   UNL     1       5.969   6.132  18.248  0.00  0.00    +0.000 NA
ATOM     16  C   UNL     1       5.545   5.035  17.576  0.00  0.00    +0.000 A 
ATOM     17  H   UNL     1       5.650   3.013  15.108  0.00  0.00    +0.000 HD
ATOM     18  H   UNL     1       7.144   4.616  13.898  0.00  0.00    +0.000 HD
ATOM     19  H   UNL     1       8.220   5.911  14.227  0.00  0.00    +0.000 HD
ENDBRANCH   5   7
BRANCH   1  20
ATOM     20  C   UNL     1       1.330   6.404  20.952  0.00  0.00    +0.000 C 
BRANCH  20  21
ATOM     21  O   UNL     1       2.092   7.567  20.618  0.00  0.00    +0.000 OA
BRANCH  21  30
ATOM     22  C   UNL     1      -2.599  12.437  23.036  0.00  0.00    +0.000 C 
ATOM     23  N   UNL     1      -2.614  12.824  21.637  0.00  0.00    +0.000 N 
ATOM     24  C   UNL     1      -1.770  12.079  20.793  0.00  0.00    +0.000 A 
ATOM     25  C   UNL     1      -1.734  12.450  19.454  0.00  0.00    +0.000 A 
ATOM     26  C   UNL     1      -0.903  11.767  18.576  0.00  0.00    +0.000 A 
ATOM     27  C   UNL     1      -0.125  10.714  19.052  0.00  0.00    +0.000 A 
ATOM     28  C   UNL     1       0.721  10.002  18.191  0.00  0.00    +0.000 A 
ATOM     29  C   UNL     1       1.486   8.943  18.678  0.00  0.00    +0.000 A 
ATOM     30  C   UNL     1       1.405   8.593  20.021  0.00  0.00    +0.000 A 
ATOM     31  C   UNL     1       0.559   9.320  20.872  0.00  0.00    +0.000 A 
ATOM     32  C   UNL     1      -0.211  10.387  20.418  0.00  0.00    +0.000 A 
ATOM     33  N   UNL     1      -1.012  11.067  21.269  0.00  0.00    +0.000 NA
ATOM     34  H   UNL     1      -3.551  12.822  21.248  0.00  0.00    +0.000 HD
ENDBRANCH  21  30
ENDBRANCH  20  21
ENDBRANCH   1  20
TORSDOF 4
ENDMDL
MODEL 5
REMARK VINA RESULT:      -9.0      2.020      2.762
REMARK  Name = 
REMARK  5 active torsions:
REMARK  status: ('A' for Active; 'I' for Inactive)
REMARK    1  A    between atoms: C_1  and  N_2
REMARK    2  A    between atoms: C_9  and  O_10
REMARK    3  A    between atoms: O_10  and  C_11
REMARK    4  A    between atoms: C_11  and  C_12
REMARK    5  A    between atoms: C_16  and  C_17
REMARK                            x       y       z     vdW  Elec       q    Type
REMARK                         _______ _______ _______ _____ _____    ______ ____
ROOT
ATOM      1  C   UNL     1       2.639   6.003  19.293  0.00  0.00    +0.000 A 
ATOM      2  C   UNL     1       2.232   4.690  19.544  0.00  0.00    +0.000 A 
ATOM      3  C   UNL     1       2.867   3.623  18.907  0.00  0.00    +0.000 A 
ATOM      4  C   UNL     1       3.925   3.858  18.025  0.00  0.00    +0.000 A 
ATOM      5  C   UNL     1       4.361   5.163  17.763  0.00  0.00    +0.000 A 
ATOM      6  C   UNL     1       3.705   6.223  18.405  0.00  0.00    +0.000 A 
ENDROOT
BRANCH   5   7
ATOM      7  C   UNL     1       5.482   5.434  16.866  0.00  0.00    +0.000 A 
ATOM      8  C   UNL     1       6.534   6.280  17.177  0.00  0.00    +0.000 A 
ATOM      9  N   UNL     1       7.404   6.297  16.115  0.00  0.00    +0.000 N 
ATOM     10  C   UNL     1       6.954   5.466  15.122  0.00  0.00    +0.000 A 
ATOM     11  C   UNL     1       7.458   5.141  13.874  0.00  0.00    +0.000 A 
ATOM     12  N   UNL     1       8.636   5.650  13.357  0.00  0.00    +0.000 N 
ATOM     13  N   UNL     1       6.759   4.277  13.121  0.00  0.00    +0.000 NA
ATOM     14  C   UNL     1       5.605   3.794  13.615  0.00  0.00    +0.000 A 
ATOM     15  N   UNL     1       5.042   4.052  14.802  0.00  0.00    +0.000 NA
ATOM     16  C   UNL     1       5.756   4.917  15.560  0.00  0.00    +0.000 A 
ATOM     17  H   UNL     1       8.254   6.841  16.065  0.00  0.00    +0.000 HD
ATOM     18  H   UNL     1       9.351   5.902  14.020  0.00  0.00    +0.000 HD
ATOM     19  H   UNL     1       8.940   5.093  12.564  0.00  0.00    +0.000 HD
ENDBRANCH   5   7
BRANCH   1  20
ATOM     20  C   UNL     1       2.040   7.185  20.020  0.00  0.00    +0.000 C 
BRANCH  20  21
ATOM     21  O   UNL     1       2.102   8.374  19.230  0.00  0.00    +0.000 OA
BRANCH  21  30
ATOM     22  C   UNL     1      -3.180  10.478  14.842  0.00  0.00    +0.000 C 
ATOM     23  N   UNL     1      -3.510  11.328  15.972  0.00  0.00    +0.000 N 
ATOM     24  C   UNL     1      -2.674  11.194  17.096  0.00  0.00    +0.000 A 
ATOM     25  C   UNL     1      -2.987  11.966  18.208  0.00  0.00    +0.000 A 
ATOM     26  C   UNL     1      -2.212  11.861  19.355  0.00  0.00    +0.000 A 
ATOM     27  C   UNL     1      -1.127  10.987  19.369  0.00  0.00    +0.000 A 
ATOM     28  C   UNL     1      -0.323  10.861  20.510  0.00  0.00    +0.000 A 
ATOM     29  C   UNL     1       0.766   9.991  20.506  0.00  0.00    +0.000 A 
ATOM     30  C   UNL     1       1.056   9.250  19.365  0.00  0.00    +0.000 A 
ATOM     31  C   UNL     1       0.237   9.383  18.233  0.00  0.00    +0.000 A 
ATOM     32  C   UNL     1      -0.862  10.236  18.208  0.00  0.00    +0.000 A 
ATOM     33  N   UNL     1      -1.631  10.334  17.100  0.00  0.00    +0.000 NA
ATOM     34  H   UNL     1      -3.558  12.308  15.715  0.00  0.00    +0.000 HD
ENDBRANCH  21  30
ENDBRANCH  20  21
ENDBRANCH   1  20
TORSDOF 4
ENDMDL
MODEL 6
REMARK VINA RESULT:      -9.0      3.388      5.597
REMARK  Name = 
REMARK  5 active torsions:
REMARK  status: ('A' for Active; 'I' for Inactive)
REMARK    1  A    between atoms: C_1  and  N_2
REMARK    2  A    between atoms: C_9  and  O_10
REMARK    3  A    between atoms: O_10  and  C_11
REMARK    4  A    between atoms: C_11  and  C_12
REMARK    5  A    between atoms: C_16  and  C_17
REMARK                            x       y       z     vdW  Elec       q    Type
REMARK                         _______ _______ _______ _____ _____    ______ ____
ROOT
ATOM      1  C   UNL     1       1.258   8.644  20.350  0.00  0.00    +0.000 A 
ATOM      2  C   UNL     1       1.200   9.491  19.240  0.00  0.00    +0.000 A 
ATOM      3  C   UNL     1       1.784   9.109  18.031  0.00  0.00    +0.000 A 
ATOM      4  C   UNL     1       2.419   7.869  17.917  0.00  0.00    +0.000 A 
ATOM      5  C   UNL     1       2.483   6.996  19.010  0.00  0.00    +0.000 A 
ATOM      6  C   UNL     1       1.899   7.400  20.219  0.00  0.00    +0.000 A 
ENDROOT
BRANCH   5   7
ATOM      7  C   UNL     1       3.118   5.684  18.910  0.00  0.00    +0.000 A 
ATOM      8  C   UNL     1       4.489   5.487  18.890  0.00  0.00    +0.000 A 
ATOM      9  N   UNL     1       4.732   4.140  18.794  0.00  0.00    +0.000 N 
ATOM     10  C   UNL     1       3.549   3.447  18.766  0.00  0.00    +0.000 A 
ATOM     11  C   UNL     1       3.258   2.096  18.677  0.00  0.00    +0.000 A 
ATOM     12  N   UNL     1       4.215   1.100  18.594  0.00  0.00    +0.000 N 
ATOM     13  N   UNL     1       1.967   1.732  18.671  0.00  0.00    +0.000 NA
ATOM     14  C   UNL     1       1.034   2.700  18.734  0.00  0.00    +0.000 A 
ATOM     15  N   UNL     1       1.221   4.022  18.819  0.00  0.00    +0.000 NA
ATOM     16  C   UNL     1       2.526   4.382  18.834  0.00  0.00    +0.000 A 
ATOM     17  H   UNL     1       5.647   3.713  18.747  0.00  0.00    +0.000 HD
ATOM     18  H   UNL     1       5.103   1.286  19.034  0.00  0.00    +0.000 HD
ATOM     19  H   UNL     1       3.799   0.197  18.797  0.00  0.00    +0.000 HD
ENDBRANCH   5   7
BRANCH   1  20
ATOM     20  C   UNL     1       0.569   8.976  21.653  0.00  0.00    +0.000 C 
BRANCH  20  21
ATOM     21  O   UNL     1       0.875  10.304  22.085  0.00  0.00    +0.000 OA
BRANCH  21  30
ATOM     22  C   UNL     1      -0.726  16.540  18.903  0.00  0.00    +0.000 C 
ATOM     23  N   UNL     1      -1.880  16.463  19.782  0.00  0.00    +0.000 N 
ATOM     24  C   UNL     1      -1.944  15.320  20.600  0.00  0.00    +0.000 A 
ATOM     25  C   UNL     1      -3.056  15.198  21.424  0.00  0.00    +0.000 A 
ATOM     26  C   UNL     1      -3.187  14.081  22.238  0.00  0.00    +0.000 A 
ATOM     27  C   UNL     1      -2.194  13.103  22.219  0.00  0.00    +0.000 A 
ATOM     28  C   UNL     1      -2.294  11.965  23.032  0.00  0.00    +0.000 A 
ATOM     29  C   UNL     1      -1.289  11.000  23.012  0.00  0.00    +0.000 A 
ATOM     30  C   UNL     1      -0.183  11.170  22.186  0.00  0.00    +0.000 A 
ATOM     31  C   UNL     1      -0.101  12.311  21.373  0.00  0.00    +0.000 A 
ATOM     32  C   UNL     1      -1.092  13.289  21.364  0.00  0.00    +0.000 A 
ATOM     33  N   UNL     1      -0.981  14.373  20.564  0.00  0.00    +0.000 NA
ATOM     34  H   UNL     1      -1.975  17.288  20.364  0.00  0.00    +0.000 HD
ENDBRANCH  21  30
ENDBRANCH  20  21
ENDBRANCH   1  20
TORSDOF 4
ENDMDL
MODEL 7
REMARK VINA RESULT:      -9.0      7.135     10.008
REMARK  Name = 
REMARK  5 active torsions:
REMARK  status: ('A' for Active; 'I' for Inactive)
REMARK    1  A    between atoms: C_1  and  N_2
REMARK    2  A    between atoms: C_9  and  O_10
REMARK    3  A    between atoms: O_10  and  C_11
REMARK    4  A    between atoms: C_11  and  C_12
REMARK    5  A    between atoms: C_16  and  C_17
REMARK                            x       y       z     vdW  Elec       q    Type
REMARK                         _______ _______ _______ _____ _____    ______ ____
ROOT
ATOM      1  C   UNL     1       8.909   9.983  18.466  0.00  0.00    +0.000 A 
ATOM      2  C   UNL     1       9.065   9.797  19.843  0.00  0.00    +0.000 A 
ATOM      3  C   UNL     1       9.598  10.816  20.634  0.00  0.00    +0.000 A 
ATOM      4  C   UNL     1       9.967  12.035  20.059  0.00  0.00    +0.000 A 
ATOM      5  C   UNL     1       9.812  12.252  18.683  0.00  0.00    +0.000 A 
ATOM      6  C   UNL     1       9.283  11.215  17.902  0.00  0.00    +0.000 A 
ENDROOT
BRANCH   5   7
ATOM      7  C   UNL     1      10.164  13.526  18.062  0.00  0.00    +0.000 A 
ATOM      8  C   UNL     1      11.016  13.648  16.976  0.00  0.00    +0.000 A 
ATOM      9  N   UNL     1      11.118  14.978  16.653  0.00  0.00    +0.000 N 
ATOM     10  C   UNL     1      10.338  15.730  17.492  0.00  0.00    +0.000 A 
ATOM     11  C   UNL     1      10.101  17.092  17.581  0.00  0.00    +0.000 A 
ATOM     12  N   UNL     1      10.670  18.034  16.743  0.00  0.00    +0.000 N 
ATOM     13  N   UNL     1       9.267  17.522  18.540  0.00  0.00    +0.000 NA
ATOM     14  C   UNL     1       8.726  16.609  19.368  0.00  0.00    +0.000 A 
ATOM     15  N   UNL     1       8.898  15.282  19.359  0.00  0.00    +0.000 NA
ATOM     16  C   UNL     1       9.734  14.854  18.383  0.00  0.00    +0.000 A 
ATOM     17  H   UNL     1      11.685  15.356  15.906  0.00  0.00    +0.000 HD
ATOM     18  H   UNL     1      10.899  17.731  15.809  0.00  0.00    +0.000 HD
ATOM     19  H   UNL     1      10.169  18.914  16.814  0.00  0.00    +0.000 HD
ENDBRANCH   5   7
BRANCH   1  20
ATOM     20  C   UNL     1       8.261   8.943  17.582  0.00  0.00    +0.000 C 
BRANCH  20  21
ATOM     21  O   UNL     1       8.072   7.708  18.276  0.00  0.00    +0.000 OA
BRANCH  21  30
ATOM     22  C   UNL     1       5.013   1.727  20.815  0.00  0.00    +0.000 C 
ATOM     23  N   UNL     1       4.228   1.851  19.600  0.00  0.00    +0.000 N 
ATOM     24  C   UNL     1       4.531   2.963  18.793  0.00  0.00    +0.000 A 
ATOM     25  C   UNL     1       3.771   3.131  17.642  0.00  0.00    +0.000 A 
ATOM     26  C   UNL     1       4.008   4.223  16.817  0.00  0.00    +0.000 A 
ATOM     27  C   UNL     1       5.012   5.128  17.155  0.00  0.00    +0.000 A 
ATOM     28  C   UNL     1       5.279   6.239  16.342  0.00  0.00    +0.000 A 
ATOM     29  C   UNL     1       6.292   7.131  16.686  0.00  0.00    +0.000 A 
ATOM     30  C   UNL     1       7.042   6.915  17.837  0.00  0.00    +0.000 A 
ATOM     31  C   UNL     1       6.758   5.803  18.645  0.00  0.00    +0.000 A 
ATOM     32  C   UNL     1       5.747   4.899  18.333  0.00  0.00    +0.000 A 
ATOM     33  N   UNL     1       5.499   3.841  19.137  0.00  0.00    +0.000 NA
ATOM     34  H   UNL     1       4.268   1.013  19.029  0.00  0.00    +0.000 HD
ENDBRANCH  21  30
ENDBRANCH  20  21
ENDBRANCH   1  20
TORSDOF 4
ENDMDL
MODEL 8
REMARK VINA RESULT:      -9.0      3.378      6.070
REMARK  Name = 
REMARK  5 active torsions:
REMARK  status: ('A' for Active; 'I' for Inactive)
REMARK    1  A    between atoms: C_1  and  N_2
REMARK    2  A    between atoms: C_9  and  O_10
REMARK    3  A    between atoms: O_10  and  C_11
REMARK    4  A    between atoms: C_11  and  C_12
REMARK    5  A    between atoms: C_16  and  C_17
REMARK                            x       y       z     vdW  Elec       q    Type
REMARK                         _______ _______ _______ _____ _____    ______ ____
ROOT
ATOM      1  C   UNL     1       1.015   8.983  20.429  0.00  0.00    +0.000 A 
ATOM      2  C   UNL     1       0.849   9.734  19.262  0.00  0.00    +0.000 A 
ATOM      3  C   UNL     1       1.436   9.317  18.066  0.00  0.00    +0.000 A 
ATOM      4  C   UNL     1       2.182   8.136  18.023  0.00  0.00    +0.000 A 
ATOM      5  C   UNL     1       2.356   7.357  19.175  0.00  0.00    +0.000 A 
ATOM      6  C   UNL     1       1.767   7.797  20.369  0.00  0.00    +0.000 A 
ENDROOT
BRANCH   5   7
ATOM      7  C   UNL     1       3.109   6.106  19.150  0.00  0.00    +0.000 A 
ATOM      8  C   UNL     1       4.187   5.868  18.313  0.00  0.00    +0.000 A 
ATOM      9  N   UNL     1       4.654   4.601  18.559  0.00  0.00    +0.000 N 
ATOM     10  C   UNL     1       3.916   4.009  19.551  0.00  0.00    +0.000 A 
ATOM     11  C   UNL     1       3.983   2.761  20.149  0.00  0.00    +0.000 A 
ATOM     12  N   UNL     1       4.911   1.791  19.818  0.00  0.00    +0.000 N 
ATOM     13  N   UNL     1       3.092   2.480  21.112  0.00  0.00    +0.000 NA
ATOM     14  C   UNL     1       2.178   3.416  21.425  0.00  0.00    +0.000 A 
ATOM     15  N   UNL     1       2.036   4.639  20.901  0.00  0.00    +0.000 NA
ATOM     16  C   UNL     1       2.944   4.921  19.937  0.00  0.00    +0.000 A 
ATOM     17  H   UNL     1       5.428   4.161  18.080  0.00  0.00    +0.000 HD
ATOM     18  H   UNL     1       5.802   2.113  19.472  0.00  0.00    +0.000 HD
ATOM     19  H   UNL     1       4.947   1.078  20.540  0.00  0.00    +0.000 HD
ENDBRANCH   5   7
BRANCH   1  20
ATOM     20  C   UNL     1       0.332   9.348  21.726  0.00  0.00    +0.000 C 
BRANCH  20  21
ATOM     21  O   UNL     1       0.625  10.693  22.113  0.00  0.00    +0.000 OA
BRANCH  21  30
ATOM     22  C   UNL     1      -1.026  16.921  18.939  0.00  0.00    +0.000 C 
ATOM     23  N   UNL     1      -2.186  16.826  19.806  0.00  0.00    +0.000 N 
ATOM     24  C   UNL     1      -2.244  15.679  20.620  0.00  0.00    +0.000 A 
ATOM     25  C   UNL     1      -3.361  15.541  21.434  0.00  0.00    +0.000 A 
ATOM     26  C   UNL     1      -3.485  14.419  22.243  0.00  0.00    +0.000 A 
ATOM     27  C   UNL     1      -2.480  13.453  22.229  0.00  0.00    +0.000 A 
ATOM     28  C   UNL     1      -2.574  12.311  23.037  0.00  0.00    +0.000 A 
ATOM     29  C   UNL     1      -1.556  11.358  23.022  0.00  0.00    +0.000 A 
ATOM     30  C   UNL     1      -0.446  11.545  22.206  0.00  0.00    +0.000 A 
ATOM     31  C   UNL     1      -0.370  12.691  21.399  0.00  0.00    +0.000 A 
ATOM     32  C   UNL     1      -1.373  13.656  21.385  0.00  0.00    +0.000 A 
ATOM     33  N   UNL     1      -1.268  14.744  20.590  0.00  0.00    +0.000 NA
ATOM     34  H   UNL     1      -2.297  17.648  20.391  0.00  0.00    +0.000 HD
ENDBRANCH  21  30
ENDBRANCH  20  21
ENDBRANCH   1  20
TORSDOF 4
ENDMDL
MODEL 9
REMARK VINA RESULT:      -9.0      3.458      5.594
REMARK  Name = 
REMARK  5 active torsions:
REMARK  status: ('A' for Active; 'I' for Inactive)
REMARK    1  A    between atoms: C_1  and  N_2
REMARK    2  A    between atoms: C_9  and  O_10
REMARK    3  A    between atoms: O_10  and  C_11
REMARK    4  A    between atoms: C_11  and  C_12
REMARK    5  A    between atoms: C_16  and  C_17
REMARK                            x       y       z     vdW  Elec       q    Type
REMARK                         _______ _______ _______ _____ _____    ______ ____
ROOT
ATOM      1  C   UNL     1       1.409   8.847  20.085  0.00  0.00    +0.000 A 
ATOM      2  C   UNL     1       1.398   9.606  18.910  0.00  0.00    +0.000 A 
ATOM      3  C   UNL     1       2.013   9.122  17.755  0.00  0.00    +0.000 A 
ATOM      4  C   UNL     1       2.632   7.869  17.758  0.00  0.00    +0.000 A 
ATOM      5  C   UNL     1       2.649   7.083  18.917  0.00  0.00    +0.000 A 
ATOM      6  C   UNL     1       2.034   7.589  20.071  0.00  0.00    +0.000 A 
ENDROOT
BRANCH   5   7
ATOM      7  C   UNL     1       3.266   5.759  18.939  0.00  0.00    +0.000 A 
ATOM      8  C   UNL     1       4.625   5.542  19.094  0.00  0.00    +0.000 A 
ATOM      9  N   UNL     1       4.852   4.188  19.074  0.00  0.00    +0.000 N 
ATOM     10  C   UNL     1       3.669   3.513  18.925  0.00  0.00    +0.000 A 
ATOM     11  C   UNL     1       3.365   2.164  18.846  0.00  0.00    +0.000 A 
ATOM     12  N   UNL     1       4.305   1.152  18.915  0.00  0.00    +0.000 N 
ATOM     13  N   UNL     1       2.077   1.819  18.694  0.00  0.00    +0.000 NA
ATOM     14  C   UNL     1       1.162   2.802  18.610  0.00  0.00    +0.000 A 
ATOM     15  N   UNL     1       1.363   4.124  18.673  0.00  0.00    +0.000 NA
ATOM     16  C   UNL     1       2.663   4.465  18.835  0.00  0.00    +0.000 A 
ATOM     17  H   UNL     1       5.758   3.747  19.154  0.00  0.00    +0.000 HD
ATOM     18  H   UNL     1       5.136   1.340  19.454  0.00  0.00    +0.000 HD
ATOM     19  H   UNL     1       3.851   0.262  19.096  0.00  0.00    +0.000 HD
ENDBRANCH   5   7
BRANCH   1  20
ATOM     20  C   UNL     1       0.686   9.289  21.335  0.00  0.00    +0.000 C 
BRANCH  20  21
ATOM     21  O   UNL     1       0.734  10.709  21.496  0.00  0.00    +0.000 OA
BRANCH  21  30
ATOM     22  C   UNL     1      -4.713  11.825  16.951  0.00  0.00    +0.000 C 
ATOM     23  N   UNL     1      -5.248  12.556  18.085  0.00  0.00    +0.000 N 
ATOM     24  C   UNL     1      -4.441  12.562  19.238  0.00  0.00    +0.000 A 
ATOM     25  C   UNL     1      -4.943  13.221  20.353  0.00  0.00    +0.000 A 
ATOM     26  C   UNL     1      -4.203  13.242  21.528  0.00  0.00    +0.000 A 
ATOM     27  C   UNL     1      -2.963  12.606  21.565  0.00  0.00    +0.000 A 
ATOM     28  C   UNL     1      -2.189  12.612  22.734  0.00  0.00    +0.000 A 
ATOM     29  C   UNL     1      -0.946  11.982  22.754  0.00  0.00    +0.000 A 
ATOM     30  C   UNL     1      -0.473  11.349  21.609  0.00  0.00    +0.000 A 
ATOM     31  C   UNL     1      -1.263  11.346  20.449  0.00  0.00    +0.000 A 
ATOM     32  C   UNL     1      -2.511  11.960  20.399  0.00  0.00    +0.000 A 
ATOM     33  N   UNL     1      -3.246  11.932  19.265  0.00  0.00    +0.000 NA
ATOM     34  H   UNL     1      -5.486  13.514  17.848  0.00  0.00    +0.000 HD
ENDBRANCH  21  30
ENDBRANCH  20  21
ENDBRANCH   1  20
TORSDOF 4
ENDMDL
