MODEL 1
REMARK VINA RESULT:      -7.7      0.000      0.000
REMARK  Name = 
REMARK  12 active torsions:
REMARK  status: ('A' for Active; 'I' for Inactive)
REMARK    1  A    between atoms: CD1_1  and  CG1_2
REMARK    2  A    between atoms: CG1_2  and  CB_3
REMARK    3  A    between atoms: CB_3  and  CG2_4
REMARK    4  A    between atoms: CB_3  and  CA_5
REMARK    5  A    between atoms: CA_5  and  N_6
REMARK    6  A    between atoms: CA_5  and  C_25
REMARK    7  A    between atoms: C_7  and  C_9
REMARK    8  A    between atoms: C_12  and  N_13
REMARK    9  A    between atoms: C_14  and  O_15
REMARK   10  A    between atoms: O_15  and  C_16
REMARK   11  A    between atoms: C_16  and  C_17
REMARK   12  A    between atoms: C_25  and  OXT_27
REMARK                            x       y       z     vdW  Elec       q    Type
REMARK                         _______ _______ _______ _____ _____    ______ ____
ROOT
ATOM      1  C   UNK A   0       1.800   5.824  19.614  0.00  0.00    +0.000 A 
ATOM      2  C   UNK A   0       1.320   4.951  20.591  0.00  0.00    +0.000 A 
ATOM      3  C   UNK A   0       1.282   3.570  20.341  0.00  0.00    +0.000 A 
ATOM      4  C   UNK A   0       1.726   3.042  19.122  0.00  0.00    +0.000 A 
ATOM      5  C   UNK A   0       2.272   3.919  18.171  0.00  0.00    +0.000 A 
ATOM      6  C   UNK A   0       2.221   5.296  18.394  0.00  0.00    +0.000 A 
ENDROOT
BRANCH   1   8
ATOM      7  N   ILE A   1       1.252   7.745  21.014  0.00  0.00    +0.000 N 
ATOM      8  C   UNK A   0       1.933   7.283  19.912  0.00  0.00    +0.000 C 
ATOM      9  O   UNK A   0       2.592   8.005  19.181  0.00  0.00    +0.000 OA
ATOM     10  H   ILE A   1       0.830   7.109  21.674  0.00  0.00    +0.000 HD
BRANCH   7  11
ATOM     11  CA  ILE A   1       1.227   9.123  21.485  0.00  0.00    +0.000 C 
BRANCH  11  12
ATOM     12  CB  ILE A   1       0.882  10.132  20.361  0.00  0.00    +0.000 C 
ATOM     13  CG2 ILE A   1       1.050  11.597  20.810  0.00  0.00    +0.000 C 
BRANCH  12  15
ATOM     14  CD1 ILE A   1      -0.662  10.159  18.266  0.00  0.00    +0.000 C 
ATOM     15  CG1 ILE A   1      -0.541  10.002  19.773  0.00  0.00    +0.000 C 
ENDBRANCH  12  15
ENDBRANCH  11  12
BRANCH  11  16
ATOM     16  C   ILE A   1       0.130   9.111  22.577  0.00  0.00    +0.000 C 
ATOM     17  O   ILE A   1      -0.892   8.429  22.497  0.00  0.00    +0.000 OA
BRANCH  16  18
ATOM     18  OXT ILE A   1       0.369   9.916  23.631  0.00  0.00    +0.000 OA
ATOM     19  HXT ILE A   1       0.804  10.762  23.403  0.00  0.00    +0.000 HD
ENDBRANCH  16  18
ENDBRANCH  11  16
ENDBRANCH   7  11
ENDBRANCH   1   8
BRANCH   4  20
ATOM     20  N   UNK A   0       1.834   1.648  18.975  0.00  0.00    +0.000 N 
ATOM     21  H   UNK A   0       1.079   1.127  19.407  0.00  0.00    +0.000 HD
ATOM     22  H   UNK A   0       1.980   1.389  18.000  0.00  0.00    +0.000 HD
ENDBRANCH   4  20
BRANCH   5  23
ATOM     23  O   UNK A   0       2.851   3.383  17.038  0.00  0.00    +0.000 OA
BRANCH  23  24
ATOM     24  C   UNK A   0       4.239   3.035  17.196  0.00  0.00    +0.000 C 
BRANCH  24  25
ATOM     25  C   UNK A   0       5.100   4.264  17.288  0.00  0.00    +0.000 A 
ATOM     26  C   UNK A   0       5.887   4.498  18.427  0.00  0.00    +0.000 A 
ATOM     27  C   UNK A   0       6.696   5.632  18.499  0.00  0.00    +0.000 A 
ATOM     28  C   UNK A   0       6.733   6.521  17.427  0.00  0.00    +0.000 A 
ATOM     29 CL   UNK A   0       7.701   7.939  17.530  0.00  0.00    +0.000 Cl
ATOM     30  C   UNK A   0       5.990   6.274  16.274  0.00  0.00    +0.000 A 
ATOM     31  C   UNK A   0       5.180   5.143  16.202  0.00  0.00    +0.000 A 
ENDBRANCH  24  25
ENDBRANCH  23  24
ENDBRANCH   5  23
TORSDOF 10
ENDMDL
MODEL 2
REMARK VINA RESULT:      -7.7      3.023      7.089
REMARK  Name = 
REMARK  12 active torsions:
REMARK  status: ('A' for Active; 'I' for Inactive)
REMARK    1  A    between atoms: CD1_1  and  CG1_2
REMARK    2  A    between atoms: CG1_2  and  CB_3
REMARK    3  A    between atoms: CB_3  and  CG2_4
REMARK    4  A    between atoms: CB_3  and  CA_5
REMARK    5  A    between atoms: CA_5  and  N_6
REMARK    6  A    between atoms: CA_5  and  C_25
REMARK    7  A    between atoms: C_7  and  C_9
REMARK    8  A    between atoms: C_12  and  N_13
REMARK    9  A    between atoms: C_14  and  O_15
REMARK   10  A    between atoms: O_15  and  C_16
REMARK   11  A    between atoms: C_16  and  C_17
REMARK   12  A    between atoms: C_25  and  OXT_27
REMARK                            x       y       z     vdW  Elec       q    Type
REMARK                         _______ _______ _______ _____ _____    ______ ____
ROOT
ATOM      1  C   UNK A   0       3.643   4.367  17.727  0.00  0.00    +0.000 A 
ATOM      2  C   UNK A   0       3.045   3.124  17.519  0.00  0.00    +0.000 A 
ATOM      3  C   UNK A   0       2.002   2.696  18.355  0.00  0.00    +0.000 A 
ATOM      4  C   UNK A   0       1.538   3.501  19.404  0.00  0.00    +0.000 A 
ATOM      5  C   UNK A   0       2.097   4.779  19.565  0.00  0.00    +0.000 A 
ATOM      6  C   UNK A   0       3.193   5.155  18.786  0.00  0.00    +0.000 A 
ENDROOT
BRANCH   1   8
ATOM      7  N   ILE A   1       5.646   5.696  17.312  0.00  0.00    +0.000 N 
ATOM      8  C   UNK A   0       4.685   4.867  16.780  0.00  0.00    +0.000 C 
ATOM      9  O   UNK A   0       4.642   4.564  15.599  0.00  0.00    +0.000 OA
ATOM     10  H   ILE A   1       5.737   5.819  18.309  0.00  0.00    +0.000 HD
BRANCH   7  11
ATOM     11  CA  ILE A   1       6.746   6.307  16.579  0.00  0.00    +0.000 C 
BRANCH  11  12
ATOM     12  CB  ILE A   1       7.761   7.016  17.511  0.00  0.00    +0.000 C 
ATOM     13  CG2 ILE A   1       7.795   6.401  18.925  0.00  0.00    +0.000 C 
BRANCH  12  15
ATOM     14  CD1 ILE A   1       8.641   9.289  18.423  0.00  0.00    +0.000 C 
ATOM     15  CG1 ILE A   1       7.545   8.536  17.686  0.00  0.00    +0.000 C 
ENDBRANCH  12  15
ENDBRANCH  11  12
BRANCH  11  16
ATOM     16  C   ILE A   1       7.402   5.112  15.849  0.00  0.00    +0.000 C 
ATOM     17  O   ILE A   1       7.633   5.105  14.640  0.00  0.00    +0.000 OA
BRANCH  16  18
ATOM     18  OXT ILE A   1       7.702   4.060  16.638  0.00  0.00    +0.000 OA
ATOM     19  HXT ILE A   1       6.944   3.479  16.842  0.00  0.00    +0.000 HD
ENDBRANCH  16  18
ENDBRANCH  11  16
ENDBRANCH   7  11
ENDBRANCH   1   8
BRANCH   4  20
ATOM     20  N   UNK A   0       0.384   3.116  20.107  0.00  0.00    +0.000 N 
ATOM     21  H   UNK A   0       0.551   2.421  20.827  0.00  0.00    +0.000 HD
ATOM     22  H   UNK A   0      -0.125   3.926  20.457  0.00  0.00    +0.000 HD
ENDBRANCH   4  20
BRANCH   5  23
ATOM     23  O   UNK A   0       1.534   5.630  20.495  0.00  0.00    +0.000 OA
BRANCH  23  24
ATOM     24  C   UNK A   0       2.282   6.840  20.713  0.00  0.00    +0.000 C 
BRANCH  24  25
ATOM     25  C   UNK A   0       1.457   8.054  20.388  0.00  0.00    +0.000 A 
ATOM     26  C   UNK A   0       1.563   8.672  19.132  0.00  0.00    +0.000 A 
ATOM     27  C   UNK A   0       0.782   9.788  18.832  0.00  0.00    +0.000 A 
ATOM     28  C   UNK A   0      -0.115  10.276  19.778  0.00  0.00    +0.000 A 
ATOM     29 CL   UNK A   0      -1.050  11.675  19.424  0.00  0.00    +0.000 Cl
ATOM     30  C   UNK A   0      -0.261   9.642  21.011  0.00  0.00    +0.000 A 
ATOM     31  C   UNK A   0       0.519   8.528  21.313  0.00  0.00    +0.000 A 
ENDBRANCH  24  25
ENDBRANCH  23  24
ENDBRANCH   5  23
TORSDOF 10
ENDMDL
MODEL 3
REMARK VINA RESULT:      -7.6      3.369      7.920
REMARK  Name = 
REMARK  12 active torsions:
REMARK  status: ('A' for Active; 'I' for Inactive)
REMARK    1  A    between atoms: CD1_1  and  CG1_2
REMARK    2  A    between atoms: CG1_2  and  CB_3
REMARK    3  A    between atoms: CB_3  and  CG2_4
REMARK    4  A    between atoms: CB_3  and  CA_5
REMARK    5  A    between atoms: CA_5  and  N_6
REMARK    6  A    between atoms: CA_5  and  C_25
REMARK    7  A    between atoms: C_7  and  C_9
REMARK    8  A    between atoms: C_12  and  N_13
REMARK    9  A    between atoms: C_14  and  O_15
REMARK   10  A    between atoms: O_15  and  C_16
REMARK   11  A    between atoms: C_16  and  C_17
REMARK   12  A    between atoms: C_25  and  OXT_27
REMARK                            x       y       z     vdW  Elec       q    Type
REMARK                         _______ _______ _______ _____ _____    ______ ____
ROOT
ATOM      1  C   UNK A   0       2.983   5.942  19.123  0.00  0.00    +0.000 A 
ATOM      2  C   UNK A   0       2.284   5.403  20.204  0.00  0.00    +0.000 A 
ATOM      3  C   UNK A   0       1.438   6.219  20.971  0.00  0.00    +0.000 A 
ATOM      4  C   UNK A   0       1.272   7.577  20.668  0.00  0.00    +0.000 A 
ATOM      5  C   UNK A   0       1.924   8.096  19.539  0.00  0.00    +0.000 A 
ATOM      6  C   UNK A   0       2.832   7.298  18.839  0.00  0.00    +0.000 A 
ENDROOT
BRANCH   1   8
ATOM      7  N   ILE A   1       5.081   5.491  17.964  0.00  0.00    +0.000 N 
ATOM      8  C   UNK A   0       3.807   5.056  18.246  0.00  0.00    +0.000 C 
ATOM      9  O   UNK A   0       3.337   4.024  17.794  0.00  0.00    +0.000 OA
ATOM     10  H   ILE A   1       5.489   6.272  18.457  0.00  0.00    +0.000 HD
BRANCH   7  11
ATOM     11  CA  ILE A   1       6.054   4.801  17.128  0.00  0.00    +0.000 C 
BRANCH  11  12
ATOM     12  CB  ILE A   1       6.422   5.605  15.855  0.00  0.00    +0.000 C 
ATOM     13  CG2 ILE A   1       5.255   6.476  15.348  0.00  0.00    +0.000 C 
BRANCH  12  15
ATOM     14  CD1 ILE A   1       5.836   3.981  13.909  0.00  0.00    +0.000 C 
ATOM     15  CG1 ILE A   1       6.906   4.757  14.657  0.00  0.00    +0.000 C 
ENDBRANCH  12  15
ENDBRANCH  11  12
BRANCH  11  16
ATOM     16  C   ILE A   1       7.280   4.639  18.057  0.00  0.00    +0.000 C 
ATOM     17  O   ILE A   1       8.339   4.128  17.693  0.00  0.00    +0.000 OA
BRANCH  16  18
ATOM     18  OXT ILE A   1       7.104   5.097  19.314  0.00  0.00    +0.000 OA
ATOM     19  HXT ILE A   1       6.249   5.544  19.464  0.00  0.00    +0.000 HD
ENDBRANCH  16  18
ENDBRANCH  11  16
ENDBRANCH   7  11
ENDBRANCH   1   8
BRANCH   4  20
ATOM     20  N   UNK A   0       0.289   8.317  21.348  0.00  0.00    +0.000 N 
ATOM     21  H   UNK A   0       0.087   7.977  22.282  0.00  0.00    +0.000 HD
ATOM     22  H   UNK A   0       0.501   9.314  21.334  0.00  0.00    +0.000 HD
ENDBRANCH   4  20
BRANCH   5  23
ATOM     23  O   UNK A   0       1.638   9.390  19.151  0.00  0.00    +0.000 OA
BRANCH  23  24
ATOM     24  C   UNK A   0       0.901   9.485  17.918  0.00  0.00    +0.000 C 
BRANCH  24  25
ATOM     25  C   UNK A   0      -0.444  10.119  18.137  0.00  0.00    +0.000 A 
ATOM     26  C   UNK A   0      -0.624  11.074  19.151  0.00  0.00    +0.000 A 
ATOM     27  C   UNK A   0      -1.871  11.671  19.337  0.00  0.00    +0.000 A 
ATOM     28  C   UNK A   0      -2.932  11.327  18.502  0.00  0.00    +0.000 A 
ATOM     29 CL   UNK A   0      -4.479  12.034  18.756  0.00  0.00    +0.000 Cl
ATOM     30  C   UNK A   0      -2.751  10.414  17.465  0.00  0.00    +0.000 A 
ATOM     31  C   UNK A   0      -1.507   9.816  17.278  0.00  0.00    +0.000 A 
ENDBRANCH  24  25
ENDBRANCH  23  24
ENDBRANCH   5  23
TORSDOF 10
ENDMDL
MODEL 4
REMARK VINA RESULT:      -7.6      3.138      7.434
REMARK  Name = 
REMARK  12 active torsions:
REMARK  status: ('A' for Active; 'I' for Inactive)
REMARK    1  A    between atoms: CD1_1  and  CG1_2
REMARK    2  A    between atoms: CG1_2  and  CB_3
REMARK    3  A    between atoms: CB_3  and  CG2_4
REMARK    4  A    between atoms: CB_3  and  CA_5
REMARK    5  A    between atoms: CA_5  and  N_6
REMARK    6  A    between atoms: CA_5  and  C_25
REMARK    7  A    between atoms: C_7  and  C_9
REMARK    8  A    between atoms: C_12  and  N_13
REMARK    9  A    between atoms: C_14  and  O_15
REMARK   10  A    between atoms: O_15  and  C_16
REMARK   11  A    between atoms: C_16  and  C_17
REMARK   12  A    between atoms: C_25  and  OXT_27
REMARK                            x       y       z     vdW  Elec       q    Type
REMARK                         _______ _______ _______ _____ _____    ______ ____
ROOT
ATOM      1  C   UNK A   0       3.510   4.099  17.692  0.00  0.00    +0.000 A 
ATOM      2  C   UNK A   0       2.893   2.868  17.465  0.00  0.00    +0.000 A 
ATOM      3  C   UNK A   0       1.811   2.467  18.263  0.00  0.00    +0.000 A 
ATOM      4  C   UNK A   0       1.327   3.286  19.292  0.00  0.00    +0.000 A 
ATOM      5  C   UNK A   0       1.908   4.551  19.470  0.00  0.00    +0.000 A 
ATOM      6  C   UNK A   0       3.039   4.901  18.730  0.00  0.00    +0.000 A 
ENDROOT
BRANCH   1   8
ATOM      7  N   ILE A   1       5.474   3.614  16.329  0.00  0.00    +0.000 N 
ATOM      8  C   UNK A   0       4.598   4.572  16.782  0.00  0.00    +0.000 C 
ATOM      9  O   UNK A   0       4.696   5.756  16.501  0.00  0.00    +0.000 OA
ATOM     10  H   ILE A   1       5.292   2.631  16.465  0.00  0.00    +0.000 HD
BRANCH   7  11
ATOM     11  CA  ILE A   1       6.610   3.845  15.447  0.00  0.00    +0.000 C 
BRANCH  11  12
ATOM     12  CB  ILE A   1       6.210   4.563  14.134  0.00  0.00    +0.000 C 
ATOM     13  CG2 ILE A   1       5.175   3.764  13.316  0.00  0.00    +0.000 C 
BRANCH  12  15
ATOM     14  CD1 ILE A   1       7.290   4.308  11.780  0.00  0.00    +0.000 C 
ATOM     15  CG1 ILE A   1       7.380   4.893  13.180  0.00  0.00    +0.000 C 
ENDBRANCH  12  15
ENDBRANCH  11  12
BRANCH  11  16
ATOM     16  C   ILE A   1       7.553   4.729  16.298  0.00  0.00    +0.000 C 
ATOM     17  O   ILE A   1       8.223   4.293  17.234  0.00  0.00    +0.000 OA
BRANCH  16  18
ATOM     18  OXT ILE A   1       7.585   6.030  15.943  0.00  0.00    +0.000 OA
ATOM     19  HXT ILE A   1       7.024   6.252  15.175  0.00  0.00    +0.000 HD
ENDBRANCH  16  18
ENDBRANCH  11  16
ENDBRANCH   7  11
ENDBRANCH   1   8
BRANCH   4  20
ATOM     20  N   UNK A   0       0.139   2.928  19.953  0.00  0.00    +0.000 N 
ATOM     21  H   UNK A   0      -0.631   2.709  19.330  0.00  0.00    +0.000 HD
ATOM     22  H   UNK A   0       0.304   2.196  20.642  0.00  0.00    +0.000 HD
ENDBRANCH   4  20
BRANCH   5  23
ATOM     23  O   UNK A   0       1.330   5.418  20.376  0.00  0.00    +0.000 OA
BRANCH  23  24
ATOM     24  C   UNK A   0       2.173   6.521  20.755  0.00  0.00    +0.000 C 
BRANCH  24  25
ATOM     25  C   UNK A   0       1.616   7.826  20.261  0.00  0.00    +0.000 A 
ATOM     26  C   UNK A   0       0.855   8.643  21.113  0.00  0.00    +0.000 A 
ATOM     27  C   UNK A   0       0.354   9.861  20.652  0.00  0.00    +0.000 A 
ATOM     28  C   UNK A   0       0.627  10.270  19.349  0.00  0.00    +0.000 A 
ATOM     29 CL   UNK A   0      -0.022  11.753  18.768  0.00  0.00    +0.000 Cl
ATOM     30  C   UNK A   0       1.419   9.487  18.511  0.00  0.00    +0.000 A 
ATOM     31  C   UNK A   0       1.918   8.270  18.968  0.00  0.00    +0.000 A 
ENDBRANCH  24  25
ENDBRANCH  23  24
ENDBRANCH   5  23
TORSDOF 10
ENDMDL
MODEL 5
REMARK VINA RESULT:      -7.5      3.321      7.565
REMARK  Name = 
REMARK  12 active torsions:
REMARK  status: ('A' for Active; 'I' for Inactive)
REMARK    1  A    between atoms: CD1_1  and  CG1_2
REMARK    2  A    between atoms: CG1_2  and  CB_3
REMARK    3  A    between atoms: CB_3  and  CG2_4
REMARK    4  A    between atoms: CB_3  and  CA_5
REMARK    5  A    between atoms: CA_5  and  N_6
REMARK    6  A    between atoms: CA_5  and  C_25
REMARK    7  A    between atoms: C_7  and  C_9
REMARK    8  A    between atoms: C_12  and  N_13
REMARK    9  A    between atoms: C_14  and  O_15
REMARK   10  A    between atoms: O_15  and  C_16
REMARK   11  A    between atoms: C_16  and  C_17
REMARK   12  A    between atoms: C_25  and  OXT_27
REMARK                            x       y       z     vdW  Elec       q    Type
REMARK                         _______ _______ _______ _____ _____    ______ ____
ROOT
ATOM      1  C   UNK A   0       4.394   4.233  19.192  0.00  0.00    +0.000 A 
ATOM      2  C   UNK A   0       3.863   2.944  19.127  0.00  0.00    +0.000 A 
ATOM      3  C   UNK A   0       2.587   2.683  19.648  0.00  0.00    +0.000 A 
ATOM      4  C   UNK A   0       1.822   3.700  20.235  0.00  0.00    +0.000 A 
ATOM      5  C   UNK A   0       2.333   5.007  20.235  0.00  0.00    +0.000 A 
ATOM      6  C   UNK A   0       3.639   5.237  19.796  0.00  0.00    +0.000 A 
ENDROOT
BRANCH   1   8
ATOM      7  N   ILE A   1       5.721   4.590  17.176  0.00  0.00    +0.000 N 
ATOM      8  C   UNK A   0       5.710   4.535  18.551  0.00  0.00    +0.000 C 
ATOM      9  O   UNK A   0       6.709   4.689  19.234  0.00  0.00    +0.000 OA
ATOM     10  H   ILE A   1       4.863   4.595  16.645  0.00  0.00    +0.000 HD
BRANCH   7  11
ATOM     11  CA  ILE A   1       6.885   4.857  16.342  0.00  0.00    +0.000 C 
BRANCH  11  12
ATOM     12  CB  ILE A   1       6.756   4.241  14.925  0.00  0.00    +0.000 C 
ATOM     13  CG2 ILE A   1       7.558   5.024  13.866  0.00  0.00    +0.000 C 
BRANCH  12  15
ATOM     14  CD1 ILE A   1       5.168   3.730  12.928  0.00  0.00    +0.000 C 
ATOM     15  CG1 ILE A   1       5.312   4.111  14.392  0.00  0.00    +0.000 C 
ENDBRANCH  12  15
ENDBRANCH  11  12
BRANCH  11  16
ATOM     16  C   ILE A   1       6.934   6.402  16.274  0.00  0.00    +0.000 C 
ATOM     17  O   ILE A   1       7.953   7.054  16.500  0.00  0.00    +0.000 OA
BRANCH  16  18
ATOM     18  OXT ILE A   1       5.766   6.993  15.951  0.00  0.00    +0.000 OA
ATOM     19  HXT ILE A   1       5.008   6.380  15.881  0.00  0.00    +0.000 HD
ENDBRANCH  16  18
ENDBRANCH  11  16
ENDBRANCH   7  11
ENDBRANCH   1   8
BRANCH   4  20
ATOM     20  N   UNK A   0       0.487   3.439  20.588  0.00  0.00    +0.000 N 
ATOM     21  H   UNK A   0      -0.153   4.196  20.375  0.00  0.00    +0.000 HD
ATOM     22  H   UNK A   0       0.172   2.545  20.212  0.00  0.00    +0.000 HD
ENDBRANCH   4  20
BRANCH   5  23
ATOM     23  O   UNK A   0       1.517   6.032  20.669  0.00  0.00    +0.000 OA
BRANCH  23  24
ATOM     24  C   UNK A   0       1.807   7.309  20.071  0.00  0.00    +0.000 C 
BRANCH  24  25
ATOM     25  C   UNK A   0       1.073   8.417  20.773  0.00  0.00    +0.000 A 
ATOM     26  C   UNK A   0       0.996   9.696  20.198  0.00  0.00    +0.000 A 
ATOM     27  C   UNK A   0       0.300  10.715  20.847  0.00  0.00    +0.000 A 
ATOM     28  C   UNK A   0      -0.333  10.453  22.059  0.00  0.00    +0.000 A 
ATOM     29 CL   UNK A   0      -1.159  11.719  22.880  0.00  0.00    +0.000 Cl
ATOM     30  C   UNK A   0      -0.301   9.176  22.616  0.00  0.00    +0.000 A 
ATOM     31  C   UNK A   0       0.396   8.157  21.970  0.00  0.00    +0.000 A 
ENDBRANCH  24  25
ENDBRANCH  23  24
ENDBRANCH   5  23
TORSDOF 10
ENDMDL
MODEL 6
REMARK VINA RESULT:      -7.5      3.780      8.651
REMARK  Name = 
REMARK  12 active torsions:
REMARK  status: ('A' for Active; 'I' for Inactive)
REMARK    1  A    between atoms: CD1_1  and  CG1_2
REMARK    2  A    between atoms: CG1_2  and  CB_3
REMARK    3  A    between atoms: CB_3  and  CG2_4
REMARK    4  A    between atoms: CB_3  and  CA_5
REMARK    5  A    between atoms: CA_5  and  N_6
REMARK    6  A    between atoms: CA_5  and  C_25
REMARK    7  A    between atoms: C_7  and  C_9
REMARK    8  A    between atoms: C_12  and  N_13
REMARK    9  A    between atoms: C_14  and  O_15
REMARK   10  A    between atoms: O_15  and  C_16
REMARK   11  A    between atoms: C_16  and  C_17
REMARK   12  A    between atoms: C_25  and  OXT_27
REMARK                            x       y       z     vdW  Elec       q    Type
REMARK                         _______ _______ _______ _____ _____    ______ ____
ROOT
ATOM      1  C   UNK A   0       2.176   7.294  19.369  0.00  0.00    +0.000 A 
ATOM      2  C   UNK A   0       2.263   7.735  18.048  0.00  0.00    +0.000 A 
ATOM      3  C   UNK A   0       1.847   9.032  17.711  0.00  0.00    +0.000 A 
ATOM      4  C   UNK A   0       1.346   9.907  18.683  0.00  0.00    +0.000 A 
ATOM      5  C   UNK A   0       1.325   9.482  20.021  0.00  0.00    +0.000 A 
ATOM      6  C   UNK A   0       1.656   8.161  20.329  0.00  0.00    +0.000 A 
ENDROOT
BRANCH   1   8
ATOM      7  N   ILE A   1       3.778   5.488  19.018  0.00  0.00    +0.000 N 
ATOM      8  C   UNK A   0       2.707   5.950  19.748  0.00  0.00    +0.000 C 
ATOM      9  O   UNK A   0       2.180   5.306  20.642  0.00  0.00    +0.000 OA
ATOM     10  H   ILE A   1       4.277   6.092  18.382  0.00  0.00    +0.000 HD
BRANCH   7  11
ATOM     11  CA  ILE A   1       4.449   4.209  19.202  0.00  0.00    +0.000 C 
BRANCH  11  12
ATOM     12  CB  ILE A   1       4.010   3.150  18.159  0.00  0.00    +0.000 C 
ATOM     13  CG2 ILE A   1       3.208   3.765  16.994  0.00  0.00    +0.000 C 
BRANCH  12  15
ATOM     14  CD1 ILE A   1       1.683   2.256  18.907  0.00  0.00    +0.000 C 
ATOM     15  CG1 ILE A   1       3.166   1.983  18.720  0.00  0.00    +0.000 C 
ENDBRANCH  12  15
ENDBRANCH  11  12
BRANCH  11  16
ATOM     16  C   ILE A   1       5.947   4.560  19.040  0.00  0.00    +0.000 C 
ATOM     17  O   ILE A   1       6.569   5.246  19.851  0.00  0.00    +0.000 OA
BRANCH  16  18
ATOM     18  OXT ILE A   1       6.530   4.062  17.931  0.00  0.00    +0.000 OA
ATOM     19  HXT ILE A   1       6.987   3.209  18.064  0.00  0.00    +0.000 HD
ENDBRANCH  16  18
ENDBRANCH  11  16
ENDBRANCH   7  11
ENDBRANCH   1   8
BRANCH   4  20
ATOM     20  N   UNK A   0       1.104  11.249  18.341  0.00  0.00    +0.000 N 
ATOM     21  H   UNK A   0       0.671  11.372  17.431  0.00  0.00    +0.000 HD
ATOM     22  H   UNK A   0       0.600  11.735  19.081  0.00  0.00    +0.000 HD
ENDBRANCH   4  20
BRANCH   5  23
ATOM     23  O   UNK A   0       0.980  10.396  20.996  0.00  0.00    +0.000 OA
BRANCH  23  24
ATOM     24  C   UNK A   0      -0.393  10.314  21.420  0.00  0.00    +0.000 C 
BRANCH  24  25
ATOM     25  C   UNK A   0      -0.840  11.597  22.064  0.00  0.00    +0.000 A 
ATOM     26  C   UNK A   0      -1.867  11.592  23.021  0.00  0.00    +0.000 A 
ATOM     27  C   UNK A   0      -2.265  12.784  23.627  0.00  0.00    +0.000 A 
ATOM     28  C   UNK A   0      -1.628  13.975  23.289  0.00  0.00    +0.000 A 
ATOM     29 CL   UNK A   0      -2.145  15.451  24.006  0.00  0.00    +0.000 Cl
ATOM     30  C   UNK A   0      -0.578  13.984  22.373  0.00  0.00    +0.000 A 
ATOM     31  C   UNK A   0      -0.180  12.795  21.766  0.00  0.00    +0.000 A 
ENDBRANCH  24  25
ENDBRANCH  23  24
ENDBRANCH   5  23
TORSDOF 10
ENDMDL
MODEL 7
REMARK VINA RESULT:      -7.5      3.393      7.892
REMARK  Name = 
REMARK  12 active torsions:
REMARK  status: ('A' for Active; 'I' for Inactive)
REMARK    1  A    between atoms: CD1_1  and  CG1_2
REMARK    2  A    between atoms: CG1_2  and  CB_3
REMARK    3  A    between atoms: CB_3  and  CG2_4
REMARK    4  A    between atoms: CB_3  and  CA_5
REMARK    5  A    between atoms: CA_5  and  N_6
REMARK    6  A    between atoms: CA_5  and  C_25
REMARK    7  A    between atoms: C_7  and  C_9
REMARK    8  A    between atoms: C_12  and  N_13
REMARK    9  A    between atoms: C_14  and  O_15
REMARK   10  A    between atoms: O_15  and  C_16
REMARK   11  A    between atoms: C_16  and  C_17
REMARK   12  A    between atoms: C_25  and  OXT_27
REMARK                            x       y       z     vdW  Elec       q    Type
REMARK                         _______ _______ _______ _____ _____    ______ ____
ROOT
ATOM      1  C   UNK A   0       3.538   4.506  17.836  0.00  0.00    +0.000 A 
ATOM      2  C   UNK A   0       2.850   3.295  17.763  0.00  0.00    +0.000 A 
ATOM      3  C   UNK A   0       1.798   3.029  18.652  0.00  0.00    +0.000 A 
ATOM      4  C   UNK A   0       1.413   3.966  19.619  0.00  0.00    +0.000 A 
ATOM      5  C   UNK A   0       2.063   5.210  19.643  0.00  0.00    +0.000 A 
ATOM      6  C   UNK A   0       3.166   5.427  18.814  0.00  0.00    +0.000 A 
ENDROOT
BRANCH   1   8
ATOM      7  N   ILE A   1       5.409   3.795  16.442  0.00  0.00    +0.000 N 
ATOM      8  C   UNK A   0       4.593   4.832  16.829  0.00  0.00    +0.000 C 
ATOM      9  O   UNK A   0       4.720   5.973  16.415  0.00  0.00    +0.000 OA
ATOM     10  H   ILE A   1       5.198   2.840  16.694  0.00  0.00    +0.000 HD
BRANCH   7  11
ATOM     11  CA  ILE A   1       6.506   3.881  15.488  0.00  0.00    +0.000 C 
BRANCH  11  12
ATOM     12  CB  ILE A   1       6.071   4.499  14.134  0.00  0.00    +0.000 C 
ATOM     13  CG2 ILE A   1       5.013   3.645  13.407  0.00  0.00    +0.000 C 
BRANCH  12  15
ATOM     14  CD1 ILE A   1       7.146   3.973  11.824  0.00  0.00    +0.000 C 
ATOM     15  CG1 ILE A   1       7.215   4.751  13.127  0.00  0.00    +0.000 C 
ENDBRANCH  12  15
ENDBRANCH  11  12
BRANCH  11  16
ATOM     16  C   ILE A   1       7.538   4.784  16.204  0.00  0.00    +0.000 C 
ATOM     17  O   ILE A   1       7.716   5.966  15.912  0.00  0.00    +0.000 OA
BRANCH  16  18
ATOM     18  OXT ILE A   1       8.244   4.176  17.179  0.00  0.00    +0.000 OA
ATOM     19  HXT ILE A   1       9.015   4.686  17.497  0.00  0.00    +0.000 HD
ENDBRANCH  16  18
ENDBRANCH  11  16
ENDBRANCH   7  11
ENDBRANCH   1   8
BRANCH   4  20
ATOM     20  N   UNK A   0       0.249   3.738  20.373  0.00  0.00    +0.000 N 
ATOM     21  H   UNK A   0      -0.609   3.786  19.835  0.00  0.00    +0.000 HD
ATOM     22  H   UNK A   0       0.321   2.877  20.915  0.00  0.00    +0.000 HD
ENDBRANCH   4  20
BRANCH   5  23
ATOM     23  O   UNK A   0       1.581   6.189  20.489  0.00  0.00    +0.000 OA
BRANCH  23  24
ATOM     24  C   UNK A   0       1.987   7.524  20.136  0.00  0.00    +0.000 C 
BRANCH  24  25
ATOM     25  C   UNK A   0       1.124   8.551  20.815  0.00  0.00    +0.000 A 
ATOM     26  C   UNK A   0       0.999   8.564  22.213  0.00  0.00    +0.000 A 
ATOM     27  C   UNK A   0       0.210   9.530  22.837  0.00  0.00    +0.000 A 
ATOM     28  C   UNK A   0      -0.439  10.492  22.067  0.00  0.00    +0.000 A 
ATOM     29 CL   UNK A   0      -1.443  11.660  22.832  0.00  0.00    +0.000 Cl
ATOM     30  C   UNK A   0      -0.285  10.515  20.682  0.00  0.00    +0.000 A 
ATOM     31  C   UNK A   0       0.501   9.550  20.057  0.00  0.00    +0.000 A 
ENDBRANCH  24  25
ENDBRANCH  23  24
ENDBRANCH   5  23
TORSDOF 10
ENDMDL
MODEL 8
REMARK VINA RESULT:      -7.4      3.673      8.341
REMARK  Name = 
REMARK  12 active torsions:
REMARK  status: ('A' for Active; 'I' for Inactive)
REMARK    1  A    between atoms: CD1_1  and  CG1_2
REMARK    2  A    between atoms: CG1_2  and  CB_3
REMARK    3  A    between atoms: CB_3  and  CG2_4
REMARK    4  A    between atoms: CB_3  and  CA_5
REMARK    5  A    between atoms: CA_5  and  N_6
REMARK    6  A    between atoms: CA_5  and  C_25
REMARK    7  A    between atoms: C_7  and  C_9
REMARK    8  A    between atoms: C_12  and  N_13
REMARK    9  A    between atoms: C_14  and  O_15
REMARK   10  A    between atoms: O_15  and  C_16
REMARK   11  A    between atoms: C_16  and  C_17
REMARK   12  A    between atoms: C_25  and  OXT_27
REMARK                            x       y       z     vdW  Elec       q    Type
REMARK                         _______ _______ _______ _____ _____    ______ ____
ROOT
ATOM      1  C   UNK A   0       2.136   7.273  19.400  0.00  0.00    +0.000 A 
ATOM      2  C   UNK A   0       1.843   7.166  20.760  0.00  0.00    +0.000 A 
ATOM      3  C   UNK A   0       1.168   8.206  21.417  0.00  0.00    +0.000 A 
ATOM      4  C   UNK A   0       0.772   9.361  20.730  0.00  0.00    +0.000 A 
ATOM      5  C   UNK A   0       1.008   9.432  19.348  0.00  0.00    +0.000 A 
ATOM      6  C   UNK A   0       1.759   8.433  18.725  0.00  0.00    +0.000 A 
ENDROOT
BRANCH   1   8
ATOM      7  N   ILE A   1       4.135   6.166  18.548  0.00  0.00    +0.000 N 
ATOM      8  C   UNK A   0       2.766   6.128  18.676  0.00  0.00    +0.000 C 
ATOM      9  O   UNK A   0       2.075   5.238  18.207  0.00  0.00    +0.000 OA
ATOM     10  H   ILE A   1       4.691   6.836  19.058  0.00  0.00    +0.000 HD
BRANCH   7  11
ATOM     11  CA  ILE A   1       4.958   5.170  17.875  0.00  0.00    +0.000 C 
BRANCH  11  12
ATOM     12  CB  ILE A   1       5.923   5.796  16.837  0.00  0.00    +0.000 C 
ATOM     13  CG2 ILE A   1       5.178   6.539  15.709  0.00  0.00    +0.000 C 
BRANCH  12  15
ATOM     14  CD1 ILE A   1       6.717   4.610  14.661  0.00  0.00    +0.000 C 
ATOM     15  CG1 ILE A   1       6.894   4.804  16.157  0.00  0.00    +0.000 C 
ENDBRANCH  12  15
ENDBRANCH  11  12
BRANCH  11  16
ATOM     16  C   ILE A   1       5.742   4.507  19.033  0.00  0.00    +0.000 C 
ATOM     17  O   ILE A   1       6.577   5.106  19.710  0.00  0.00    +0.000 OA
BRANCH  16  18
ATOM     18  OXT ILE A   1       5.448   3.209  19.247  0.00  0.00    +0.000 OA
ATOM     19  HXT ILE A   1       4.661   2.888  18.764  0.00  0.00    +0.000 HD
ENDBRANCH  16  18
ENDBRANCH  11  16
ENDBRANCH   7  11
ENDBRANCH   1   8
BRANCH   4  20
ATOM     20  N   UNK A   0      -0.050  10.299  21.378  0.00  0.00    +0.000 N 
ATOM     21  H   UNK A   0      -0.891  10.537  20.864  0.00  0.00    +0.000 HD
ATOM     22  H   UNK A   0      -0.246  10.018  22.338  0.00  0.00    +0.000 HD
ENDBRANCH   4  20
BRANCH   5  23
ATOM     23  O   UNK A   0       0.480  10.496  18.644  0.00  0.00    +0.000 OA
BRANCH  23  24
ATOM     24  C   UNK A   0      -0.503  10.121  17.662  0.00  0.00    +0.000 C 
BRANCH  24  25
ATOM     25  C   UNK A   0      -1.866  10.636  18.032  0.00  0.00    +0.000 A 
ATOM     26  C   UNK A   0      -2.001  11.728  18.904  0.00  0.00    +0.000 A 
ATOM     27  C   UNK A   0      -3.268  12.211  19.231  0.00  0.00    +0.000 A 
ATOM     28  C   UNK A   0      -4.397  11.615  18.673  0.00  0.00    +0.000 A 
ATOM     29 CL   UNK A   0      -5.962  12.185  19.105  0.00  0.00    +0.000 Cl
ATOM     30  C   UNK A   0      -4.271  10.560  17.772  0.00  0.00    +0.000 A 
ATOM     31  C   UNK A   0      -3.007  10.075  17.446  0.00  0.00    +0.000 A 
ENDBRANCH  24  25
ENDBRANCH  23  24
ENDBRANCH   5  23
TORSDOF 10
ENDMDL
MODEL 9
REMARK VINA RESULT:      -7.4      5.517      7.779
REMARK  Name = 
REMARK  12 active torsions:
REMARK  status: ('A' for Active; 'I' for Inactive)
REMARK    1  A    between atoms: CD1_1  and  CG1_2
REMARK    2  A    between atoms: CG1_2  and  CB_3
REMARK    3  A    between atoms: CB_3  and  CG2_4
REMARK    4  A    between atoms: CB_3  and  CA_5
REMARK    5  A    between atoms: CA_5  and  N_6
REMARK    6  A    between atoms: CA_5  and  C_25
REMARK    7  A    between atoms: C_7  and  C_9
REMARK    8  A    between atoms: C_12  and  N_13
REMARK    9  A    between atoms: C_14  and  O_15
REMARK   10  A    between atoms: O_15  and  C_16
REMARK   11  A    between atoms: C_16  and  C_17
REMARK   12  A    between atoms: C_25  and  OXT_27
REMARK                            x       y       z     vdW  Elec       q    Type
REMARK                         _______ _______ _______ _____ _____    ______ ____
ROOT
ATOM      1  C   UNK A   0       8.097   8.445  18.211  0.00  0.00    +0.000 A 
ATOM      2  C   UNK A   0       8.541   7.603  19.231  0.00  0.00    +0.000 A 
ATOM      3  C   UNK A   0       8.249   6.231  19.187  0.00  0.00    +0.000 A 
ATOM      4  C   UNK A   0       7.518   5.680  18.126  0.00  0.00    +0.000 A 
ATOM      5  C   UNK A   0       7.133   6.520  17.069  0.00  0.00    +0.000 A 
ATOM      6  C   UNK A   0       7.351   7.896  17.169  0.00  0.00    +0.000 A 
ENDROOT
BRANCH   1   8
ATOM      7  N   ILE A   1       9.382  10.281  19.174  0.00  0.00    +0.000 N 
ATOM      8  C   UNK A   0       8.489   9.887  18.205  0.00  0.00    +0.000 C 
ATOM      9  O   UNK A   0       8.001  10.656  17.392  0.00  0.00    +0.000 OA
ATOM     10  H   ILE A   1       9.870   9.605  19.742  0.00  0.00    +0.000 HD
BRANCH   7  11
ATOM     11  CA  ILE A   1       9.894  11.631  19.365  0.00  0.00    +0.000 C 
BRANCH  11  12
ATOM     12  CB  ILE A   1       9.878  12.070  20.851  0.00  0.00    +0.000 C 
ATOM     13  CG2 ILE A   1       8.941  11.201  21.714  0.00  0.00    +0.000 C 
BRANCH  12  15
ATOM     14  CD1 ILE A   1      10.144  14.577  20.204  0.00  0.00    +0.000 C 
ATOM     15  CG1 ILE A   1       9.480  13.543  21.099  0.00  0.00    +0.000 C 
ENDBRANCH  12  15
ENDBRANCH  11  12
BRANCH  11  16
ATOM     16  C   ILE A   1      11.342  11.548  18.826  0.00  0.00    +0.000 C 
ATOM     17  O   ILE A   1      12.333  11.549  19.556  0.00  0.00    +0.000 OA
BRANCH  16  18
ATOM     18  OXT ILE A   1      11.445  11.480  17.483  0.00  0.00    +0.000 OA
ATOM     19  HXT ILE A   1      11.684  10.596  17.141  0.00  0.00    +0.000 HD
ENDBRANCH  16  18
ENDBRANCH  11  16
ENDBRANCH   7  11
ENDBRANCH   1   8
BRANCH   4  20
ATOM     20  N   UNK A   0       7.395   4.283  18.028  0.00  0.00    +0.000 N 
ATOM     21  H   UNK A   0       7.766   3.778  18.826  0.00  0.00    +0.000 HD
ATOM     22  H   UNK A   0       6.439   4.010  17.805  0.00  0.00    +0.000 HD
ENDBRANCH   4  20
BRANCH   5  23
ATOM     23  O   UNK A   0       6.553   5.951  15.954  0.00  0.00    +0.000 OA
BRANCH  23  24
ATOM     24  C   UNK A   0       5.191   6.358  15.726  0.00  0.00    +0.000 C 
BRANCH  24  25
ATOM     25  C   UNK A   0       4.278   5.819  16.791  0.00  0.00    +0.000 A 
ATOM     26  C   UNK A   0       4.020   4.441  16.877  0.00  0.00    +0.000 A 
ATOM     27  C   UNK A   0       3.184   3.946  17.878  0.00  0.00    +0.000 A 
ATOM     28  C   UNK A   0       2.621   4.823  18.802  0.00  0.00    +0.000 A 
ATOM     29 CL   UNK A   0       1.560   4.218  20.013  0.00  0.00    +0.000 Cl
ATOM     30  C   UNK A   0       2.907   6.186  18.753  0.00  0.00    +0.000 A 
ATOM     31  C   UNK A   0       3.740   6.683  17.752  0.00  0.00    +0.000 A 
ENDBRANCH  24  25
ENDBRANCH  23  24
ENDBRANCH   5  23
TORSDOF 10
ENDMDL
