MODEL 1
REMARK VINA RESULT:      -7.5      0.000      0.000
REMARK  Name = 
REMARK  8 active torsions:
REMARK  status: ('A' for Active; 'I' for Inactive)
REMARK    1  A    between atoms: C_1  and  C_2
REMARK    2  A    between atoms: N_4  and  C_5
REMARK    3  A    between atoms: C_5  and  C_6
REMARK    4  A    between atoms: C_6  and  O_7
REMARK    5  A    between atoms: C_6  and  C_8
REMARK    6  A    between atoms: C_10  and  N_11
REMARK    7  A    between atoms: C_13  and  C_14
REMARK    8  A    between atoms: C_21  and  O_22
REMARK                            x       y       z     vdW  Elec       q    Type
REMARK                         _______ _______ _______ _____ _____    ______ ____
ROOT
ATOM      1  C   UNL     1       5.154   4.160  17.439  0.00  0.00    +0.000 C 
ATOM      2  O   UNL     1       4.707   4.944  18.568  0.00  0.00    +0.000 OA
ATOM      3  C   UNL     1       3.322   4.640  18.850  0.00  0.00    +0.000 C 
ATOM      4  C   UNL     1       2.778   3.900  17.634  0.00  0.00    +0.000 C 
ATOM      5  C   UNL     1       4.011   3.211  17.090  0.00  0.00    +0.000 C 
ENDROOT
BRANCH   3   6
ATOM      6  N   UNL     1       2.589   5.847  19.226  0.00  0.00    +0.000 N 
ATOM      7  C   UNL     1       2.551   6.953  18.395  0.00  0.00    +0.000 A 
ATOM      8  C   UNL     1       2.068   8.139  18.775  0.00  0.00    +0.000 A 
ATOM      9  C   UNL     1       2.081   9.356  17.916  0.00  0.00    +0.000 C 
ATOM     10  C   UNL     1       1.529   8.253  20.151  0.00  0.00    +0.000 A 
ATOM     11  O   UNL     1       1.170   9.327  20.619  0.00  0.00    +0.000 OA
ATOM     12  N   UNL     1       1.486   7.091  20.870  0.00  0.00    +0.000 N 
ATOM     13  C   UNL     1       2.072   5.907  20.516  0.00  0.00    +0.000 A 
ATOM     14  O   UNL     1       2.148   4.984  21.325  0.00  0.00    +0.000 OA
ATOM     15  H   UNL     1       1.154   7.163  21.818  0.00  0.00    +0.000 HD
ENDBRANCH   3   6
BRANCH   5  16
ATOM     16  O   UNL     1       4.182   1.960  17.762  0.00  0.00    +0.000 OA
ATOM     17  H   UNL     1       5.044   1.943  18.215  0.00  0.00    +0.000 HD
ENDBRANCH   5  16
BRANCH   1  18
ATOM     18  C   UNL     1       5.602   5.110  16.303  0.00  0.00    +0.000 C 
BRANCH  18  19
ATOM     19  O   UNL     1       5.286   4.503  15.036  0.00  0.00    +0.000 OA
ATOM     20  H   UNL     1       6.019   4.730  14.431  0.00  0.00    +0.000 HD
ENDBRANCH  18  19
BRANCH  18  21
ATOM     21  C   UNL     1       7.098   5.434  16.318  0.00  0.00    +0.000 C 
BRANCH  21  25
ATOM     22  C   UNL     1       8.127   8.679  17.927  0.00  0.00    +0.000 C 
ATOM     23  C   UNL     1       7.767   7.228  17.808  0.00  0.00    +0.000 C 
ATOM     24  O   UNL     1       7.781   6.465  18.769  0.00  0.00    +0.000 OA
ATOM     25  N   UNL     1       7.402   6.832  16.536  0.00  0.00    +0.000 N 
ATOM     26  H   UNL     1       7.708   7.384  15.742  0.00  0.00    +0.000 HD
ENDBRANCH  21  25
ENDBRANCH  18  21
ENDBRANCH   1  18
TORSDOF 6
ENDMDL
MODEL 2
REMARK VINA RESULT:      -7.5      2.797      6.767
REMARK  Name = 
REMARK  8 active torsions:
REMARK  status: ('A' for Active; 'I' for Inactive)
REMARK    1  A    between atoms: C_1  and  C_2
REMARK    2  A    between atoms: N_4  and  C_5
REMARK    3  A    between atoms: C_5  and  C_6
REMARK    4  A    between atoms: C_6  and  O_7
REMARK    5  A    between atoms: C_6  and  C_8
REMARK    6  A    between atoms: C_10  and  N_11
REMARK    7  A    between atoms: C_13  and  C_14
REMARK    8  A    between atoms: C_21  and  O_22
REMARK                            x       y       z     vdW  Elec       q    Type
REMARK                         _______ _______ _______ _____ _____    ______ ____
ROOT
ATOM      1  C   UNL     1       3.497   3.946  18.272  0.00  0.00    +0.000 C 
ATOM      2  O   UNL     1       4.692   3.741  17.485  0.00  0.00    +0.000 OA
ATOM      3  C   UNL     1       5.278   5.020  17.151  0.00  0.00    +0.000 C 
ATOM      4  C   UNL     1       4.219   6.077  17.440  0.00  0.00    +0.000 C 
ATOM      5  C   UNL     1       3.419   5.443  18.558  0.00  0.00    +0.000 C 
ENDROOT
BRANCH   3   6
ATOM      6  N   UNL     1       5.799   5.014  15.786  0.00  0.00    +0.000 N 
ATOM      7  C   UNL     1       5.168   4.308  14.778  0.00  0.00    +0.000 A 
ATOM      8  C   UNL     1       5.707   4.110  13.572  0.00  0.00    +0.000 A 
ATOM      9  C   UNL     1       5.070   3.296  12.499  0.00  0.00    +0.000 C 
ATOM     10  C   UNL     1       7.039   4.704  13.310  0.00  0.00    +0.000 A 
ATOM     11  O   UNL     1       7.656   4.479  12.275  0.00  0.00    +0.000 OA
ATOM     12  N   UNL     1       7.546   5.490  14.307  0.00  0.00    +0.000 N 
ATOM     13  C   UNL     1       7.040   5.606  15.573  0.00  0.00    +0.000 A 
ATOM     14  O   UNL     1       7.684   6.178  16.450  0.00  0.00    +0.000 OA
ATOM     15  H   UNL     1       8.466   5.870  14.154  0.00  0.00    +0.000 HD
ENDBRANCH   3   6
BRANCH   5  16
ATOM     16  O   UNL     1       4.044   5.743  19.809  0.00  0.00    +0.000 OA
ATOM     17  H   UNL     1       4.586   6.547  19.724  0.00  0.00    +0.000 HD
ENDBRANCH   5  16
BRANCH   1  18
ATOM     18  C   UNL     1       2.283   3.346  17.524  0.00  0.00    +0.000 C 
BRANCH  18  19
ATOM     19  O   UNL     1       1.286   4.372  17.354  0.00  0.00    +0.000 OA
ATOM     20  H   UNL     1       1.446   5.030  18.059  0.00  0.00    +0.000 HD
ENDBRANCH  18  19
BRANCH  18  21
ATOM     21  C   UNL     1       1.632   2.163  18.244  0.00  0.00    +0.000 C 
BRANCH  21  25
ATOM     22  C   UNL     1       1.721   2.622  21.980  0.00  0.00    +0.000 C 
ATOM     23  C   UNL     1       1.334   2.855  20.551  0.00  0.00    +0.000 C 
ATOM     24  O   UNL     1       0.513   3.706  20.220  0.00  0.00    +0.000 OA
ATOM     25  N   UNL     1       1.990   2.048  19.642  0.00  0.00    +0.000 N 
ATOM     26  H   UNL     1       2.393   1.173  19.961  0.00  0.00    +0.000 HD
ENDBRANCH  21  25
ENDBRANCH  18  21
ENDBRANCH   1  18
TORSDOF 6
ENDMDL
MODEL 3
REMARK VINA RESULT:      -7.3      2.646      5.074
REMARK  Name = 
REMARK  8 active torsions:
REMARK  status: ('A' for Active; 'I' for Inactive)
REMARK    1  A    between atoms: C_1  and  C_2
REMARK    2  A    between atoms: N_4  and  C_5
REMARK    3  A    between atoms: C_5  and  C_6
REMARK    4  A    between atoms: C_6  and  O_7
REMARK    5  A    between atoms: C_6  and  C_8
REMARK    6  A    between atoms: C_10  and  N_11
REMARK    7  A    between atoms: C_13  and  C_14
REMARK    8  A    between atoms: C_21  and  O_22
REMARK                            x       y       z     vdW  Elec       q    Type
REMARK                         _______ _______ _______ _____ _____    ______ ____
ROOT
ATOM      1  C   UNL     1       6.664   6.236  16.018  0.00  0.00    +0.000 C 
ATOM      2  O   UNL     1       5.250   6.149  16.308  0.00  0.00    +0.000 OA
ATOM      3  C   UNL     1       5.052   6.096  17.739  0.00  0.00    +0.000 C 
ATOM      4  C   UNL     1       6.408   5.783  18.359  0.00  0.00    +0.000 C 
ATOM      5  C   UNL     1       7.372   6.386  17.361  0.00  0.00    +0.000 C 
ENDROOT
BRANCH   3   6
ATOM      6  N   UNL     1       3.978   5.166  18.082  0.00  0.00    +0.000 N 
ATOM      7  C   UNL     1       4.208   3.805  18.176  0.00  0.00    +0.000 A 
ATOM      8  C   UNL     1       3.230   2.902  18.289  0.00  0.00    +0.000 A 
ATOM      9  C   UNL     1       3.457   1.430  18.324  0.00  0.00    +0.000 C 
ATOM     10  C   UNL     1       1.836   3.402  18.338  0.00  0.00    +0.000 A 
ATOM     11  O   UNL     1       0.875   2.641  18.329  0.00  0.00    +0.000 OA
ATOM     12  N   UNL     1       1.692   4.761  18.365  0.00  0.00    +0.000 N 
ATOM     13  C   UNL     1       2.686   5.677  18.147  0.00  0.00    +0.000 A 
ATOM     14  O   UNL     1       2.412   6.866  17.991  0.00  0.00    +0.000 OA
ATOM     15  H   UNL     1       0.749   5.112  18.363  0.00  0.00    +0.000 HD
ENDBRANCH   3   6
BRANCH   5  16
ATOM     16  O   UNL     1       7.562   7.770  17.671  0.00  0.00    +0.000 OA
ATOM     17  H   UNL     1       6.698   8.209  17.767  0.00  0.00    +0.000 HD
ENDBRANCH   5  16
BRANCH   1  18
ATOM     18  C   UNL     1       7.089   5.012  15.173  0.00  0.00    +0.000 C 
BRANCH  18  19
ATOM     19  O   UNL     1       7.958   5.456  14.113  0.00  0.00    +0.000 OA
ATOM     20  H   UNL     1       8.704   5.918  14.544  0.00  0.00    +0.000 HD
ENDBRANCH  18  19
BRANCH  18  21
ATOM     21  C   UNL     1       5.918   4.254  14.544  0.00  0.00    +0.000 C 
BRANCH  21  25
ATOM     22  C   UNL     1       6.147   2.103  11.462  0.00  0.00    +0.000 C 
ATOM     23  C   UNL     1       5.630   3.151  12.402  0.00  0.00    +0.000 C 
ATOM     24  O   UNL     1       4.671   3.867  12.129  0.00  0.00    +0.000 OA
ATOM     25  N   UNL     1       6.310   3.228  13.601  0.00  0.00    +0.000 N 
ATOM     26  H   UNL     1       7.258   2.868  13.655  0.00  0.00    +0.000 HD
ENDBRANCH  21  25
ENDBRANCH  18  21
ENDBRANCH   1  18
TORSDOF 6
ENDMDL
MODEL 4
REMARK VINA RESULT:      -7.3      2.291      3.580
REMARK  Name = 
REMARK  8 active torsions:
REMARK  status: ('A' for Active; 'I' for Inactive)
REMARK    1  A    between atoms: C_1  and  C_2
REMARK    2  A    between atoms: N_4  and  C_5
REMARK    3  A    between atoms: C_5  and  C_6
REMARK    4  A    between atoms: C_6  and  O_7
REMARK    5  A    between atoms: C_6  and  C_8
REMARK    6  A    between atoms: C_10  and  N_11
REMARK    7  A    between atoms: C_13  and  C_14
REMARK    8  A    between atoms: C_21  and  O_22
REMARK                            x       y       z     vdW  Elec       q    Type
REMARK                         _______ _______ _______ _____ _____    ______ ____
ROOT
ATOM      1  C   UNL     1       7.278   4.629  17.485  0.00  0.00    +0.000 C 
ATOM      2  O   UNL     1       6.224   3.789  18.007  0.00  0.00    +0.000 OA
ATOM      3  C   UNL     1       5.034   3.950  17.202  0.00  0.00    +0.000 C 
ATOM      4  C   UNL     1       5.240   5.201  16.357  0.00  0.00    +0.000 C 
ATOM      5  C   UNL     1       6.744   5.241  16.193  0.00  0.00    +0.000 C 
ENDROOT
BRANCH   3   6
ATOM      6  N   UNL     1       3.835   3.952  18.039  0.00  0.00    +0.000 N 
ATOM      7  C   UNL     1       3.386   5.109  18.648  0.00  0.00    +0.000 A 
ATOM      8  C   UNL     1       2.421   5.125  19.573  0.00  0.00    +0.000 A 
ATOM      9  C   UNL     1       1.973   6.353  20.286  0.00  0.00    +0.000 C 
ATOM     10  C   UNL     1       1.797   3.831  19.935  0.00  0.00    +0.000 A 
ATOM     11  O   UNL     1       0.987   3.736  20.850  0.00  0.00    +0.000 OA
ATOM     12  N   UNL     1       2.204   2.749  19.205  0.00  0.00    +0.000 N 
ATOM     13  C   UNL     1       3.260   2.720  18.334  0.00  0.00    +0.000 A 
ATOM     14  O   UNL     1       3.667   1.650  17.885  0.00  0.00    +0.000 OA
ATOM     15  H   UNL     1       1.812   1.859  19.466  0.00  0.00    +0.000 HD
ENDBRANCH   3   6
BRANCH   5  16
ATOM     16  O   UNL     1       7.114   4.435  15.071  0.00  0.00    +0.000 OA
ATOM     17  H   UNL     1       8.046   4.599  14.839  0.00  0.00    +0.000 HD
ENDBRANCH   5  16
BRANCH   1  18
ATOM     18  C   UNL     1       7.713   5.639  18.573  0.00  0.00    +0.000 C 
BRANCH  18  19
ATOM     19  O   UNL     1       6.840   5.503  19.711  0.00  0.00    +0.000 OA
ATOM     20  H   UNL     1       7.379   5.710  20.498  0.00  0.00    +0.000 HD
ENDBRANCH  18  19
BRANCH  18  21
ATOM     21  C   UNL     1       7.676   7.099  18.115  0.00  0.00    +0.000 C 
BRANCH  21  25
ATOM     22  C   UNL     1       9.469  10.159  19.379  0.00  0.00    +0.000 C 
ATOM     23  C   UNL     1       8.566   9.319  18.526  0.00  0.00    +0.000 C 
ATOM     24  O   UNL     1       7.898   9.789  17.610  0.00  0.00    +0.000 OA
ATOM     25  N   UNL     1       8.565   7.975  18.847  0.00  0.00    +0.000 N 
ATOM     26  H   UNL     1       8.858   7.690  19.776  0.00  0.00    +0.000 HD
ENDBRANCH  21  25
ENDBRANCH  18  21
ENDBRANCH   1  18
TORSDOF 6
ENDMDL
MODEL 5
REMARK VINA RESULT:      -7.2      1.131      1.206
REMARK  Name = 
REMARK  8 active torsions:
REMARK  status: ('A' for Active; 'I' for Inactive)
REMARK    1  A    between atoms: C_1  and  C_2
REMARK    2  A    between atoms: N_4  and  C_5
REMARK    3  A    between atoms: C_5  and  C_6
REMARK    4  A    between atoms: C_6  and  O_7
REMARK    5  A    between atoms: C_6  and  C_8
REMARK    6  A    between atoms: C_10  and  N_11
REMARK    7  A    between atoms: C_13  and  C_14
REMARK    8  A    between atoms: C_21  and  O_22
REMARK                            x       y       z     vdW  Elec       q    Type
REMARK                         _______ _______ _______ _____ _____    ______ ____
ROOT
ATOM      1  C   UNL     1       4.432   3.249  17.530  0.00  0.00    +0.000 C 
ATOM      2  O   UNL     1       4.207   4.175  18.618  0.00  0.00    +0.000 OA
ATOM      3  C   UNL     1       2.824   4.105  19.033  0.00  0.00    +0.000 C 
ATOM      4  C   UNL     1       2.071   3.367  17.934  0.00  0.00    +0.000 C 
ATOM      5  C   UNL     1       3.137   2.461  17.358  0.00  0.00    +0.000 C 
ENDROOT
BRANCH   3   6
ATOM      6  N   UNL     1       2.311   5.434  19.358  0.00  0.00    +0.000 N 
ATOM      7  C   UNL     1       2.335   6.461  18.431  0.00  0.00    +0.000 A 
ATOM      8  C   UNL     1       2.065   7.733  18.738  0.00  0.00    +0.000 A 
ATOM      9  C   UNL     1       2.153   8.860  17.767  0.00  0.00    +0.000 C 
ATOM     10  C   UNL     1       1.699   8.038  20.141  0.00  0.00    +0.000 A 
ATOM     11  O   UNL     1       1.545   9.189  20.535  0.00  0.00    +0.000 OA
ATOM     12  N   UNL     1       1.574   6.959  20.971  0.00  0.00    +0.000 N 
ATOM     13  C   UNL     1       1.950   5.676  20.680  0.00  0.00    +0.000 A 
ATOM     14  O   UNL     1       1.984   4.822  21.564  0.00  0.00    +0.000 OA
ATOM     15  H   UNL     1       1.360   7.157  21.935  0.00  0.00    +0.000 HD
ENDBRANCH   3   6
BRANCH   5  16
ATOM     16  O   UNL     1       3.187   1.252  18.121  0.00  0.00    +0.000 OA
ATOM     17  H   UNL     1       3.325   0.491  17.528  0.00  0.00    +0.000 HD
ENDBRANCH   5  16
BRANCH   1  18
ATOM     18  C   UNL     1       4.907   4.032  16.283  0.00  0.00    +0.000 C 
BRANCH  18  19
ATOM     19  O   UNL     1       6.128   3.441  15.799  0.00  0.00    +0.000 OA
ATOM     20  H   UNL     1       5.877   2.596  15.378  0.00  0.00    +0.000 HD
ENDBRANCH  18  19
BRANCH  18  21
ATOM     21  C   UNL     1       5.165   5.518  16.544  0.00  0.00    +0.000 C 
BRANCH  21  25
ATOM     22  C   UNL     1       8.044   6.695  18.667  0.00  0.00    +0.000 C 
ATOM     23  C   UNL     1       7.242   6.403  17.434  0.00  0.00    +0.000 C 
ATOM     24  O   UNL     1       7.641   6.681  16.307  0.00  0.00    +0.000 OA
ATOM     25  N   UNL     1       6.032   5.782  17.673  0.00  0.00    +0.000 N 
ATOM     26  H   UNL     1       5.608   5.865  18.591  0.00  0.00    +0.000 HD
ENDBRANCH  21  25
ENDBRANCH  18  21
ENDBRANCH   1  18
TORSDOF 6
ENDMDL
MODEL 6
REMARK VINA RESULT:      -7.2      2.639      4.718
REMARK  Name = 
REMARK  8 active torsions:
REMARK  status: ('A' for Active; 'I' for Inactive)
REMARK    1  A    between atoms: C_1  and  C_2
REMARK    2  A    between atoms: N_4  and  C_5
REMARK    3  A    between atoms: C_5  and  C_6
REMARK    4  A    between atoms: C_6  and  O_7
REMARK    5  A    between atoms: C_6  and  C_8
REMARK    6  A    between atoms: C_10  and  N_11
REMARK    7  A    between atoms: C_13  and  C_14
REMARK    8  A    between atoms: C_21  and  O_22
REMARK                            x       y       z     vdW  Elec       q    Type
REMARK                         _______ _______ _______ _____ _____    ______ ____
ROOT
ATOM      1  C   UNL     1       6.105   5.759  16.175  0.00  0.00    +0.000 C 
ATOM      2  O   UNL     1       4.726   5.703  16.605  0.00  0.00    +0.000 OA
ATOM      3  C   UNL     1       4.630   6.142  17.980  0.00  0.00    +0.000 C 
ATOM      4  C   UNL     1       6.046   6.136  18.543  0.00  0.00    +0.000 C 
ATOM      5  C   UNL     1       6.888   6.404  17.314  0.00  0.00    +0.000 C 
ENDROOT
BRANCH   3   6
ATOM      6  N   UNL     1       3.661   5.334  18.717  0.00  0.00    +0.000 N 
ATOM      7  C   UNL     1       3.582   3.965  18.539  0.00  0.00    +0.000 A 
ATOM      8  C   UNL     1       2.593   3.216  19.034  0.00  0.00    +0.000 A 
ATOM      9  C   UNL     1       2.457   1.752  18.794  0.00  0.00    +0.000 C 
ATOM     10  C   UNL     1       1.548   3.900  19.832  0.00  0.00    +0.000 A 
ATOM     11  O   UNL     1       0.548   3.312  20.229  0.00  0.00    +0.000 OA
ATOM     12  N   UNL     1       1.757   5.229  20.071  0.00  0.00    +0.000 N 
ATOM     13  C   UNL     1       2.713   6.009  19.480  0.00  0.00    +0.000 A 
ATOM     14  O   UNL     1       2.687   7.232  19.610  0.00  0.00    +0.000 OA
ATOM     15  H   UNL     1       1.037   5.711  20.583  0.00  0.00    +0.000 HD
ENDBRANCH   3   6
BRANCH   5  16
ATOM     16  O   UNL     1       6.986   7.817  17.113  0.00  0.00    +0.000 OA
ATOM     17  H   UNL     1       6.324   8.104  16.458  0.00  0.00    +0.000 HD
ENDBRANCH   5  16
BRANCH   1  18
ATOM     18  C   UNL     1       6.570   4.342  15.765  0.00  0.00    +0.000 C 
BRANCH  18  19
ATOM     19  O   UNL     1       7.789   4.030  16.466  0.00  0.00    +0.000 OA
ATOM     20  H   UNL     1       8.327   4.845  16.459  0.00  0.00    +0.000 HD
ENDBRANCH  18  19
BRANCH  18  21
ATOM     21  C   UNL     1       6.828   4.182  14.265  0.00  0.00    +0.000 C 
BRANCH  21  25
ATOM     22  C   UNL     1       4.445   3.162  11.534  0.00  0.00    +0.000 C 
ATOM     23  C   UNL     1       5.745   3.359  12.255  0.00  0.00    +0.000 C 
ATOM     24  O   UNL     1       6.819   2.989  11.792  0.00  0.00    +0.000 OA
ATOM     25  N   UNL     1       5.630   4.005  13.471  0.00  0.00    +0.000 N 
ATOM     26  H   UNL     1       4.736   3.998  13.951  0.00  0.00    +0.000 HD
ENDBRANCH  21  25
ENDBRANCH  18  21
ENDBRANCH   1  18
TORSDOF 6
ENDMDL
MODEL 7
REMARK VINA RESULT:      -7.2      2.791      4.904
REMARK  Name = 
REMARK  8 active torsions:
REMARK  status: ('A' for Active; 'I' for Inactive)
REMARK    1  A    between atoms: C_1  and  C_2
REMARK    2  A    between atoms: N_4  and  C_5
REMARK    3  A    between atoms: C_5  and  C_6
REMARK    4  A    between atoms: C_6  and  O_7
REMARK    5  A    between atoms: C_6  and  C_8
REMARK    6  A    between atoms: C_10  and  N_11
REMARK    7  A    between atoms: C_13  and  C_14
REMARK    8  A    between atoms: C_21  and  O_22
REMARK                            x       y       z     vdW  Elec       q    Type
REMARK                         _______ _______ _______ _____ _____    ______ ____
ROOT
ATOM      1  C   UNL     1       5.849   5.597  15.650  0.00  0.00    +0.000 C 
ATOM      2  O   UNL     1       4.645   5.843  16.411  0.00  0.00    +0.000 OA
ATOM      3  C   UNL     1       4.959   5.858  17.822  0.00  0.00    +0.000 C 
ATOM      4  C   UNL     1       6.348   5.250  17.970  0.00  0.00    +0.000 C 
ATOM      5  C   UNL     1       7.001   5.599  16.651  0.00  0.00    +0.000 C 
ENDROOT
BRANCH   3   6
ATOM      6  N   UNL     1       3.906   5.207  18.598  0.00  0.00    +0.000 N 
ATOM      7  C   UNL     1       3.756   3.832  18.593  0.00  0.00    +0.000 A 
ATOM      8  C   UNL     1       2.699   3.207  19.120  0.00  0.00    +0.000 A 
ATOM      9  C   UNL     1       2.490   1.733  19.064  0.00  0.00    +0.000 C 
ATOM     10  C   UNL     1       1.655   4.043  19.758  0.00  0.00    +0.000 A 
ATOM     11  O   UNL     1       0.602   3.566  20.165  0.00  0.00    +0.000 OA
ATOM     12  N   UNL     1       1.929   5.380  19.835  0.00  0.00    +0.000 N 
ATOM     13  C   UNL     1       2.960   6.025  19.207  0.00  0.00    +0.000 A 
ATOM     14  O   UNL     1       2.998   7.253  19.176  0.00  0.00    +0.000 OA
ATOM     15  H   UNL     1       1.211   5.963  20.235  0.00  0.00    +0.000 HD
ENDBRANCH   3   6
BRANCH   5  16
ATOM     16  O   UNL     1       7.575   6.907  16.744  0.00  0.00    +0.000 OA
ATOM     17  H   UNL     1       8.473   6.901  16.367  0.00  0.00    +0.000 HD
ENDBRANCH   5  16
BRANCH   1  18
ATOM     18  C   UNL     1       5.679   4.296  14.831  0.00  0.00    +0.000 C 
BRANCH  18  19
ATOM     19  O   UNL     1       6.172   3.188  15.609  0.00  0.00    +0.000 OA
ATOM     20  H   UNL     1       6.135   3.470  16.544  0.00  0.00    +0.000 HD
ENDBRANCH  18  19
BRANCH  18  21
ATOM     21  C   UNL     1       6.418   4.304  13.491  0.00  0.00    +0.000 C 
BRANCH  21  25
ATOM     22  C   UNL     1       5.822   1.331  11.260  0.00  0.00    +0.000 C 
ATOM     23  C   UNL     1       5.593   2.666  11.902  0.00  0.00    +0.000 C 
ATOM     24  O   UNL     1       4.645   3.386  11.607  0.00  0.00    +0.000 OA
ATOM     25  N   UNL     1       6.526   3.005  12.863  0.00  0.00    +0.000 N 
ATOM     26  H   UNL     1       7.437   2.558  12.844  0.00  0.00    +0.000 HD
ENDBRANCH  21  25
ENDBRANCH  18  21
ENDBRANCH   1  18
TORSDOF 6
ENDMDL
MODEL 8
REMARK VINA RESULT:      -7.1      2.110      3.378
REMARK  Name = 
REMARK  8 active torsions:
REMARK  status: ('A' for Active; 'I' for Inactive)
REMARK    1  A    between atoms: C_1  and  C_2
REMARK    2  A    between atoms: N_4  and  C_5
REMARK    3  A    between atoms: C_5  and  C_6
REMARK    4  A    between atoms: C_6  and  O_7
REMARK    5  A    between atoms: C_6  and  C_8
REMARK    6  A    between atoms: C_10  and  N_11
REMARK    7  A    between atoms: C_13  and  C_14
REMARK    8  A    between atoms: C_21  and  O_22
REMARK                            x       y       z     vdW  Elec       q    Type
REMARK                         _______ _______ _______ _____ _____    ______ ____
ROOT
ATOM      1  C   UNL     1       3.277   2.926  20.764  0.00  0.00    +0.000 C 
ATOM      2  O   UNL     1       3.462   4.358  20.697  0.00  0.00    +0.000 OA
ATOM      3  C   UNL     1       2.173   5.011  20.652  0.00  0.00    +0.000 C 
ATOM      4  C   UNL     1       1.147   3.934  20.322  0.00  0.00    +0.000 C 
ATOM      5  C   UNL     1       1.777   2.690  20.908  0.00  0.00    +0.000 C 
ENDROOT
BRANCH   3   6
ATOM      6  N   UNL     1       2.198   6.151  19.738  0.00  0.00    +0.000 N 
ATOM      7  C   UNL     1       2.956   6.129  18.581  0.00  0.00    +0.000 A 
ATOM      8  C   UNL     1       3.169   7.207  17.822  0.00  0.00    +0.000 A 
ATOM      9  C   UNL     1       4.036   7.215  16.611  0.00  0.00    +0.000 C 
ATOM     10  C   UNL     1       2.534   8.479  18.243  0.00  0.00    +0.000 A 
ATOM     11  O   UNL     1       2.765   9.538  17.671  0.00  0.00    +0.000 OA
ATOM     12  N   UNL     1       1.701   8.398  19.323  0.00  0.00    +0.000 N 
ATOM     13  C   UNL     1       1.567   7.319  20.154  0.00  0.00    +0.000 A 
ATOM     14  O   UNL     1       0.947   7.421  21.211  0.00  0.00    +0.000 OA
ATOM     15  H   UNL     1       1.291   9.262  19.639  0.00  0.00    +0.000 HD
ENDBRANCH   3   6
BRANCH   5  16
ATOM     16  O   UNL     1       1.420   2.591  22.290  0.00  0.00    +0.000 OA
ATOM     17  H   UNL     1       2.220   2.647  22.843  0.00  0.00    +0.000 HD
ENDBRANCH   5  16
BRANCH   1  18
ATOM     18  C   UNL     1       3.941   2.267  19.531  0.00  0.00    +0.000 C 
BRANCH  18  19
ATOM     19  O   UNL     1       5.069   1.486  19.971  0.00  0.00    +0.000 OA
ATOM     20  H   UNL     1       5.823   2.104  20.035  0.00  0.00    +0.000 HD
ENDBRANCH  18  19
BRANCH  18  21
ATOM     21  C   UNL     1       4.432   3.267  18.482  0.00  0.00    +0.000 C 
BRANCH  21  25
ATOM     22  C   UNL     1       7.640   5.228  18.275  0.00  0.00    +0.000 C 
ATOM     23  C   UNL     1       6.414   4.498  17.814  0.00  0.00    +0.000 C 
ATOM     24  O   UNL     1       6.113   4.397  16.628  0.00  0.00    +0.000 OA
ATOM     25  N   UNL     1       5.667   3.938  18.831  0.00  0.00    +0.000 N 
ATOM     26  H   UNL     1       5.760   4.307  19.772  0.00  0.00    +0.000 HD
ENDBRANCH  21  25
ENDBRANCH  18  21
ENDBRANCH   1  18
TORSDOF 6
ENDMDL
MODEL 9
REMARK VINA RESULT:      -7.0      2.796      4.864
REMARK  Name = 
REMARK  8 active torsions:
REMARK  status: ('A' for Active; 'I' for Inactive)
REMARK    1  A    between atoms: C_1  and  C_2
REMARK    2  A    between atoms: N_4  and  C_5
REMARK    3  A    between atoms: C_5  and  C_6
REMARK    4  A    between atoms: C_6  and  O_7
REMARK    5  A    between atoms: C_6  and  C_8
REMARK    6  A    between atoms: C_10  and  N_11
REMARK    7  A    between atoms: C_13  and  C_14
REMARK    8  A    between atoms: C_21  and  O_22
REMARK                            x       y       z     vdW  Elec       q    Type
REMARK                         _______ _______ _______ _____ _____    ______ ____
ROOT
ATOM      1  C   UNL     1       5.878   5.460  15.633  0.00  0.00    +0.000 C 
ATOM      2  O   UNL     1       4.742   5.926  16.397  0.00  0.00    +0.000 OA
ATOM      3  C   UNL     1       5.145   6.165  17.765  0.00  0.00    +0.000 C 
ATOM      4  C   UNL     1       6.498   5.489  17.949  0.00  0.00    +0.000 C 
ATOM      5  C   UNL     1       7.088   5.551  16.557  0.00  0.00    +0.000 C 
ENDROOT
BRANCH   3   6
ATOM      6  N   UNL     1       4.103   5.742  18.697  0.00  0.00    +0.000 N 
ATOM      7  C   UNL     1       4.129   4.489  19.284  0.00  0.00    +0.000 A 
ATOM      8  C   UNL     1       3.106   3.984  19.980  0.00  0.00    +0.000 A 
ATOM      9  C   UNL     1       3.092   2.612  20.561  0.00  0.00    +0.000 C 
ATOM     10  C   UNL     1       1.901   4.831  20.142  0.00  0.00    +0.000 A 
ATOM     11  O   UNL     1       0.878   4.407  20.668  0.00  0.00    +0.000 OA
ATOM     12  N   UNL     1       1.994   6.100  19.643  0.00  0.00    +0.000 N 
ATOM     13  C   UNL     1       2.999   6.576  18.845  0.00  0.00    +0.000 A 
ATOM     14  O   UNL     1       2.886   7.664  18.285  0.00  0.00    +0.000 OA
ATOM     15  H   UNL     1       1.169   6.672  19.717  0.00  0.00    +0.000 HD
ENDBRANCH   3   6
BRANCH   5  16
ATOM     16  O   UNL     1       7.752   6.807  16.385  0.00  0.00    +0.000 OA
ATOM     17  H   UNL     1       7.986   6.931  15.448  0.00  0.00    +0.000 HD
ENDBRANCH   5  16
BRANCH   1  18
ATOM     18  C   UNL     1       5.572   4.051  15.071  0.00  0.00    +0.000 C 
BRANCH  18  19
ATOM     19  O   UNL     1       6.237   3.069  15.888  0.00  0.00    +0.000 OA
ATOM     20  H   UNL     1       7.088   2.875  15.448  0.00  0.00    +0.000 HD
ENDBRANCH  18  19
BRANCH  18  21
ATOM     21  C   UNL     1       6.020   3.850  13.621  0.00  0.00    +0.000 C 
BRANCH  21  25
ATOM     22  C   UNL     1       3.658   3.205  10.761  0.00  0.00    +0.000 C 
ATOM     23  C   UNL     1       4.821   3.008  11.687  0.00  0.00    +0.000 C 
ATOM     24  O   UNL     1       5.590   2.057  11.587  0.00  0.00    +0.000 OA
ATOM     25  N   UNL     1       4.960   3.993  12.646  0.00  0.00    +0.000 N 
ATOM     26  H   UNL     1       4.153   4.555  12.896  0.00  0.00    +0.000 HD
ENDBRANCH  21  25
ENDBRANCH  18  21
ENDBRANCH   1  18
TORSDOF 6
ENDMDL
