MODEL 1
REMARK VINA RESULT:      -7.1      0.000      0.000
REMARK  Name = 
REMARK  4 active torsions:
REMARK  status: ('A' for Active; 'I' for Inactive)
REMARK    1  A    between atoms: C_1  and  C_2
REMARK    2  A    between atoms: C_5  and  N_6
REMARK    3  A    between atoms: C_7  and  C_9
REMARK    4  A    between atoms: C_14  and  N_15
REMARK                            x       y       z     vdW  Elec       q    Type
REMARK                         _______ _______ _______ _____ _____    ______ ____
ROOT
ATOM      1  C   UNL     1       7.547   4.941  13.141  0.00  0.00    +0.000 C 
ATOM      2  C   UNL     1       6.731   4.736  14.383  0.00  0.00    +0.000 A 
ATOM      3  C   UNL     1       5.361   4.504  14.303  0.00  0.00    +0.000 A 
ATOM      4  C   UNL     1       4.604   4.292  15.461  0.00  0.00    +0.000 A 
ATOM      5  C   UNL     1       5.183   4.282  16.739  0.00  0.00    +0.000 A 
ATOM      6  C   UNL     1       6.569   4.545  16.817  0.00  0.00    +0.000 A 
ATOM      7  C   UNL     1       7.331   4.773  15.644  0.00  0.00    +0.000 A 
ENDROOT
BRANCH   5   8
ATOM      8  N   UNL     1       4.383   4.031  17.890  0.00  0.00    +0.000 N 
ATOM      9  C   UNL     1       3.727   2.849  18.209  0.00  0.00    +0.000 C 
ATOM     10  O   UNL     1       3.798   1.813  17.555  0.00  0.00    +0.000 OA
ATOM     11  H   UNL     1       4.362   4.752  18.616  0.00  0.00    +0.000 HD
BRANCH   9  12
ATOM     12  C   UNL     1       2.952   2.896  19.434  0.00  0.00    +0.000 A 
ATOM     13  C   UNL     1       1.606   3.154  19.618  0.00  0.00    +0.000 A 
ATOM     14  C   UNL     1       1.359   3.081  21.006  0.00  0.00    +0.000 A 
ATOM     15  C   UNL     1       2.569   2.789  21.590  0.00  0.00    +0.000 A 
ATOM     16  O   UNL     1       3.543   2.672  20.648  0.00  0.00    +0.000 OA
ENDBRANCH   9  12
ENDBRANCH   5   8
BRANCH   6  17
ATOM     17  N   UNL     1       7.298   4.547  18.097  0.00  0.00    +0.000 N 
ATOM     18  O   UNL     1       6.710   4.972  19.103  0.00  0.00    +0.000 OA
ATOM     19  O   UNL     1       8.463   4.122  18.105  0.00  0.00    +0.000 OA
ENDBRANCH   6  17
TORSDOF 3
ENDMDL
MODEL 2
REMARK VINA RESULT:      -7.0      1.193      1.257
REMARK  Name = 
REMARK  4 active torsions:
REMARK  status: ('A' for Active; 'I' for Inactive)
REMARK    1  A    between atoms: C_1  and  C_2
REMARK    2  A    between atoms: C_5  and  N_6
REMARK    3  A    between atoms: C_7  and  C_9
REMARK    4  A    between atoms: C_14  and  N_15
REMARK                            x       y       z     vdW  Elec       q    Type
REMARK                         _______ _______ _______ _____ _____    ______ ____
ROOT
ATOM      1  C   UNL     1       7.765   5.164  13.276  0.00  0.00    +0.000 C 
ATOM      2  C   UNL     1       6.891   4.841  14.452  0.00  0.00    +0.000 A 
ATOM      3  C   UNL     1       5.705   4.133  14.283  0.00  0.00    +0.000 A 
ATOM      4  C   UNL     1       4.901   3.815  15.383  0.00  0.00    +0.000 A 
ATOM      5  C   UNL     1       5.255   4.170  16.694  0.00  0.00    +0.000 A 
ATOM      6  C   UNL     1       6.446   4.913  16.856  0.00  0.00    +0.000 A 
ATOM      7  C   UNL     1       7.252   5.246  15.740  0.00  0.00    +0.000 A 
ENDROOT
BRANCH   5   8
ATOM      8  N   UNL     1       4.424   3.800  17.789  0.00  0.00    +0.000 N 
ATOM      9  C   UNL     1       3.346   4.513  18.298  0.00  0.00    +0.000 C 
ATOM     10  O   UNL     1       2.916   5.560  17.823  0.00  0.00    +0.000 OA
ATOM     11  H   UNL     1       4.557   2.867  18.187  0.00  0.00    +0.000 HD
BRANCH   9  12
ATOM     12  C   UNL     1       2.704   3.906  19.448  0.00  0.00    +0.000 A 
ATOM     13  C   UNL     1       1.370   3.901  19.814  0.00  0.00    +0.000 A 
ATOM     14  C   UNL     1       1.278   3.171  21.019  0.00  0.00    +0.000 A 
ATOM     15  C   UNL     1       2.561   2.778  21.321  0.00  0.00    +0.000 A 
ATOM     16  O   UNL     1       3.435   3.215  20.376  0.00  0.00    +0.000 OA
ENDBRANCH   9  12
ENDBRANCH   5   8
BRANCH   6  17
ATOM     17  N   UNL     1       6.934   5.333  18.181  0.00  0.00    +0.000 N 
ATOM     18  O   UNL     1       6.760   4.564  19.139  0.00  0.00    +0.000 OA
ATOM     19  O   UNL     1       7.496   6.435  18.273  0.00  0.00    +0.000 OA
ENDBRANCH   6  17
TORSDOF 3
ENDMDL
MODEL 3
REMARK VINA RESULT:      -6.9      2.002      6.214
REMARK  Name = 
REMARK  4 active torsions:
REMARK  status: ('A' for Active; 'I' for Inactive)
REMARK    1  A    between atoms: C_1  and  C_2
REMARK    2  A    between atoms: C_5  and  N_6
REMARK    3  A    between atoms: C_7  and  C_9
REMARK    4  A    between atoms: C_14  and  N_15
REMARK                            x       y       z     vdW  Elec       q    Type
REMARK                         _______ _______ _______ _____ _____    ______ ____
ROOT
ATOM      1  C   UNL     1       1.564   3.089  21.264  0.00  0.00    +0.000 C 
ATOM      2  C   UNL     1       2.383   3.336  20.031  0.00  0.00    +0.000 A 
ATOM      3  C   UNL     1       2.949   2.276  19.330  0.00  0.00    +0.000 A 
ATOM      4  C   UNL     1       3.696   2.506  18.170  0.00  0.00    +0.000 A 
ATOM      5  C   UNL     1       3.890   3.795  17.650  0.00  0.00    +0.000 A 
ATOM      6  C   UNL     1       3.336   4.870  18.381  0.00  0.00    +0.000 A 
ATOM      7  C   UNL     1       2.592   4.636  19.563  0.00  0.00    +0.000 A 
ENDROOT
BRANCH   5   8
ATOM      8  N   UNL     1       4.630   3.983  16.448  0.00  0.00    +0.000 N 
ATOM      9  C   UNL     1       5.996   4.207  16.336  0.00  0.00    +0.000 C 
ATOM     10  O   UNL     1       6.781   4.217  17.279  0.00  0.00    +0.000 OA
ATOM     11  H   UNL     1       4.137   3.838  15.564  0.00  0.00    +0.000 HD
BRANCH   9  12
ATOM     12  C   UNL     1       6.471   4.399  14.978  0.00  0.00    +0.000 A 
ATOM     13  C   UNL     1       6.017   3.841  13.797  0.00  0.00    +0.000 A 
ATOM     14  C   UNL     1       6.826   4.357  12.762  0.00  0.00    +0.000 A 
ATOM     15  C   UNL     1       7.730   5.196  13.371  0.00  0.00    +0.000 A 
ATOM     16  O   UNL     1       7.524   5.232  14.714  0.00  0.00    +0.000 OA
ENDBRANCH   9  12
ENDBRANCH   5   8
BRANCH   6  17
ATOM     17  N   UNL     1       3.455   6.268  17.933  0.00  0.00    +0.000 N 
ATOM     18  O   UNL     1       2.427   6.961  17.899  0.00  0.00    +0.000 OA
ATOM     19  O   UNL     1       4.579   6.683  17.611  0.00  0.00    +0.000 OA
ENDBRANCH   6  17
TORSDOF 3
ENDMDL
MODEL 4
REMARK VINA RESULT:      -6.8      0.947      1.186
REMARK  Name = 
REMARK  4 active torsions:
REMARK  status: ('A' for Active; 'I' for Inactive)
REMARK    1  A    between atoms: C_1  and  C_2
REMARK    2  A    between atoms: C_5  and  N_6
REMARK    3  A    between atoms: C_7  and  C_9
REMARK    4  A    between atoms: C_14  and  N_15
REMARK                            x       y       z     vdW  Elec       q    Type
REMARK                         _______ _______ _______ _____ _____    ______ ____
ROOT
ATOM      1  C   UNL     1       7.745   5.065  13.465  0.00  0.00    +0.000 C 
ATOM      2  C   UNL     1       6.848   4.889  14.655  0.00  0.00    +0.000 A 
ATOM      3  C   UNL     1       5.567   4.365  14.508  0.00  0.00    +0.000 A 
ATOM      4  C   UNL     1       4.739   4.183  15.621  0.00  0.00    +0.000 A 
ATOM      5  C   UNL     1       5.160   4.493  16.923  0.00  0.00    +0.000 A 
ATOM      6  C   UNL     1       6.450   5.050  17.063  0.00  0.00    +0.000 A 
ATOM      7  C   UNL     1       7.282   5.247  15.934  0.00  0.00    +0.000 A 
ENDROOT
BRANCH   5   8
ATOM      8  N   UNL     1       4.297   4.262  18.032  0.00  0.00    +0.000 N 
ATOM      9  C   UNL     1       3.671   3.069  18.368  0.00  0.00    +0.000 C 
ATOM     10  O   UNL     1       3.826   2.008  17.772  0.00  0.00    +0.000 OA
ATOM     11  H   UNL     1       4.200   5.015  18.718  0.00  0.00    +0.000 HD
BRANCH   9  12
ATOM     12  C   UNL     1       2.816   3.140  19.538  0.00  0.00    +0.000 A 
ATOM     13  C   UNL     1       3.051   2.709  20.831  0.00  0.00    +0.000 A 
ATOM     14  C   UNL     1       1.895   3.014  21.582  0.00  0.00    +0.000 A 
ATOM     15  C   UNL     1       1.019   3.606  20.703  0.00  0.00    +0.000 A 
ATOM     16  O   UNL     1       1.565   3.691  19.461  0.00  0.00    +0.000 OA
ENDBRANCH   9  12
ENDBRANCH   5   8
BRANCH   6  17
ATOM     17  N   UNL     1       7.014   5.404  18.377  0.00  0.00    +0.000 N 
ATOM     18  O   UNL     1       7.736   6.410  18.452  0.00  0.00    +0.000 OA
ATOM     19  O   UNL     1       6.739   4.677  19.344  0.00  0.00    +0.000 OA
ENDBRANCH   6  17
TORSDOF 3
ENDMDL
MODEL 5
REMARK VINA RESULT:      -6.8      2.050      5.953
REMARK  Name = 
REMARK  4 active torsions:
REMARK  status: ('A' for Active; 'I' for Inactive)
REMARK    1  A    between atoms: C_1  and  C_2
REMARK    2  A    between atoms: C_5  and  N_6
REMARK    3  A    between atoms: C_7  and  C_9
REMARK    4  A    between atoms: C_14  and  N_15
REMARK                            x       y       z     vdW  Elec       q    Type
REMARK                         _______ _______ _______ _____ _____    ______ ____
ROOT
ATOM      1  C   UNL     1       1.849   5.039  20.881  0.00  0.00    +0.000 C 
ATOM      2  C   UNL     1       2.705   5.027  19.648  0.00  0.00    +0.000 A 
ATOM      3  C   UNL     1       2.157   4.723  18.406  0.00  0.00    +0.000 A 
ATOM      4  C   UNL     1       2.952   4.732  17.254  0.00  0.00    +0.000 A 
ATOM      5  C   UNL     1       4.315   5.065  17.291  0.00  0.00    +0.000 A 
ATOM      6  C   UNL     1       4.872   5.346  18.558  0.00  0.00    +0.000 A 
ATOM      7  C   UNL     1       4.069   5.323  19.725  0.00  0.00    +0.000 A 
ENDROOT
BRANCH   5   8
ATOM      8  N   UNL     1       5.081   5.093  16.091  0.00  0.00    +0.000 N 
ATOM      9  C   UNL     1       5.796   4.041  15.532  0.00  0.00    +0.000 C 
ATOM     10  O   UNL     1       5.818   2.898  15.978  0.00  0.00    +0.000 OA
ATOM     11  H   UNL     1       5.026   5.937  15.516  0.00  0.00    +0.000 HD
BRANCH   9  12
ATOM     12  C   UNL     1       6.515   4.373  14.316  0.00  0.00    +0.000 A 
ATOM     13  C   UNL     1       6.363   3.874  13.036  0.00  0.00    +0.000 A 
ATOM     14  C   UNL     1       7.313   4.530  12.224  0.00  0.00    +0.000 A 
ATOM     15  C   UNL     1       7.994   5.387  13.056  0.00  0.00    +0.000 A 
ATOM     16  O   UNL     1       7.519   5.304  14.327  0.00  0.00    +0.000 OA
ENDBRANCH   9  12
ENDBRANCH   5   8
BRANCH   6  17
ATOM     17  N   UNL     1       6.286   5.723  18.728  0.00  0.00    +0.000 N 
ATOM     18  O   UNL     1       6.803   6.452  17.869  0.00  0.00    +0.000 OA
ATOM     19  O   UNL     1       6.888   5.292  19.723  0.00  0.00    +0.000 OA
ENDBRANCH   6  17
TORSDOF 3
ENDMDL
MODEL 6
REMARK VINA RESULT:      -6.7      2.227      6.023
REMARK  Name = 
REMARK  4 active torsions:
REMARK  status: ('A' for Active; 'I' for Inactive)
REMARK    1  A    between atoms: C_1  and  C_2
REMARK    2  A    between atoms: C_5  and  N_6
REMARK    3  A    between atoms: C_7  and  C_9
REMARK    4  A    between atoms: C_14  and  N_15
REMARK                            x       y       z     vdW  Elec       q    Type
REMARK                         _______ _______ _______ _____ _____    ______ ____
ROOT
ATOM      1  C   UNL     1       2.242   5.367  20.942  0.00  0.00    +0.000 C 
ATOM      2  C   UNL     1       3.008   5.074  19.686  0.00  0.00    +0.000 A 
ATOM      3  C   UNL     1       2.347   4.679  18.526  0.00  0.00    +0.000 A 
ATOM      4  C   UNL     1       3.060   4.426  17.350  0.00  0.00    +0.000 A 
ATOM      5  C   UNL     1       4.454   4.576  17.275  0.00  0.00    +0.000 A 
ATOM      6  C   UNL     1       5.122   4.951  18.462  0.00  0.00    +0.000 A 
ATOM      7  C   UNL     1       4.400   5.193  19.656  0.00  0.00    +0.000 A 
ENDROOT
BRANCH   5   8
ATOM      8  N   UNL     1       5.138   4.338  16.049  0.00  0.00    +0.000 N 
ATOM      9  C   UNL     1       5.594   5.293  15.149  0.00  0.00    +0.000 C 
ATOM     10  O   UNL     1       5.518   6.506  15.320  0.00  0.00    +0.000 OA
ATOM     11  H   UNL     1       5.421   3.376  15.846  0.00  0.00    +0.000 HD
BRANCH   9  12
ATOM     12  C   UNL     1       6.228   4.754  13.960  0.00  0.00    +0.000 A 
ATOM     13  C   UNL     1       5.880   3.657  13.194  0.00  0.00    +0.000 A 
ATOM     14  C   UNL     1       6.827   3.567  12.151  0.00  0.00    +0.000 A 
ATOM     15  C   UNL     1       7.702   4.610  12.345  0.00  0.00    +0.000 A 
ATOM     16  O   UNL     1       7.349   5.339  13.437  0.00  0.00    +0.000 OA
ENDBRANCH   9  12
ENDBRANCH   5   8
BRANCH   6  17
ATOM     17  N   UNL     1       6.580   5.156  18.510  0.00  0.00    +0.000 N 
ATOM     18  O   UNL     1       7.004   6.239  18.942  0.00  0.00    +0.000 OA
ATOM     19  O   UNL     1       7.312   4.236  18.116  0.00  0.00    +0.000 OA
ENDBRANCH   6  17
TORSDOF 3
ENDMDL
MODEL 7
REMARK VINA RESULT:      -6.7      2.803      6.266
REMARK  Name = 
REMARK  4 active torsions:
REMARK  status: ('A' for Active; 'I' for Inactive)
REMARK    1  A    between atoms: C_1  and  C_2
REMARK    2  A    between atoms: C_5  and  N_6
REMARK    3  A    between atoms: C_7  and  C_9
REMARK    4  A    between atoms: C_14  and  N_15
REMARK                            x       y       z     vdW  Elec       q    Type
REMARK                         _______ _______ _______ _____ _____    ______ ____
ROOT
ATOM      1  C   UNL     1       1.125   7.787  21.266  0.00  0.00    +0.000 C 
ATOM      2  C   UNL     1       1.913   7.185  20.140  0.00  0.00    +0.000 A 
ATOM      3  C   UNL     1       2.132   7.896  18.965  0.00  0.00    +0.000 A 
ATOM      4  C   UNL     1       2.885   7.342  17.924  0.00  0.00    +0.000 A 
ATOM      5  C   UNL     1       3.467   6.068  18.021  0.00  0.00    +0.000 A 
ATOM      6  C   UNL     1       3.219   5.339  19.206  0.00  0.00    +0.000 A 
ATOM      7  C   UNL     1       2.445   5.897  20.252  0.00  0.00    +0.000 A 
ENDROOT
BRANCH   5   8
ATOM      8  N   UNL     1       4.253   5.553  16.951  0.00  0.00    +0.000 N 
ATOM      9  C   UNL     1       5.495   6.011  16.532  0.00  0.00    +0.000 C 
ATOM     10  O   UNL     1       6.128   6.909  17.079  0.00  0.00    +0.000 OA
ATOM     11  H   UNL     1       3.930   4.693  16.500  0.00  0.00    +0.000 HD
BRANCH   9  12
ATOM     12  C   UNL     1       6.046   5.313  15.386  0.00  0.00    +0.000 A 
ATOM     13  C   UNL     1       5.520   4.264  14.655  0.00  0.00    +0.000 A 
ATOM     14  C   UNL     1       6.457   3.956  13.645  0.00  0.00    +0.000 A 
ATOM     15  C   UNL     1       7.504   4.830  13.823  0.00  0.00    +0.000 A 
ATOM     16  O   UNL     1       7.267   5.660  14.873  0.00  0.00    +0.000 OA
ENDBRANCH   9  12
ENDBRANCH   5   8
BRANCH   6  17
ATOM     17  N   UNL     1       3.786   3.999  19.435  0.00  0.00    +0.000 N 
ATOM     18  O   UNL     1       3.003   3.063  19.655  0.00  0.00    +0.000 OA
ATOM     19  O   UNL     1       5.020   3.874  19.398  0.00  0.00    +0.000 OA
ENDBRANCH   6  17
TORSDOF 3
ENDMDL
MODEL 8
REMARK VINA RESULT:      -6.6      1.907      6.466
REMARK  Name = 
REMARK  4 active torsions:
REMARK  status: ('A' for Active; 'I' for Inactive)
REMARK    1  A    between atoms: C_1  and  C_2
REMARK    2  A    between atoms: C_5  and  N_6
REMARK    3  A    between atoms: C_7  and  C_9
REMARK    4  A    between atoms: C_14  and  N_15
REMARK                            x       y       z     vdW  Elec       q    Type
REMARK                         _______ _______ _______ _____ _____    ______ ____
ROOT
ATOM      1  C   UNL     1       1.517   2.512  22.189  0.00  0.00    +0.000 C 
ATOM      2  C   UNL     1       2.305   2.822  20.950  0.00  0.00    +0.000 A 
ATOM      3  C   UNL     1       3.570   2.276  20.758  0.00  0.00    +0.000 A 
ATOM      4  C   UNL     1       4.296   2.549  19.593  0.00  0.00    +0.000 A 
ATOM      5  C   UNL     1       3.783   3.357  18.567  0.00  0.00    +0.000 A 
ATOM      6  C   UNL     1       2.510   3.931  18.779  0.00  0.00    +0.000 A 
ATOM      7  C   UNL     1       1.782   3.665  19.965  0.00  0.00    +0.000 A 
ENDROOT
BRANCH   5   8
ATOM      8  N   UNL     1       4.542   3.585  17.383  0.00  0.00    +0.000 N 
ATOM      9  C   UNL     1       5.585   4.487  17.221  0.00  0.00    +0.000 C 
ATOM     10  O   UNL     1       6.046   5.189  18.116  0.00  0.00    +0.000 OA
ATOM     11  H   UNL     1       4.382   2.955  16.593  0.00  0.00    +0.000 HD
BRANCH   9  12
ATOM     12  C   UNL     1       6.152   4.528  15.886  0.00  0.00    +0.000 A 
ATOM     13  C   UNL     1       5.876   3.737  14.786  0.00  0.00    +0.000 A 
ATOM     14  C   UNL     1       6.705   4.191  13.736  0.00  0.00    +0.000 A 
ATOM     15  C   UNL     1       7.442   5.228  14.259  0.00  0.00    +0.000 A 
ATOM     16  O   UNL     1       7.115   5.445  15.560  0.00  0.00    +0.000 OA
ENDBRANCH   9  12
ENDBRANCH   5   8
BRANCH   6  17
ATOM     17  N   UNL     1       1.856   4.785  17.773  0.00  0.00    +0.000 N 
ATOM     18  O   UNL     1       2.226   5.965  17.677  0.00  0.00    +0.000 OA
ATOM     19  O   UNL     1       0.967   4.281  17.070  0.00  0.00    +0.000 OA
ENDBRANCH   6  17
TORSDOF 3
ENDMDL
MODEL 9
REMARK VINA RESULT:      -6.6      4.102      4.909
REMARK  Name = 
REMARK  4 active torsions:
REMARK  status: ('A' for Active; 'I' for Inactive)
REMARK    1  A    between atoms: C_1  and  C_2
REMARK    2  A    between atoms: C_5  and  N_6
REMARK    3  A    between atoms: C_7  and  C_9
REMARK    4  A    between atoms: C_14  and  N_15
REMARK                            x       y       z     vdW  Elec       q    Type
REMARK                         _______ _______ _______ _____ _____    ______ ____
ROOT
ATOM      1  C   UNL     1       6.395   4.021  15.037  0.00  0.00    +0.000 C 
ATOM      2  C   UNL     1       5.494   4.742  15.996  0.00  0.00    +0.000 A 
ATOM      3  C   UNL     1       5.732   6.072  16.331  0.00  0.00    +0.000 A 
ATOM      4  C   UNL     1       4.880   6.749  17.210  0.00  0.00    +0.000 A 
ATOM      5  C   UNL     1       3.747   6.139  17.770  0.00  0.00    +0.000 A 
ATOM      6  C   UNL     1       3.525   4.782  17.447  0.00  0.00    +0.000 A 
ATOM      7  C   UNL     1       4.397   4.093  16.569  0.00  0.00    +0.000 A 
ENDROOT
BRANCH   5   8
ATOM      8  N   UNL     1       2.888   6.875  18.635  0.00  0.00    +0.000 N 
ATOM      9  C   UNL     1       2.270   8.089  18.363  0.00  0.00    +0.000 C 
ATOM     10  O   UNL     1       2.337   8.681  17.290  0.00  0.00    +0.000 OA
ATOM     11  H   UNL     1       2.604   6.427  19.510  0.00  0.00    +0.000 HD
BRANCH   9  12
ATOM     12  C   UNL     1       1.475   8.624  19.452  0.00  0.00    +0.000 A 
ATOM     13  C   UNL     1       0.570   9.669  19.454  0.00  0.00    +0.000 A 
ATOM     14  C   UNL     1       0.074   9.781  20.771  0.00  0.00    +0.000 A 
ATOM     15  C   UNL     1       0.709   8.801  21.498  0.00  0.00    +0.000 A 
ATOM     16  O   UNL     1       1.559   8.090  20.710  0.00  0.00    +0.000 OA
ENDBRANCH   9  12
ENDBRANCH   5   8
BRANCH   6  17
ATOM     17  N   UNL     1       2.364   4.033  17.958  0.00  0.00    +0.000 N 
ATOM     18  O   UNL     1       1.251   4.275  17.467  0.00  0.00    +0.000 OA
ATOM     19  O   UNL     1       2.557   3.199  18.855  0.00  0.00    +0.000 OA
ENDBRANCH   6  17
TORSDOF 3
ENDMDL
