MODEL 1
REMARK VINA RESULT:      -6.6      0.000      0.000
REMARK  Name = 
REMARK  4 active torsions:
REMARK  status: ('A' for Active; 'I' for Inactive)
REMARK    1  A    between atoms: C_1  and  C_2
REMARK    2  A    between atoms: C_2  and  C_3
REMARK    3  A    between atoms: C_7  and  C_8
REMARK    4  A    between atoms: N_13  and  C_14
REMARK                            x       y       z     vdW  Elec       q    Type
REMARK                         _______ _______ _______ _____ _____    ______ ____
ROOT
ATOM      1  C   UNL     1       3.259   5.300  19.327  0.00  0.00    +0.000 C 
ATOM      2  O   UNL     1       3.366   4.478  20.240  0.00  0.00    +0.000 OA
ATOM      3  N   UNL     1       2.297   6.302  19.413  0.00  0.00    +0.000 N 
ATOM      4  C   UNL     1       1.622   6.527  20.697  0.00  0.00    +0.000 C 
ATOM      5  C   UNL     1       1.751   8.000  21.139  0.00  0.00    +0.000 C 
ATOM      6  N   UNL     1       1.308   8.894  20.052  0.00  0.00    +0.000 N 
ATOM      7  C   UNL     1       1.954   8.659  18.745  0.00  0.00    +0.000 C 
ATOM      8  C   UNL     1       1.797   7.180  18.344  0.00  0.00    +0.000 C 
ENDROOT
BRANCH   1  13
ATOM      9  C   UNL     1       6.397   4.319  14.397  0.00  0.00    +0.000 A 
ATOM     10  C   UNL     1       5.094   4.085  14.827  0.00  0.00    +0.000 A 
ATOM     11  C   UNL     1       4.942   4.586  16.123  0.00  0.00    +0.000 A 
ATOM     12  C   UNL     1       3.823   4.587  16.956  0.00  0.00    +0.000 A 
ATOM     13  C   UNL     1       4.144   5.199  18.171  0.00  0.00    +0.000 A 
ATOM     14  S   UNL     1       5.834   5.612  18.237  0.00  0.00    +0.000 S 
ATOM     15  C   UNL     1       6.045   5.122  16.657  0.00  0.00    +0.000 A 
ATOM     16  S   UNL     1       7.350   5.115  15.618  0.00  0.00    +0.000 S 
BRANCH   9  18
ATOM     17  C   UNL     1       6.034   3.252  12.169  0.00  0.00    +0.000 C 
ATOM     18  C   UNL     1       7.021   3.967  13.080  0.00  0.00    +0.000 C 
ENDBRANCH   9  18
ENDBRANCH   1  13
BRANCH   6  19
ATOM     19  C   UNL     1       0.386   9.899  20.265  0.00  0.00    +0.000 A 
ATOM     20  C   UNL     1       0.137  10.418  21.547  0.00  0.00    +0.000 A 
ATOM     21  C   UNL     1      -0.826  11.408  21.774  0.00  0.00    +0.000 A 
ATOM     22  C   UNL     1      -1.569  11.913  20.715  0.00  0.00    +0.000 A 
ATOM     23  C   UNL     1      -1.340  11.430  19.433  0.00  0.00    +0.000 A 
ATOM     24  C   UNL     1      -0.376  10.437  19.218  0.00  0.00    +0.000 A 
ENDBRANCH   6  19
TORSDOF 3
ENDMDL
MODEL 2
REMARK VINA RESULT:      -6.6      0.561      1.125
REMARK  Name = 
REMARK  4 active torsions:
REMARK  status: ('A' for Active; 'I' for Inactive)
REMARK    1  A    between atoms: C_1  and  C_2
REMARK    2  A    between atoms: C_2  and  C_3
REMARK    3  A    between atoms: C_7  and  C_8
REMARK    4  A    between atoms: N_13  and  C_14
REMARK                            x       y       z     vdW  Elec       q    Type
REMARK                         _______ _______ _______ _____ _____    ______ ____
ROOT
ATOM      1  C   UNL     1       3.318   4.794  19.082  0.00  0.00    +0.000 C 
ATOM      2  O   UNL     1       3.403   3.868  19.892  0.00  0.00    +0.000 OA
ATOM      3  N   UNL     1       2.393   5.811  19.295  0.00  0.00    +0.000 N 
ATOM      4  C   UNL     1       1.738   5.909  20.605  0.00  0.00    +0.000 C 
ATOM      5  C   UNL     1       1.923   7.316  21.214  0.00  0.00    +0.000 C 
ATOM      6  N   UNL     1       1.503   8.344  20.242  0.00  0.00    +0.000 N 
ATOM      7  C   UNL     1       2.129   8.241  18.909  0.00  0.00    +0.000 C 
ATOM      8  C   UNL     1       1.915   6.824  18.342  0.00  0.00    +0.000 C 
ENDROOT
BRANCH   1  13
ATOM      9  C   UNL     1       6.434   4.216  14.074  0.00  0.00    +0.000 A 
ATOM     10  C   UNL     1       5.157   3.877  14.512  0.00  0.00    +0.000 A 
ATOM     11  C   UNL     1       4.992   4.318  15.829  0.00  0.00    +0.000 A 
ATOM     12  C   UNL     1       3.889   4.211  16.677  0.00  0.00    +0.000 A 
ATOM     13  C   UNL     1       4.188   4.796  17.910  0.00  0.00    +0.000 A 
ATOM     14  S   UNL     1       5.848   5.321  17.969  0.00  0.00    +0.000 S 
ATOM     15  C   UNL     1       6.065   4.906  16.368  0.00  0.00    +0.000 A 
ATOM     16  S   UNL     1       7.350   5.028  15.312  0.00  0.00    +0.000 S 
BRANCH   9  18
ATOM     17  C   UNL     1       6.227   2.985  11.912  0.00  0.00    +0.000 C 
ATOM     18  C   UNL     1       7.057   3.957  12.736  0.00  0.00    +0.000 C 
ENDBRANCH   9  18
ENDBRANCH   1  13
BRANCH   6  19
ATOM     19  C   UNL     1       0.619   9.349  20.583  0.00  0.00    +0.000 A 
ATOM     20  C   UNL     1      -0.041  10.117  19.609  0.00  0.00    +0.000 A 
ATOM     21  C   UNL     1      -0.906  11.164  19.950  0.00  0.00    +0.000 A 
ATOM     22  C   UNL     1      -1.139  11.469  21.284  0.00  0.00    +0.000 A 
ATOM     23  C   UNL     1      -0.511  10.721  22.272  0.00  0.00    +0.000 A 
ATOM     24  C   UNL     1       0.355   9.678  21.920  0.00  0.00    +0.000 A 
ENDBRANCH   6  19
TORSDOF 3
ENDMDL
MODEL 3
REMARK VINA RESULT:      -6.5      0.633      1.140
REMARK  Name = 
REMARK  4 active torsions:
REMARK  status: ('A' for Active; 'I' for Inactive)
REMARK    1  A    between atoms: C_1  and  C_2
REMARK    2  A    between atoms: C_2  and  C_3
REMARK    3  A    between atoms: C_7  and  C_8
REMARK    4  A    between atoms: N_13  and  C_14
REMARK                            x       y       z     vdW  Elec       q    Type
REMARK                         _______ _______ _______ _____ _____    ______ ____
ROOT
ATOM      1  C   UNL     1       3.062   5.613  19.676  0.00  0.00    +0.000 C 
ATOM      2  O   UNL     1       3.091   4.849  20.645  0.00  0.00    +0.000 OA
ATOM      3  N   UNL     1       2.095   6.612  19.618  0.00  0.00    +0.000 N 
ATOM      4  C   UNL     1       1.314   6.912  20.824  0.00  0.00    +0.000 C 
ATOM      5  C   UNL     1       1.403   8.410  21.183  0.00  0.00    +0.000 C 
ATOM      6  N   UNL     1       1.054   9.232  20.009  0.00  0.00    +0.000 N 
ATOM      7  C   UNL     1       1.809   8.921  18.779  0.00  0.00    +0.000 C 
ATOM      8  C   UNL     1       1.687   7.419  18.458  0.00  0.00    +0.000 C 
ENDROOT
BRANCH   1  13
ATOM      9  C   UNL     1       6.462   4.657  14.918  0.00  0.00    +0.000 A 
ATOM     10  C   UNL     1       5.107   4.857  15.166  0.00  0.00    +0.000 A 
ATOM     11  C   UNL     1       4.917   5.063  16.535  0.00  0.00    +0.000 A 
ATOM     12  C   UNL     1       3.744   5.308  17.249  0.00  0.00    +0.000 A 
ATOM     13  C   UNL     1       4.042   5.445  18.608  0.00  0.00    +0.000 A 
ATOM     14  S   UNL     1       5.728   5.138  18.914  0.00  0.00    +0.000 S 
ATOM     15  C   UNL     1       6.026   4.985  17.279  0.00  0.00    +0.000 A 
ATOM     16  S   UNL     1       7.404   4.711  16.381  0.00  0.00    +0.000 S 
BRANCH   9  18
ATOM     17  C   UNL     1       6.266   3.582  12.673  0.00  0.00    +0.000 C 
ATOM     18  C   UNL     1       7.141   4.406  13.605  0.00  0.00    +0.000 C 
ENDBRANCH   9  18
ENDBRANCH   1  13
BRANCH   6  19
ATOM     19  C   UNL     1       0.116  10.243  20.081  0.00  0.00    +0.000 A 
ATOM     20  C   UNL     1      -0.815  10.467  19.052  0.00  0.00    +0.000 A 
ATOM     21  C   UNL     1      -1.740  11.516  19.102  0.00  0.00    +0.000 A 
ATOM     22  C   UNL     1      -1.762  12.374  20.194  0.00  0.00    +0.000 A 
ATOM     23  C   UNL     1      -0.864  12.173  21.234  0.00  0.00    +0.000 A 
ATOM     24  C   UNL     1       0.060  11.122  21.172  0.00  0.00    +0.000 A 
ENDBRANCH   6  19
TORSDOF 3
ENDMDL
MODEL 4
REMARK VINA RESULT:      -6.5      2.246      8.905
REMARK  Name = 
REMARK  4 active torsions:
REMARK  status: ('A' for Active; 'I' for Inactive)
REMARK    1  A    between atoms: C_1  and  C_2
REMARK    2  A    between atoms: C_2  and  C_3
REMARK    3  A    between atoms: C_7  and  C_8
REMARK    4  A    between atoms: N_13  and  C_14
REMARK                            x       y       z     vdW  Elec       q    Type
REMARK                         _______ _______ _______ _____ _____    ______ ____
ROOT
ATOM      1  C   UNL     1       3.324   5.447  19.368  0.00  0.00    +0.000 C 
ATOM      2  O   UNL     1       3.089   4.463  20.074  0.00  0.00    +0.000 OA
ATOM      3  N   UNL     1       4.227   5.337  18.315  0.00  0.00    +0.000 N 
ATOM      4  C   UNL     1       4.666   4.000  17.896  0.00  0.00    +0.000 C 
ATOM      5  C   UNL     1       4.420   3.783  16.388  0.00  0.00    +0.000 C 
ATOM      6  N   UNL     1       5.015   4.891  15.616  0.00  0.00    +0.000 N 
ATOM      7  C   UNL     1       4.608   6.244  16.045  0.00  0.00    +0.000 C 
ATOM      8  C   UNL     1       4.876   6.415  17.553  0.00  0.00    +0.000 C 
ENDROOT
BRANCH   1  13
ATOM      9  C   UNL     1       0.256  10.203  21.124  0.00  0.00    +0.000 A 
ATOM     10  C   UNL     1       0.693   9.014  21.702  0.00  0.00    +0.000 A 
ATOM     11  C   UNL     1       1.419   8.285  20.756  0.00  0.00    +0.000 A 
ATOM     12  C   UNL     1       2.050   7.046  20.874  0.00  0.00    +0.000 A 
ATOM     13  C   UNL     1       2.653   6.709  19.659  0.00  0.00    +0.000 A 
ATOM     14  S   UNL     1       2.287   7.889  18.431  0.00  0.00    +0.000 S 
ATOM     15  C   UNL     1       1.497   8.846  19.545  0.00  0.00    +0.000 A 
ATOM     16  S   UNL     1       0.745  10.332  19.458  0.00  0.00    +0.000 S 
BRANCH   9  18
ATOM     17  C   UNL     1      -1.178  10.856  23.061  0.00  0.00    +0.000 C 
ATOM     18  C   UNL     1      -0.548  11.302  21.750  0.00  0.00    +0.000 C 
ENDBRANCH   9  18
ENDBRANCH   1  13
BRANCH   6  19
ATOM     19  C   UNL     1       5.857   4.663  14.545  0.00  0.00    +0.000 A 
ATOM     20  C   UNL     1       7.081   5.338  14.408  0.00  0.00    +0.000 A 
ATOM     21  C   UNL     1       7.919   5.140  13.303  0.00  0.00    +0.000 A 
ATOM     22  C   UNL     1       7.552   4.251  12.301  0.00  0.00    +0.000 A 
ATOM     23  C   UNL     1       6.353   3.559  12.413  0.00  0.00    +0.000 A 
ATOM     24  C   UNL     1       5.521   3.767  13.520  0.00  0.00    +0.000 A 
ENDBRANCH   6  19
TORSDOF 3
ENDMDL
MODEL 5
REMARK VINA RESULT:      -6.3      3.590      5.087
REMARK  Name = 
REMARK  4 active torsions:
REMARK  status: ('A' for Active; 'I' for Inactive)
REMARK    1  A    between atoms: C_1  and  C_2
REMARK    2  A    between atoms: C_2  and  C_3
REMARK    3  A    between atoms: C_7  and  C_8
REMARK    4  A    between atoms: N_13  and  C_14
REMARK                            x       y       z     vdW  Elec       q    Type
REMARK                         _______ _______ _______ _____ _____    ______ ____
ROOT
ATOM      1  C   UNL     1       1.314   9.516  19.023  0.00  0.00    +0.000 C 
ATOM      2  O   UNL     1       1.340   9.903  17.853  0.00  0.00    +0.000 OA
ATOM      3  N   UNL     1       0.843  10.368  20.018  0.00  0.00    +0.000 N 
ATOM      4  C   UNL     1       0.137  11.593  19.624  0.00  0.00    +0.000 C 
ATOM      5  C   UNL     1      -1.251  11.673  20.297  0.00  0.00    +0.000 C 
ATOM      6  N   UNL     1      -1.116  11.487  21.754  0.00  0.00    +0.000 N 
ATOM      7  C   UNL     1      -0.380  10.275  22.167  0.00  0.00    +0.000 C 
ATOM      8  C   UNL     1       0.997  10.241  21.475  0.00  0.00    +0.000 C 
ENDROOT
BRANCH   1  13
ATOM      9  C   UNL     1       3.330   3.969  19.558  0.00  0.00    +0.000 A 
ATOM     10  C   UNL     1       3.439   4.997  18.625  0.00  0.00    +0.000 A 
ATOM     11  C   UNL     1       2.740   6.114  19.090  0.00  0.00    +0.000 A 
ATOM     12  C   UNL     1       2.570   7.370  18.507  0.00  0.00    +0.000 A 
ATOM     13  C   UNL     1       1.785   8.171  19.340  0.00  0.00    +0.000 A 
ATOM     14  S   UNL     1       1.213   7.272  20.717  0.00  0.00    +0.000 S 
ATOM     15  C   UNL     1       2.113   5.944  20.259  0.00  0.00    +0.000 A 
ATOM     16  S   UNL     1       2.360   4.435  20.926  0.00  0.00    +0.000 S 
BRANCH   9  18
ATOM     17  C   UNL     1       3.288   1.764  18.388  0.00  0.00    +0.000 C 
ATOM     18  C   UNL     1       3.918   2.592  19.497  0.00  0.00    +0.000 C 
ENDBRANCH   9  18
ENDBRANCH   1  13
BRANCH   6  19
ATOM     19  C   UNL     1      -1.678  12.368  22.656  0.00  0.00    +0.000 A 
ATOM     20  C   UNL     1      -2.959  12.162  23.195  0.00  0.00    +0.000 A 
ATOM     21  C   UNL     1      -3.550  13.074  24.078  0.00  0.00    +0.000 A 
ATOM     22  C   UNL     1      -2.868  14.224  24.451  0.00  0.00    +0.000 A 
ATOM     23  C   UNL     1      -1.594  14.453  23.946  0.00  0.00    +0.000 A 
ATOM     24  C   UNL     1      -1.014  13.535  23.061  0.00  0.00    +0.000 A 
ENDBRANCH   6  19
TORSDOF 3
ENDMDL
MODEL 6
REMARK VINA RESULT:      -6.3      2.766      3.580
REMARK  Name = 
REMARK  4 active torsions:
REMARK  status: ('A' for Active; 'I' for Inactive)
REMARK    1  A    between atoms: C_1  and  C_2
REMARK    2  A    between atoms: C_2  and  C_3
REMARK    3  A    between atoms: C_7  and  C_8
REMARK    4  A    between atoms: N_13  and  C_14
REMARK                            x       y       z     vdW  Elec       q    Type
REMARK                         _______ _______ _______ _____ _____    ______ ____
ROOT
ATOM      1  C   UNL     1       1.587   8.092  19.843  0.00  0.00    +0.000 C 
ATOM      2  O   UNL     1       1.094   7.599  20.860  0.00  0.00    +0.000 OA
ATOM      3  N   UNL     1       1.227   9.382  19.462  0.00  0.00    +0.000 N 
ATOM      4  C   UNL     1       0.494  10.223  20.416  0.00  0.00    +0.000 C 
ATOM      5  C   UNL     1       1.218  11.568  20.639  0.00  0.00    +0.000 C 
ATOM      6  N   UNL     1       1.493  12.213  19.341  0.00  0.00    +0.000 N 
ATOM      7  C   UNL     1       2.203  11.370  18.358  0.00  0.00    +0.000 C 
ATOM      8  C   UNL     1       1.443  10.043  18.166  0.00  0.00    +0.000 C 
ENDROOT
BRANCH   1  13
ATOM      9  C   UNL     1       5.341   5.438  16.105  0.00  0.00    +0.000 A 
ATOM     10  C   UNL     1       4.855   6.728  16.300  0.00  0.00    +0.000 A 
ATOM     11  C   UNL     1       3.990   6.730  17.397  0.00  0.00    +0.000 A 
ATOM     12  C   UNL     1       3.273   7.781  17.970  0.00  0.00    +0.000 A 
ATOM     13  C   UNL     1       2.532   7.307  19.055  0.00  0.00    +0.000 A 
ATOM     14  S   UNL     1       2.679   5.578  19.207  0.00  0.00    +0.000 S 
ATOM     15  C   UNL     1       3.795   5.536  17.969  0.00  0.00    +0.000 A 
ATOM     16  S   UNL     1       4.686   4.315  17.263  0.00  0.00    +0.000 S 
BRANCH   9  18
ATOM     17  C   UNL     1       5.596   4.115  14.002  0.00  0.00    +0.000 C 
ATOM     18  C   UNL     1       6.299   4.953  15.059  0.00  0.00    +0.000 C 
ENDBRANCH   9  18
ENDBRANCH   1  13
BRANCH   6  19
ATOM     19  C   UNL     1       1.144  13.526  19.092  0.00  0.00    +0.000 A 
ATOM     20  C   UNL     1       2.093  14.484  18.697  0.00  0.00    +0.000 A 
ATOM     21  C   UNL     1       1.751  15.825  18.483  0.00  0.00    +0.000 A 
ATOM     22  C   UNL     1       0.438  16.245  18.656  0.00  0.00    +0.000 A 
ATOM     23  C   UNL     1      -0.527  15.320  19.034  0.00  0.00    +0.000 A 
ATOM     24  C   UNL     1      -0.173  13.982  19.248  0.00  0.00    +0.000 A 
ENDBRANCH   6  19
TORSDOF 3
ENDMDL
MODEL 7
REMARK VINA RESULT:      -6.3      3.800      5.550
REMARK  Name = 
REMARK  4 active torsions:
REMARK  status: ('A' for Active; 'I' for Inactive)
REMARK    1  A    between atoms: C_1  and  C_2
REMARK    2  A    between atoms: C_2  and  C_3
REMARK    3  A    between atoms: C_7  and  C_8
REMARK    4  A    between atoms: N_13  and  C_14
REMARK                            x       y       z     vdW  Elec       q    Type
REMARK                         _______ _______ _______ _____ _____    ______ ____
ROOT
ATOM      1  C   UNL     1       1.493   9.888  18.935  0.00  0.00    +0.000 C 
ATOM      2  O   UNL     1       1.711  10.442  17.854  0.00  0.00    +0.000 OA
ATOM      3  N   UNL     1       0.971  10.627  19.992  0.00  0.00    +0.000 N 
ATOM      4  C   UNL     1       0.434  11.966  19.722  0.00  0.00    +0.000 C 
ATOM      5  C   UNL     1      -1.019  12.093  20.229  0.00  0.00    +0.000 C 
ATOM      6  N   UNL     1      -1.098  11.677  21.643  0.00  0.00    +0.000 N 
ATOM      7  C   UNL     1      -0.533  10.344  21.936  0.00  0.00    +0.000 C 
ATOM      8  C   UNL     1       0.916  10.267  21.417  0.00  0.00    +0.000 C 
ENDROOT
BRANCH   1  13
ATOM      9  C   UNL     1       2.647   4.235  20.284  0.00  0.00    +0.000 A 
ATOM     10  C   UNL     1       1.980   5.299  20.884  0.00  0.00    +0.000 A 
ATOM     11  C   UNL     1       2.026   6.407  20.033  0.00  0.00    +0.000 A 
ATOM     12  C   UNL     1       1.497   7.687  20.201  0.00  0.00    +0.000 A 
ATOM     13  C   UNL     1       1.797   8.468  19.082  0.00  0.00    +0.000 A 
ATOM     14  S   UNL     1       2.816   7.602  17.967  0.00  0.00    +0.000 S 
ATOM     15  C   UNL     1       2.707   6.221  18.896  0.00  0.00    +0.000 A 
ATOM     16  S   UNL     1       3.304   4.672  18.732  0.00  0.00    +0.000 S 
BRANCH   9  18
ATOM     17  C   UNL     1       1.762   2.462  21.803  0.00  0.00    +0.000 C 
ATOM     18  C   UNL     1       2.850   2.847  20.812  0.00  0.00    +0.000 C 
ENDBRANCH   9  18
ENDBRANCH   1  13
BRANCH   6  19
ATOM     19  C   UNL     1      -1.696  12.468  22.603  0.00  0.00    +0.000 A 
ATOM     20  C   UNL     1      -2.971  12.176  23.116  0.00  0.00    +0.000 A 
ATOM     21  C   UNL     1      -3.600  12.999  24.059  0.00  0.00    +0.000 A 
ATOM     22  C   UNL     1      -2.961  14.142  24.521  0.00  0.00    +0.000 A 
ATOM     23  C   UNL     1      -1.694  14.453  24.043  0.00  0.00    +0.000 A 
ATOM     24  C   UNL     1      -1.077  13.625  23.098  0.00  0.00    +0.000 A 
ENDBRANCH   6  19
TORSDOF 3
ENDMDL
MODEL 8
REMARK VINA RESULT:      -6.2      3.483      4.913
REMARK  Name = 
REMARK  4 active torsions:
REMARK  status: ('A' for Active; 'I' for Inactive)
REMARK    1  A    between atoms: C_1  and  C_2
REMARK    2  A    between atoms: C_2  and  C_3
REMARK    3  A    between atoms: C_7  and  C_8
REMARK    4  A    between atoms: N_13  and  C_14
REMARK                            x       y       z     vdW  Elec       q    Type
REMARK                         _______ _______ _______ _____ _____    ______ ____
ROOT
ATOM      1  C   UNL     1       1.450   9.513  18.792  0.00  0.00    +0.000 C 
ATOM      2  O   UNL     1       1.491   9.898  17.621  0.00  0.00    +0.000 OA
ATOM      3  N   UNL     1       0.967  10.366  19.779  0.00  0.00    +0.000 N 
ATOM      4  C   UNL     1       0.265  11.590  19.374  0.00  0.00    +0.000 C 
ATOM      5  C   UNL     1      -1.131  11.670  20.029  0.00  0.00    +0.000 C 
ATOM      6  N   UNL     1      -1.014  11.487  21.489  0.00  0.00    +0.000 N 
ATOM      7  C   UNL     1      -0.283  10.276  21.912  0.00  0.00    +0.000 C 
ATOM      8  C   UNL     1       1.102  10.242  21.238  0.00  0.00    +0.000 C 
ENDROOT
BRANCH   1  13
ATOM      9  C   UNL     1       3.431   3.957  19.358  0.00  0.00    +0.000 A 
ATOM     10  C   UNL     1       3.524   4.969  18.406  0.00  0.00    +0.000 A 
ATOM     11  C   UNL     1       2.847   6.099  18.873  0.00  0.00    +0.000 A 
ATOM     12  C   UNL     1       2.673   7.348  18.275  0.00  0.00    +0.000 A 
ATOM     13  C   UNL     1       1.918   8.169  19.116  0.00  0.00    +0.000 A 
ATOM     14  S   UNL     1       1.376   7.296  20.523  0.00  0.00    +0.000 S 
ATOM     15  C   UNL     1       2.251   5.953  20.061  0.00  0.00    +0.000 A 
ATOM     16  S   UNL     1       2.503   4.452  20.744  0.00  0.00    +0.000 S 
BRANCH   9  18
ATOM     17  C   UNL     1       3.370   1.749  18.193  0.00  0.00    +0.000 C 
ATOM     18  C   UNL     1       4.005   2.573  19.303  0.00  0.00    +0.000 C 
ENDBRANCH   9  18
ENDBRANCH   1  13
BRANCH   6  19
ATOM     19  C   UNL     1      -1.589  12.370  22.382  0.00  0.00    +0.000 A 
ATOM     20  C   UNL     1      -0.899  13.497  22.858  0.00  0.00    +0.000 A 
ATOM     21  C   UNL     1      -1.462  14.372  23.795  0.00  0.00    +0.000 A 
ATOM     22  C   UNL     1      -2.743  14.143  24.280  0.00  0.00    +0.000 A 
ATOM     23  C   UNL     1      -3.457  13.044  23.821  0.00  0.00    +0.000 A 
ATOM     24  C   UNL     1      -2.883  12.173  22.886  0.00  0.00    +0.000 A 
ENDBRANCH   6  19
TORSDOF 3
ENDMDL
MODEL 9
REMARK VINA RESULT:      -6.2      3.720      5.421
REMARK  Name = 
REMARK  4 active torsions:
REMARK  status: ('A' for Active; 'I' for Inactive)
REMARK    1  A    between atoms: C_1  and  C_2
REMARK    2  A    between atoms: C_2  and  C_3
REMARK    3  A    between atoms: C_7  and  C_8
REMARK    4  A    between atoms: N_13  and  C_14
REMARK                            x       y       z     vdW  Elec       q    Type
REMARK                         _______ _______ _______ _____ _____    ______ ____
ROOT
ATOM      1  C   UNL     1       1.624   9.855  18.727  0.00  0.00    +0.000 C 
ATOM      2  O   UNL     1       1.854  10.381  17.635  0.00  0.00    +0.000 OA
ATOM      3  N   UNL     1       1.091  10.621  19.760  0.00  0.00    +0.000 N 
ATOM      4  C   UNL     1       0.560  11.954  19.450  0.00  0.00    +0.000 C 
ATOM      5  C   UNL     1      -0.898  12.097  19.938  0.00  0.00    +0.000 C 
ATOM      6  N   UNL     1      -0.993  11.716  21.361  0.00  0.00    +0.000 N 
ATOM      7  C   UNL     1      -0.434  10.390  21.694  0.00  0.00    +0.000 C 
ATOM      8  C   UNL     1       1.020  10.297  21.192  0.00  0.00    +0.000 C 
ENDROOT
BRANCH   1  13
ATOM      9  C   UNL     1       2.724   4.229  20.228  0.00  0.00    +0.000 A 
ATOM     10  C   UNL     1       2.029   5.302  20.778  0.00  0.00    +0.000 A 
ATOM     11  C   UNL     1       2.112   6.395  19.910  0.00  0.00    +0.000 A 
ATOM     12  C   UNL     1       1.574   7.676  20.031  0.00  0.00    +0.000 A 
ATOM     13  C   UNL     1       1.923   8.439  18.913  0.00  0.00    +0.000 A 
ATOM     14  S   UNL     1       2.993   7.555  17.861  0.00  0.00    +0.000 S 
ATOM     15  C   UNL     1       2.844   6.191  18.809  0.00  0.00    +0.000 A 
ATOM     16  S   UNL     1       3.450   4.641  18.700  0.00  0.00    +0.000 S 
BRANCH   9  18
ATOM     17  C   UNL     1       1.748   2.461  21.696  0.00  0.00    +0.000 C 
ATOM     18  C   UNL     1       2.906   2.851  20.790  0.00  0.00    +0.000 C 
ENDBRANCH   9  18
ENDBRANCH   1  13
BRANCH   6  19
ATOM     19  C   UNL     1      -1.600  12.533  22.294  0.00  0.00    +0.000 A 
ATOM     20  C   UNL     1      -0.927  13.618  22.880  0.00  0.00    +0.000 A 
ATOM     21  C   UNL     1      -1.525  14.424  23.857  0.00  0.00    +0.000 A 
ATOM     22  C   UNL     1      -2.825  14.165  24.272  0.00  0.00    +0.000 A 
ATOM     23  C   UNL     1      -3.523  13.108  23.704  0.00  0.00    +0.000 A 
ATOM     24  C   UNL     1      -2.914  12.306  22.730  0.00  0.00    +0.000 A 
ENDBRANCH   6  19
TORSDOF 3
ENDMDL
