MODEL 1
REMARK VINA RESULT:      -8.1      0.000      0.000
REMARK  Name = 
REMARK  3 active torsions:
REMARK  status: ('A' for Active; 'I' for Inactive)
REMARK    1  A    between atoms: C_1  and  C_2
REMARK    2  A    between atoms: N_16  and  C_17
REMARK    3  A    between atoms: C_17  and  C_18
REMARK                            x       y       z     vdW  Elec       q    Type
REMARK                         _______ _______ _______ _____ _____    ______ ____
ROOT
ATOM      1  C   UNL     1       2.389   4.574  20.583  0.00  0.00    +0.000 C 
ATOM      2  C   UNL     1       2.259   5.961  20.071  0.00  0.00    +0.000 A 
ATOM      3  N   UNL     1       1.651   6.950  20.690  0.00  0.00    +0.000 NA
ATOM      4  C   UNL     1       1.695   8.043  19.836  0.00  0.00    +0.000 A 
ATOM      5  C   UNL     1       1.168   9.365  19.986  0.00  0.00    +0.000 A 
ATOM      6  N   UNL     1       0.516   9.881  21.114  0.00  0.00    +0.000 N 
ATOM      7  C   UNL     1       0.311   8.998  22.270  0.00  0.00    +0.000 C 
ATOM      8  C   UNL     1      -0.207   9.826  23.474  0.00  0.00    +0.000 C 
ATOM      9  N   UNL     1      -1.421  10.617  23.183  0.00  0.00    +0.000 NA
ATOM     10  C   UNL     1      -1.178  11.456  21.993  0.00  0.00    +0.000 C 
ATOM     11  C   UNL     1      -0.679  10.668  20.764  0.00  0.00    +0.000 C 
ATOM     12  N   UNL     1       1.347  10.222  18.927  0.00  0.00    +0.000 NA
ATOM     13  C   UNL     1       1.984   9.827  17.805  0.00  0.00    +0.000 A 
ATOM     14  C   UNL     1       2.511   8.570  17.592  0.00  0.00    +0.000 A 
ATOM     15  C   UNL     1       2.355   7.690  18.658  0.00  0.00    +0.000 A 
ATOM     16  N   UNL     1       2.747   6.381  18.850  0.00  0.00    +0.000 N 
ATOM     17  H   UNL     1      -1.614  11.226  23.977  0.00  0.00    +0.000 HD
ENDROOT
BRANCH  16  18
ATOM     18  C   UNL     1       3.582   5.602  17.946  0.00  0.00    +0.000 C 
BRANCH  18  19
ATOM     19  C   UNL     1       5.070   5.817  18.107  0.00  0.00    +0.000 A 
ATOM     20  C   UNL     1       5.826   5.267  19.153  0.00  0.00    +0.000 A 
ATOM     21  C   UNL     1       7.181   5.575  19.292  0.00  0.00    +0.000 A 
ATOM     22  C   UNL     1       7.807   6.413  18.374  0.00  0.00    +0.000 A 
ATOM     23  C   UNL     1       7.086   6.925  17.299  0.00  0.00    +0.000 A 
ATOM     24  C   UNL     1       5.729   6.625  17.164  0.00  0.00    +0.000 A 
ENDBRANCH  18  19
ENDBRANCH  16  18
TORSDOF 2
ENDMDL
MODEL 2
REMARK VINA RESULT:      -7.9      0.224      1.028
REMARK  Name = 
REMARK  3 active torsions:
REMARK  status: ('A' for Active; 'I' for Inactive)
REMARK    1  A    between atoms: C_1  and  C_2
REMARK    2  A    between atoms: N_16  and  C_17
REMARK    3  A    between atoms: C_17  and  C_18
REMARK                            x       y       z     vdW  Elec       q    Type
REMARK                         _______ _______ _______ _____ _____    ______ ____
ROOT
ATOM      1  C   UNL     1       2.105   4.597  20.837  0.00  0.00    +0.000 C 
ATOM      2  C   UNL     1       2.052   5.966  20.267  0.00  0.00    +0.000 A 
ATOM      3  N   UNL     1       1.464   7.004  20.824  0.00  0.00    +0.000 NA
ATOM      4  C   UNL     1       1.585   8.058  19.930  0.00  0.00    +0.000 A 
ATOM      5  C   UNL     1       1.110   9.406  20.009  0.00  0.00    +0.000 A 
ATOM      6  N   UNL     1       0.439   9.993  21.091  0.00  0.00    +0.000 N 
ATOM      7  C   UNL     1       0.155   9.166  22.271  0.00  0.00    +0.000 C 
ATOM      8  C   UNL     1      -0.371  10.063  23.422  0.00  0.00    +0.000 C 
ATOM      9  N   UNL     1      -1.539  10.889  23.055  0.00  0.00    +0.000 NA
ATOM     10  C   UNL     1      -1.218  11.670  21.844  0.00  0.00    +0.000 C 
ATOM     11  C   UNL     1      -0.708  10.813  20.665  0.00  0.00    +0.000 C 
ATOM     12  N   UNL     1       1.363  10.211  18.925  0.00  0.00    +0.000 NA
ATOM     13  C   UNL     1       2.023   9.746  17.844  0.00  0.00    +0.000 A 
ATOM     14  C   UNL     1       2.503   8.461  17.701  0.00  0.00    +0.000 A 
ATOM     15  C   UNL     1       2.272   7.632  18.793  0.00  0.00    +0.000 A 
ATOM     16  N   UNL     1       2.602   6.317  19.050  0.00  0.00    +0.000 N 
ATOM     17  H   UNL     1      -1.735  11.538  23.817  0.00  0.00    +0.000 HD
ENDROOT
BRANCH  16  18
ATOM     18  C   UNL     1       3.435   5.469  18.210  0.00  0.00    +0.000 C 
BRANCH  18  19
ATOM     19  C   UNL     1       4.909   5.808  18.223  0.00  0.00    +0.000 A 
ATOM     20  C   UNL     1       5.543   6.554  17.219  0.00  0.00    +0.000 A 
ATOM     21  C   UNL     1       6.924   6.759  17.248  0.00  0.00    +0.000 A 
ATOM     22  C   UNL     1       7.687   6.245  18.292  0.00  0.00    +0.000 A 
ATOM     23  C   UNL     1       7.068   5.547  19.325  0.00  0.00    +0.000 A 
ATOM     24  C   UNL     1       5.688   5.334  19.293  0.00  0.00    +0.000 A 
ENDBRANCH  18  19
ENDBRANCH  16  18
TORSDOF 2
ENDMDL
MODEL 3
REMARK VINA RESULT:      -7.8      2.209      6.888
REMARK  Name = 
REMARK  3 active torsions:
REMARK  status: ('A' for Active; 'I' for Inactive)
REMARK    1  A    between atoms: C_1  and  C_2
REMARK    2  A    between atoms: N_16  and  C_17
REMARK    3  A    between atoms: C_17  and  C_18
REMARK                            x       y       z     vdW  Elec       q    Type
REMARK                         _______ _______ _______ _____ _____    ______ ____
ROOT
ATOM      1  C   UNL     1       0.231   9.164  22.225  0.00  0.00    +0.000 C 
ATOM      2  C   UNL     1       0.926   8.534  21.075  0.00  0.00    +0.000 A 
ATOM      3  N   UNL     1       1.342   7.286  21.025  0.00  0.00    +0.000 NA
ATOM      4  C   UNL     1       2.000   7.133  19.813  0.00  0.00    +0.000 A 
ATOM      5  C   UNL     1       2.667   5.999  19.251  0.00  0.00    +0.000 A 
ATOM      6  N   UNL     1       2.748   4.716  19.810  0.00  0.00    +0.000 N 
ATOM      7  C   UNL     1       2.117   4.480  21.116  0.00  0.00    +0.000 C 
ATOM      8  C   UNL     1       2.121   2.962  21.430  0.00  0.00    +0.000 C 
ATOM      9  N   UNL     1       3.457   2.336  21.361  0.00  0.00    +0.000 NA
ATOM     10  C   UNL     1       4.065   2.634  20.048  0.00  0.00    +0.000 C 
ATOM     11  C   UNL     1       4.098   4.138  19.703  0.00  0.00    +0.000 C 
ATOM     12  N   UNL     1       3.264   6.180  18.027  0.00  0.00    +0.000 NA
ATOM     13  C   UNL     1       3.221   7.372  17.395  0.00  0.00    +0.000 A 
ATOM     14  C   UNL     1       2.601   8.505  17.880  0.00  0.00    +0.000 A 
ATOM     15  C   UNL     1       1.977   8.340  19.112  0.00  0.00    +0.000 A 
ATOM     16  N   UNL     1       1.248   9.198  19.909  0.00  0.00    +0.000 N 
ATOM     17  H   UNL     1       3.352   1.326  21.448  0.00  0.00    +0.000 HD
ENDROOT
BRANCH  16  18
ATOM     18  C   UNL     1       0.840  10.550  19.552  0.00  0.00    +0.000 C 
BRANCH  18  19
ATOM     19  C   UNL     1      -0.512  10.653  18.881  0.00  0.00    +0.000 A 
ATOM     20  C   UNL     1      -0.863   9.933  17.730  0.00  0.00    +0.000 A 
ATOM     21  C   UNL     1      -2.098  10.139  17.110  0.00  0.00    +0.000 A 
ATOM     22  C   UNL     1      -3.009  11.045  17.646  0.00  0.00    +0.000 A 
ATOM     23  C   UNL     1      -2.698  11.729  18.818  0.00  0.00    +0.000 A 
ATOM     24  C   UNL     1      -1.461  11.531  19.434  0.00  0.00    +0.000 A 
ENDBRANCH  18  19
ENDBRANCH  16  18
TORSDOF 2
ENDMDL
MODEL 4
REMARK VINA RESULT:      -7.7      2.225      6.851
REMARK  Name = 
REMARK  3 active torsions:
REMARK  status: ('A' for Active; 'I' for Inactive)
REMARK    1  A    between atoms: C_1  and  C_2
REMARK    2  A    between atoms: N_16  and  C_17
REMARK    3  A    between atoms: C_17  and  C_18
REMARK                            x       y       z     vdW  Elec       q    Type
REMARK                         _______ _______ _______ _____ _____    ______ ____
ROOT
ATOM      1  C   UNL     1       0.197   9.242  22.195  0.00  0.00    +0.000 C 
ATOM      2  C   UNL     1       0.899   8.601  21.057  0.00  0.00    +0.000 A 
ATOM      3  N   UNL     1       1.302   7.348  21.014  0.00  0.00    +0.000 NA
ATOM      4  C   UNL     1       1.973   7.185  19.811  0.00  0.00    +0.000 A 
ATOM      5  C   UNL     1       2.634   6.041  19.261  0.00  0.00    +0.000 A 
ATOM      6  N   UNL     1       2.693   4.759  19.823  0.00  0.00    +0.000 N 
ATOM      7  C   UNL     1       2.042   4.534  21.121  0.00  0.00    +0.000 C 
ATOM      8  C   UNL     1       2.025   3.016  21.438  0.00  0.00    +0.000 C 
ATOM      9  N   UNL     1       3.354   2.374  21.388  0.00  0.00    +0.000 NA
ATOM     10  C   UNL     1       3.982   2.662  20.083  0.00  0.00    +0.000 C 
ATOM     11  C   UNL     1       4.038   4.166  19.735  0.00  0.00    +0.000 C 
ATOM     12  N   UNL     1       3.249   6.213  18.044  0.00  0.00    +0.000 NA
ATOM     13  C   UNL     1       3.228   7.403  17.409  0.00  0.00    +0.000 A 
ATOM     14  C   UNL     1       2.615   8.545  17.884  0.00  0.00    +0.000 A 
ATOM     15  C   UNL     1       1.973   8.390  19.107  0.00  0.00    +0.000 A 
ATOM     16  N   UNL     1       1.243   9.259  19.893  0.00  0.00    +0.000 N 
ATOM     17  H   UNL     1       3.236   1.366  21.477  0.00  0.00    +0.000 HD
ENDROOT
BRANCH  16  18
ATOM     18  C   UNL     1       0.856  10.614  19.528  0.00  0.00    +0.000 C 
BRANCH  18  19
ATOM     19  C   UNL     1      -0.512  10.739  18.896  0.00  0.00    +0.000 A 
ATOM     20  C   UNL     1      -1.512  11.600  19.372  0.00  0.00    +0.000 A 
ATOM     21  C   UNL     1      -2.784  11.604  18.794  0.00  0.00    +0.000 A 
ATOM     22  C   UNL     1      -3.066  10.769  17.717  0.00  0.00    +0.000 A 
ATOM     23  C   UNL     1      -2.071   9.947  17.197  0.00  0.00    +0.000 A 
ATOM     24  C   UNL     1      -0.802   9.935  17.779  0.00  0.00    +0.000 A 
ENDBRANCH  18  19
ENDBRANCH  16  18
TORSDOF 2
ENDMDL
MODEL 5
REMARK VINA RESULT:      -7.7      1.061      1.182
REMARK  Name = 
REMARK  3 active torsions:
REMARK  status: ('A' for Active; 'I' for Inactive)
REMARK    1  A    between atoms: C_1  and  C_2
REMARK    2  A    between atoms: N_16  and  C_17
REMARK    3  A    between atoms: C_17  and  C_18
REMARK                            x       y       z     vdW  Elec       q    Type
REMARK                         _______ _______ _______ _____ _____    ______ ____
ROOT
ATOM      1  C   UNL     1       1.933   3.794  21.275  0.00  0.00    +0.000 C 
ATOM      2  C   UNL     1       2.047   5.092  20.566  0.00  0.00    +0.000 A 
ATOM      3  N   UNL     1       1.561   6.239  20.989  0.00  0.00    +0.000 NA
ATOM      4  C   UNL     1       1.823   7.174  19.998  0.00  0.00    +0.000 A 
ATOM      5  C   UNL     1       1.497   8.565  19.918  0.00  0.00    +0.000 A 
ATOM      6  N   UNL     1       0.864   9.333  20.906  0.00  0.00    +0.000 N 
ATOM      7  C   UNL     1       0.458   8.670  22.153  0.00  0.00    +0.000 C 
ATOM      8  C   UNL     1       0.001   9.735  23.183  0.00  0.00    +0.000 C 
ATOM      9  N   UNL     1      -1.058  10.638  22.688  0.00  0.00    +0.000 NA
ATOM     10  C   UNL     1      -0.619  11.247  21.416  0.00  0.00    +0.000 C 
ATOM     11  C   UNL     1      -0.173  10.220  20.353  0.00  0.00    +0.000 C 
ATOM     12  N   UNL     1       1.867   9.219  18.769  0.00  0.00    +0.000 NA
ATOM     13  C   UNL     1       2.503   8.575  17.768  0.00  0.00    +0.000 A 
ATOM     14  C   UNL     1       2.843   7.237  17.777  0.00  0.00    +0.000 A 
ATOM     15  C   UNL     1       2.491   6.559  18.938  0.00  0.00    +0.000 A 
ATOM     16  N   UNL     1       2.667   5.251  19.342  0.00  0.00    +0.000 N 
ATOM     17  H   UNL     1      -1.203  11.381  23.370  0.00  0.00    +0.000 HD
ENDROOT
BRANCH  16  18
ATOM     18  C   UNL     1       3.425   4.234  18.627  0.00  0.00    +0.000 C 
BRANCH  18  19
ATOM     19  C   UNL     1       4.879   4.575  18.385  0.00  0.00    +0.000 A 
ATOM     20  C   UNL     1       5.699   5.199  19.337  0.00  0.00    +0.000 A 
ATOM     21  C   UNL     1       7.009   5.564  19.020  0.00  0.00    +0.000 A 
ATOM     22  C   UNL     1       7.528   5.285  17.759  0.00  0.00    +0.000 A 
ATOM     23  C   UNL     1       6.747   4.619  16.819  0.00  0.00    +0.000 A 
ATOM     24  C   UNL     1       5.434   4.261  17.132  0.00  0.00    +0.000 A 
ENDBRANCH  18  19
ENDBRANCH  16  18
TORSDOF 2
ENDMDL
MODEL 6
REMARK VINA RESULT:      -7.4      1.267      1.669
REMARK  Name = 
REMARK  3 active torsions:
REMARK  status: ('A' for Active; 'I' for Inactive)
REMARK    1  A    between atoms: C_1  and  C_2
REMARK    2  A    between atoms: N_16  and  C_17
REMARK    3  A    between atoms: C_17  and  C_18
REMARK                            x       y       z     vdW  Elec       q    Type
REMARK                         _______ _______ _______ _____ _____    ______ ____
ROOT
ATOM      1  C   UNL     1       1.967   3.524  21.435  0.00  0.00    +0.000 C 
ATOM      2  C   UNL     1       2.094   4.795  20.681  0.00  0.00    +0.000 A 
ATOM      3  N   UNL     1       1.629   5.963  21.069  0.00  0.00    +0.000 NA
ATOM      4  C   UNL     1       1.895   6.859  20.043  0.00  0.00    +0.000 A 
ATOM      5  C   UNL     1       1.589   8.251  19.919  0.00  0.00    +0.000 A 
ATOM      6  N   UNL     1       0.978   9.062  20.886  0.00  0.00    +0.000 N 
ATOM      7  C   UNL     1       0.573   8.449  22.159  0.00  0.00    +0.000 C 
ATOM      8  C   UNL     1       0.143   9.556  23.156  0.00  0.00    +0.000 C 
ATOM      9  N   UNL     1      -0.908  10.457  22.639  0.00  0.00    +0.000 NA
ATOM     10  C   UNL     1      -0.472  11.015  21.343  0.00  0.00    +0.000 C 
ATOM     11  C   UNL     1      -0.052   9.945  20.312  0.00  0.00    +0.000 C 
ATOM     12  N   UNL     1       1.958   8.860  18.744  0.00  0.00    +0.000 NA
ATOM     13  C   UNL     1       2.574   8.172  17.761  0.00  0.00    +0.000 A 
ATOM     14  C   UNL     1       2.894   6.831  17.812  0.00  0.00    +0.000 A 
ATOM     15  C   UNL     1       2.544   6.197  18.999  0.00  0.00    +0.000 A 
ATOM     16  N   UNL     1       2.704   4.902  19.447  0.00  0.00    +0.000 N 
ATOM     17  H   UNL     1      -1.035  11.225  23.297  0.00  0.00    +0.000 HD
ENDROOT
BRANCH  16  18
ATOM     18  C   UNL     1       3.440   3.850  18.760  0.00  0.00    +0.000 C 
BRANCH  18  19
ATOM     19  C   UNL     1       4.788   4.266  18.214  0.00  0.00    +0.000 A 
ATOM     20  C   UNL     1       5.171   4.091  16.876  0.00  0.00    +0.000 A 
ATOM     21  C   UNL     1       6.462   4.418  16.456  0.00  0.00    +0.000 A 
ATOM     22  C   UNL     1       7.378   4.951  17.358  0.00  0.00    +0.000 A 
ATOM     23  C   UNL     1       6.999   5.182  18.677  0.00  0.00    +0.000 A 
ATOM     24  C   UNL     1       5.711   4.846  19.101  0.00  0.00    +0.000 A 
ENDBRANCH  18  19
ENDBRANCH  16  18
TORSDOF 2
ENDMDL
MODEL 7
REMARK VINA RESULT:      -6.9      2.211      4.333
REMARK  Name = 
REMARK  3 active torsions:
REMARK  status: ('A' for Active; 'I' for Inactive)
REMARK    1  A    between atoms: C_1  and  C_2
REMARK    2  A    between atoms: N_16  and  C_17
REMARK    3  A    between atoms: C_17  and  C_18
REMARK                            x       y       z     vdW  Elec       q    Type
REMARK                         _______ _______ _______ _____ _____    ______ ____
ROOT
ATOM      1  C   UNL     1       3.122   7.869  17.254  0.00  0.00    +0.000 C 
ATOM      2  C   UNL     1       2.315   8.231  18.445  0.00  0.00    +0.000 A 
ATOM      3  N   UNL     1       1.523   9.277  18.542  0.00  0.00    +0.000 NA
ATOM      4  C   UNL     1       1.024   9.283  19.837  0.00  0.00    +0.000 A 
ATOM      5  C   UNL     1       0.143  10.200  20.492  0.00  0.00    +0.000 A 
ATOM      6  N   UNL     1      -0.485  11.312  19.916  0.00  0.00    +0.000 N 
ATOM      7  C   UNL     1      -0.216  11.614  18.503  0.00  0.00    +0.000 C 
ATOM      8  C   UNL     1      -1.181  12.725  18.015  0.00  0.00    +0.000 C 
ATOM      9  N   UNL     1      -1.153  13.952  18.838  0.00  0.00    +0.000 NA
ATOM     10  C   UNL     1      -1.388  13.592  20.250  0.00  0.00    +0.000 C 
ATOM     11  C   UNL     1      -0.436  12.500  20.784  0.00  0.00    +0.000 C 
ATOM     12  N   UNL     1      -0.136   9.946  21.813  0.00  0.00    +0.000 NA
ATOM     13  C   UNL     1       0.400   8.886  22.453  0.00  0.00    +0.000 A 
ATOM     14  C   UNL     1       1.257   7.967  21.884  0.00  0.00    +0.000 A 
ATOM     15  C   UNL     1       1.542   8.195  20.542  0.00  0.00    +0.000 A 
ATOM     16  N   UNL     1       2.318   7.516  19.626  0.00  0.00    +0.000 N 
ATOM     17  H   UNL     1      -1.902  14.570  18.531  0.00  0.00    +0.000 HD
ENDROOT
BRANCH  16  18
ATOM     18  C   UNL     1       2.975   6.236  19.851  0.00  0.00    +0.000 C 
BRANCH  18  19
ATOM     19  C   UNL     1       2.111   5.021  19.594  0.00  0.00    +0.000 A 
ATOM     20  C   UNL     1       1.353   4.384  20.587  0.00  0.00    +0.000 A 
ATOM     21  C   UNL     1       0.644   3.215  20.303  0.00  0.00    +0.000 A 
ATOM     22  C   UNL     1       0.659   2.681  19.018  0.00  0.00    +0.000 A 
ATOM     23  C   UNL     1       1.363   3.329  18.007  0.00  0.00    +0.000 A 
ATOM     24  C   UNL     1       2.080   4.493  18.292  0.00  0.00    +0.000 A 
ENDBRANCH  18  19
ENDBRANCH  16  18
TORSDOF 2
ENDMDL
MODEL 8
REMARK VINA RESULT:      -6.7      2.179      4.428
REMARK  Name = 
REMARK  3 active torsions:
REMARK  status: ('A' for Active; 'I' for Inactive)
REMARK    1  A    between atoms: C_1  and  C_2
REMARK    2  A    between atoms: N_16  and  C_17
REMARK    3  A    between atoms: C_17  and  C_18
REMARK                            x       y       z     vdW  Elec       q    Type
REMARK                         _______ _______ _______ _____ _____    ______ ____
ROOT
ATOM      1  C   UNL     1       3.270   7.860  17.404  0.00  0.00    +0.000 C 
ATOM      2  C   UNL     1       2.386   8.204  18.544  0.00  0.00    +0.000 A 
ATOM      3  N   UNL     1       1.577   9.241  18.599  0.00  0.00    +0.000 NA
ATOM      4  C   UNL     1       0.998   9.230  19.860  0.00  0.00    +0.000 A 
ATOM      5  C   UNL     1       0.068  10.132  20.466  0.00  0.00    +0.000 A 
ATOM      6  N   UNL     1      -0.536  11.242  19.860  0.00  0.00    +0.000 N 
ATOM      7  C   UNL     1      -0.182  11.558  18.469  0.00  0.00    +0.000 C 
ATOM      8  C   UNL     1      -1.127  12.663  17.930  0.00  0.00    +0.000 C 
ATOM      9  N   UNL     1      -1.165  13.883  18.762  0.00  0.00    +0.000 NA
ATOM     10  C   UNL     1      -1.484  13.509  20.154  0.00  0.00    +0.000 C 
ATOM     11  C   UNL     1      -0.555  12.424  20.739  0.00  0.00    +0.000 C 
ATOM     12  N   UNL     1      -0.291   9.864  21.765  0.00  0.00    +0.000 NA
ATOM     13  C   UNL     1       0.215   8.805  22.429  0.00  0.00    +0.000 A 
ATOM     14  C   UNL     1       1.117   7.900  21.908  0.00  0.00    +0.000 A 
ATOM     15  C   UNL     1       1.483   8.143  20.589  0.00  0.00    +0.000 A 
ATOM     16  N   UNL     1       2.322   7.479  19.717  0.00  0.00    +0.000 N 
ATOM     17  H   UNL     1      -1.901  14.496  18.413  0.00  0.00    +0.000 HD
ENDROOT
BRANCH  16  18
ATOM     18  C   UNL     1       2.978   6.204  19.974  0.00  0.00    +0.000 C 
BRANCH  18  19
ATOM     19  C   UNL     1       2.184   4.984  19.565  0.00  0.00    +0.000 A 
ATOM     20  C   UNL     1       2.085   4.529  18.242  0.00  0.00    +0.000 A 
ATOM     21  C   UNL     1       1.264   3.445  17.920  0.00  0.00    +0.000 A 
ATOM     22  C   UNL     1       0.554   2.784  18.918  0.00  0.00    +0.000 A 
ATOM     23  C   UNL     1       0.681   3.188  20.244  0.00  0.00    +0.000 A 
ATOM     24  C   UNL     1       1.494   4.277  20.566  0.00  0.00    +0.000 A 
ENDBRANCH  18  19
ENDBRANCH  16  18
TORSDOF 2
ENDMDL
MODEL 9
REMARK VINA RESULT:      -6.6      2.035      7.389
REMARK  Name = 
REMARK  3 active torsions:
REMARK  status: ('A' for Active; 'I' for Inactive)
REMARK    1  A    between atoms: C_1  and  C_2
REMARK    2  A    between atoms: N_16  and  C_17
REMARK    3  A    between atoms: C_17  and  C_18
REMARK                            x       y       z     vdW  Elec       q    Type
REMARK                         _______ _______ _______ _____ _____    ______ ____
ROOT
ATOM      1  C   UNL     1      -0.370   9.844  23.108  0.00  0.00    +0.000 C 
ATOM      2  C   UNL     1       0.236   9.546  21.787  0.00  0.00    +0.000 A 
ATOM      3  N   UNL     1       0.733   8.385  21.418  0.00  0.00    +0.000 NA
ATOM      4  C   UNL     1       1.261   8.561  20.147  0.00  0.00    +0.000 A 
ATOM      5  C   UNL     1       1.941   7.644  19.285  0.00  0.00    +0.000 A 
ATOM      6  N   UNL     1       2.176   6.284  19.530  0.00  0.00    +0.000 N 
ATOM      7  C   UNL     1       1.713   5.712  20.802  0.00  0.00    +0.000 C 
ATOM      8  C   UNL     1       1.861   4.169  20.764  0.00  0.00    +0.000 C 
ATOM      9  N   UNL     1       3.223   3.703  20.433  0.00  0.00    +0.000 NA
ATOM     10  C   UNL     1       3.657   4.334  19.171  0.00  0.00    +0.000 C 
ATOM     11  C   UNL     1       3.544   5.874  19.172  0.00  0.00    +0.000 C 
ATOM     12  N   UNL     1       2.383   8.142  18.084  0.00  0.00    +0.000 NA
ATOM     13  C   UNL     1       2.185   9.433  17.743  0.00  0.00    +0.000 A 
ATOM     14  C   UNL     1       1.543  10.369  18.526  0.00  0.00    +0.000 A 
ATOM     15  C   UNL     1       1.073   9.883  19.741  0.00  0.00    +0.000 A 
ATOM     16  N   UNL     1       0.377  10.476  20.775  0.00  0.00    +0.000 N 
ATOM     17  H   UNL     1       3.201   2.692  20.300  0.00  0.00    +0.000 HD
ENDROOT
BRANCH  16  18
ATOM     18  C   UNL     1      -0.164  11.828  20.772  0.00  0.00    +0.000 C 
BRANCH  18  19
ATOM     19  C   UNL     1      -1.591  11.943  20.283  0.00  0.00    +0.000 A 
ATOM     20  C   UNL     1      -2.025  11.466  19.037  0.00  0.00    +0.000 A 
ATOM     21  C   UNL     1      -3.337  11.681  18.610  0.00  0.00    +0.000 A 
ATOM     22  C   UNL     1      -4.241  12.350  19.431  0.00  0.00    +0.000 A 
ATOM     23  C   UNL     1      -3.842  12.784  20.692  0.00  0.00    +0.000 A 
ATOM     24  C   UNL     1      -2.528  12.577  21.117  0.00  0.00    +0.000 A 
ENDBRANCH  18  19
ENDBRANCH  16  18
TORSDOF 2
ENDMDL
