MODEL 1
REMARK VINA RESULT:      -9.3      0.000      0.000
REMARK  Name = 
REMARK  5 active torsions:
REMARK  status: ('A' for Active; 'I' for Inactive)
REMARK    1  A    between atoms: C_2  and  C_23
REMARK    2  A    between atoms: N_3  and  C_4
REMARK    3  A    between atoms: C_6  and  S_7
REMARK    4  A    between atoms: S_7  and  C_8
REMARK    5  A    between atoms: C_18  and  N_19
REMARK                            x       y       z     vdW  Elec       q    Type
REMARK                         _______ _______ _______ _____ _____    ______ ____
ROOT
ATOM      1  C   UNL     1       3.288   5.656  19.766  0.00  0.00    +0.000 A 
ATOM      2  C   UNL     1       4.615   5.866  19.372  0.00  0.00    +0.000 A 
ATOM      3  C   UNL     1       5.400   4.824  18.850  0.00  0.00    +0.000 A 
ATOM      4  C   UNL     1       4.848   3.547  18.725  0.00  0.00    +0.000 A 
ATOM      5  C   UNL     1       3.525   3.330  19.128  0.00  0.00    +0.000 A 
ATOM      6  C   UNL     1       2.748   4.370  19.661  0.00  0.00    +0.000 A 
ENDROOT
BRANCH   1   9
ATOM      7  O   UNL     1       2.299   8.048  18.365  0.00  0.00    +0.000 OA
ATOM      8  C   UNL     1       2.045   7.807  19.539  0.00  0.00    +0.000 C 
ATOM      9  N   UNL     1       2.446   6.685  20.249  0.00  0.00    +0.000 N 
ATOM     10  H   UNL     1       1.986   6.515  21.135  0.00  0.00    +0.000 HD
BRANCH   8  11
ATOM     11  C   UNL     1       1.161   8.755  20.273  0.00  0.00    +0.000 A 
ATOM     12  C   UNL     1       1.011   8.580  21.656  0.00  0.00    +0.000 A 
ATOM     13  C   UNL     1       0.182   9.433  22.387  0.00  0.00    +0.000 A 
ATOM     14  C   UNL     1      -0.505  10.457  21.737  0.00  0.00    +0.000 A 
ATOM     15  C   UNL     1      -0.374  10.623  20.357  0.00  0.00    +0.000 A 
ATOM     16  C   UNL     1       0.455   9.773  19.621  0.00  0.00    +0.000 A 
ENDBRANCH   8  11
ENDBRANCH   1   9
BRANCH   5  17
ATOM     17  N   UNL     1       2.919   2.007  18.930  0.00  0.00    +0.000 N 
ATOM     18  O   UNL     1       1.764   1.831  19.339  0.00  0.00    +0.000 OA
ATOM     19  O   UNL     1       3.608   1.137  18.377  0.00  0.00    +0.000 OA
ENDBRANCH   5  17
BRANCH   3  20
ATOM     20  S   UNL     1       7.012   5.210  18.188  0.00  0.00    +0.000 S 
BRANCH  20  21
ATOM     21  C   UNL     1       6.805   4.855  16.483  0.00  0.00    +0.000 A 
ATOM     22  N   UNL     1       7.582   5.335  15.541  0.00  0.00    +0.000 NA
ATOM     23  C   UNL     1       7.174   4.850  14.308  0.00  0.00    +0.000 A 
ATOM     24  C   UNL     1       7.770   5.147  13.067  0.00  0.00    +0.000 A 
ATOM     25  C   UNL     1       7.257   4.586  11.892  0.00  0.00    +0.000 A 
ATOM     26  C   UNL     1       6.157   3.735  11.940  0.00  0.00    +0.000 A 
ATOM     27  C   UNL     1       5.547   3.420  13.158  0.00  0.00    +0.000 A 
ATOM     28  C   UNL     1       6.071   3.993  14.331  0.00  0.00    +0.000 A 
ATOM     29  S   UNL     1       5.552   3.802  15.960  0.00  0.00    +0.000 S 
ENDBRANCH  20  21
ENDBRANCH   3  20
TORSDOF 5
ENDMDL
MODEL 2
REMARK VINA RESULT:      -9.0      0.453      1.162
REMARK  Name = 
REMARK  5 active torsions:
REMARK  status: ('A' for Active; 'I' for Inactive)
REMARK    1  A    between atoms: C_2  and  C_23
REMARK    2  A    between atoms: N_3  and  C_4
REMARK    3  A    between atoms: C_6  and  S_7
REMARK    4  A    between atoms: S_7  and  C_8
REMARK    5  A    between atoms: C_18  and  N_19
REMARK                            x       y       z     vdW  Elec       q    Type
REMARK                         _______ _______ _______ _____ _____    ______ ____
ROOT
ATOM      1  C   UNL     1       3.007   5.769  19.721  0.00  0.00    +0.000 A 
ATOM      2  C   UNL     1       4.362   5.940  19.413  0.00  0.00    +0.000 A 
ATOM      3  C   UNL     1       5.101   4.936  18.766  0.00  0.00    +0.000 A 
ATOM      4  C   UNL     1       4.473   3.736  18.426  0.00  0.00    +0.000 A 
ATOM      5  C   UNL     1       3.122   3.555  18.742  0.00  0.00    +0.000 A 
ATOM      6  C   UNL     1       2.390   4.556  19.401  0.00  0.00    +0.000 A 
ENDROOT
BRANCH   1   9
ATOM      7  O   UNL     1       2.097   8.335  18.603  0.00  0.00    +0.000 OA
ATOM      8  C   UNL     1       1.848   7.978  19.748  0.00  0.00    +0.000 C 
ATOM      9  N   UNL     1       2.212   6.771  20.327  0.00  0.00    +0.000 N 
ATOM     10  H   UNL     1       1.756   6.524  21.196  0.00  0.00    +0.000 HD
BRANCH   8  11
ATOM     11  C   UNL     1       1.011   8.874  20.595  0.00  0.00    +0.000 A 
ATOM     12  C   UNL     1       0.280   9.888  19.961  0.00  0.00    +0.000 A 
ATOM     13  C   UNL     1      -0.507  10.762  20.712  0.00  0.00    +0.000 A 
ATOM     14  C   UNL     1      -0.559  10.631  22.099  0.00  0.00    +0.000 A 
ATOM     15  C   UNL     1       0.182   9.635  22.737  0.00  0.00    +0.000 A 
ATOM     16  C   UNL     1       0.970   8.756  21.990  0.00  0.00    +0.000 A 
ENDBRANCH   8  11
ENDBRANCH   1   9
BRANCH   5  17
ATOM     17  N   UNL     1       2.440   2.324  18.321  0.00  0.00    +0.000 N 
ATOM     18  O   UNL     1       3.131   1.316  18.124  0.00  0.00    +0.000 OA
ATOM     19  O   UNL     1       1.209   2.372  18.172  0.00  0.00    +0.000 OA
ENDBRANCH   5  17
BRANCH   3  20
ATOM     20  S   UNL     1       6.764   5.301  18.231  0.00  0.00    +0.000 S 
BRANCH  20  21
ATOM     21  C   UNL     1       6.687   4.936  16.517  0.00  0.00    +0.000 A 
ATOM     22  N   UNL     1       7.492   5.464  15.625  0.00  0.00    +0.000 NA
ATOM     23  C   UNL     1       7.193   4.957  14.369  0.00  0.00    +0.000 A 
ATOM     24  C   UNL     1       7.848   5.292  13.168  0.00  0.00    +0.000 A 
ATOM     25  C   UNL     1       7.446   4.703  11.964  0.00  0.00    +0.000 A 
ATOM     26  C   UNL     1       6.399   3.786  11.945  0.00  0.00    +0.000 A 
ATOM     27  C   UNL     1       5.733   3.433  13.122  0.00  0.00    +0.000 A 
ATOM     28  C   UNL     1       6.146   4.035  14.325  0.00  0.00    +0.000 A 
ATOM     29  S   UNL     1       5.537   3.810  15.918  0.00  0.00    +0.000 S 
ENDBRANCH  20  21
ENDBRANCH   3  20
TORSDOF 5
ENDMDL
MODEL 3
REMARK VINA RESULT:      -8.9      0.875      1.080
REMARK  Name = 
REMARK  5 active torsions:
REMARK  status: ('A' for Active; 'I' for Inactive)
REMARK    1  A    between atoms: C_2  and  C_23
REMARK    2  A    between atoms: N_3  and  C_4
REMARK    3  A    between atoms: C_6  and  S_7
REMARK    4  A    between atoms: S_7  and  C_8
REMARK    5  A    between atoms: C_18  and  N_19
REMARK                            x       y       z     vdW  Elec       q    Type
REMARK                         _______ _______ _______ _____ _____    ______ ____
ROOT
ATOM      1  C   UNL     1       3.013   6.192  19.275  0.00  0.00    +0.000 A 
ATOM      2  C   UNL     1       4.371   6.335  18.966  0.00  0.00    +0.000 A 
ATOM      3  C   UNL     1       5.210   5.219  18.810  0.00  0.00    +0.000 A 
ATOM      4  C   UNL     1       4.681   3.937  18.970  0.00  0.00    +0.000 A 
ATOM      5  C   UNL     1       3.326   3.789  19.290  0.00  0.00    +0.000 A 
ATOM      6  C   UNL     1       2.494   4.907  19.459  0.00  0.00    +0.000 A 
ENDROOT
BRANCH   1   9
ATOM      7  O   UNL     1       2.572   8.430  17.414  0.00  0.00    +0.000 OA
ATOM      8  C   UNL     1       1.990   8.327  18.487  0.00  0.00    +0.000 C 
ATOM      9  N   UNL     1       2.121   7.285  19.393  0.00  0.00    +0.000 N 
ATOM     10  H   UNL     1       1.424   7.224  20.125  0.00  0.00    +0.000 HD
BRANCH   8  11
ATOM     11  C   UNL     1       0.983   9.367  18.841  0.00  0.00    +0.000 A 
ATOM     12  C   UNL     1       0.997   9.882  20.145  0.00  0.00    +0.000 A 
ATOM     13  C   UNL     1       0.065  10.846  20.530  0.00  0.00    +0.000 A 
ATOM     14  C   UNL     1      -0.888  11.294  19.616  0.00  0.00    +0.000 A 
ATOM     15  C   UNL     1      -0.917  10.771  18.322  0.00  0.00    +0.000 A 
ATOM     16  C   UNL     1       0.014   9.806  17.931  0.00  0.00    +0.000 A 
ENDBRANCH   8  11
ENDBRANCH   1   9
BRANCH   5  17
ATOM     17  N   UNL     1       2.750   2.442  19.387  0.00  0.00    +0.000 N 
ATOM     18  O   UNL     1       1.830   2.261  20.195  0.00  0.00    +0.000 OA
ATOM     19  O   UNL     1       3.233   1.558  18.664  0.00  0.00    +0.000 OA
ENDBRANCH   5  17
BRANCH   3  20
ATOM     20  S   UNL     1       6.877   5.472  18.224  0.00  0.00    +0.000 S 
BRANCH  20  21
ATOM     21  C   UNL     1       6.741   5.044  16.529  0.00  0.00    +0.000 A 
ATOM     22  N   UNL     1       7.537   5.509  15.596  0.00  0.00    +0.000 NA
ATOM     23  C   UNL     1       7.187   4.964  14.369  0.00  0.00    +0.000 A 
ATOM     24  C   UNL     1       7.818   5.229  13.139  0.00  0.00    +0.000 A 
ATOM     25  C   UNL     1       7.363   4.608  11.970  0.00  0.00    +0.000 A 
ATOM     26  C   UNL     1       6.287   3.727  12.015  0.00  0.00    +0.000 A 
ATOM     27  C   UNL     1       5.643   3.443  13.223  0.00  0.00    +0.000 A 
ATOM     28  C   UNL     1       6.109   4.076  14.389  0.00  0.00    +0.000 A 
ATOM     29  S   UNL     1       5.538   3.935  16.006  0.00  0.00    +0.000 S 
ENDBRANCH  20  21
ENDBRANCH   3  20
TORSDOF 5
ENDMDL
MODEL 4
REMARK VINA RESULT:      -8.8      0.836      1.308
REMARK  Name = 
REMARK  5 active torsions:
REMARK  status: ('A' for Active; 'I' for Inactive)
REMARK    1  A    between atoms: C_2  and  C_23
REMARK    2  A    between atoms: N_3  and  C_4
REMARK    3  A    between atoms: C_6  and  S_7
REMARK    4  A    between atoms: S_7  and  C_8
REMARK    5  A    between atoms: C_18  and  N_19
REMARK                            x       y       z     vdW  Elec       q    Type
REMARK                         _______ _______ _______ _____ _____    ______ ____
ROOT
ATOM      1  C   UNL     1       2.883   6.136  19.262  0.00  0.00    +0.000 A 
ATOM      2  C   UNL     1       4.270   6.118  19.075  0.00  0.00    +0.000 A 
ATOM      3  C   UNL     1       4.941   4.952  18.671  0.00  0.00    +0.000 A 
ATOM      4  C   UNL     1       4.211   3.782  18.454  0.00  0.00    +0.000 A 
ATOM      5  C   UNL     1       2.825   3.792  18.650  0.00  0.00    +0.000 A 
ATOM      6  C   UNL     1       2.159   4.955  19.068  0.00  0.00    +0.000 A 
ENDROOT
BRANCH   1   9
ATOM      7  O   UNL     1       2.152   8.448  17.593  0.00  0.00    +0.000 OA
ATOM      8  C   UNL     1       1.879   8.370  18.785  0.00  0.00    +0.000 C 
ATOM      9  N   UNL     1       2.159   7.298  19.620  0.00  0.00    +0.000 N 
ATOM     10  H   UNL     1       1.687   7.280  20.516  0.00  0.00    +0.000 HD
BRANCH   8  11
ATOM     11  C   UNL     1       1.106   9.485  19.402  0.00  0.00    +0.000 A 
ATOM     12  C   UNL     1       0.732  10.560  18.583  0.00  0.00    +0.000 A 
ATOM     13  C   UNL     1       0.021  11.635  19.117  0.00  0.00    +0.000 A 
ATOM     14  C   UNL     1      -0.312  11.643  20.471  0.00  0.00    +0.000 A 
ATOM     15  C   UNL     1       0.075  10.584  21.294  0.00  0.00    +0.000 A 
ATOM     16  C   UNL     1       0.786   9.505  20.764  0.00  0.00    +0.000 A 
ENDBRANCH   8  11
ENDBRANCH   1   9
BRANCH   5  17
ATOM     17  N   UNL     1       2.045   2.583  18.353  0.00  0.00    +0.000 N 
ATOM     18  O   UNL     1       0.948   2.449  18.911  0.00  0.00    +0.000 OA
ATOM     19  O   UNL     1       2.541   1.758  17.571  0.00  0.00    +0.000 OA
ENDBRANCH   5  17
BRANCH   3  20
ATOM     20  S   UNL     1       6.676   5.056  18.263  0.00  0.00    +0.000 S 
BRANCH  20  21
ATOM     21  C   UNL     1       6.663   4.787  16.530  0.00  0.00    +0.000 A 
ATOM     22  N   UNL     1       7.454   5.414  15.692  0.00  0.00    +0.000 NA
ATOM     23  C   UNL     1       7.218   4.963  14.402  0.00  0.00    +0.000 A 
ATOM     24  C   UNL     1       7.879   5.407  13.240  0.00  0.00    +0.000 A 
ATOM     25  C   UNL     1       7.544   4.865  11.994  0.00  0.00    +0.000 A 
ATOM     26  C   UNL     1       6.557   3.888  11.894  0.00  0.00    +0.000 A 
ATOM     27  C   UNL     1       5.887   3.427  13.031  0.00  0.00    +0.000 A 
ATOM     28  C   UNL     1       6.232   3.982  14.276  0.00  0.00    +0.000 A 
ATOM     29  S   UNL     1       5.601   3.629  15.837  0.00  0.00    +0.000 S 
ENDBRANCH  20  21
ENDBRANCH   3  20
TORSDOF 5
ENDMDL
MODEL 5
REMARK VINA RESULT:      -8.8      1.113      1.294
REMARK  Name = 
REMARK  5 active torsions:
REMARK  status: ('A' for Active; 'I' for Inactive)
REMARK    1  A    between atoms: C_2  and  C_23
REMARK    2  A    between atoms: N_3  and  C_4
REMARK    3  A    between atoms: C_6  and  S_7
REMARK    4  A    between atoms: S_7  and  C_8
REMARK    5  A    between atoms: C_18  and  N_19
REMARK                            x       y       z     vdW  Elec       q    Type
REMARK                         _______ _______ _______ _____ _____    ______ ____
ROOT
ATOM      1  C   UNL     1       2.898   6.448  18.830  0.00  0.00    +0.000 A 
ATOM      2  C   UNL     1       4.289   6.369  18.686  0.00  0.00    +0.000 A 
ATOM      3  C   UNL     1       4.942   5.134  18.539  0.00  0.00    +0.000 A 
ATOM      4  C   UNL     1       4.191   3.957  18.541  0.00  0.00    +0.000 A 
ATOM      5  C   UNL     1       2.801   4.031  18.696  0.00  0.00    +0.000 A 
ATOM      6  C   UNL     1       2.153   5.265  18.856  0.00  0.00    +0.000 A 
ENDROOT
BRANCH   1   9
ATOM      7  O   UNL     1       1.587   7.641  21.180  0.00  0.00    +0.000 OA
ATOM      8  C   UNL     1       1.568   8.157  20.069  0.00  0.00    +0.000 C 
ATOM      9  N   UNL     1       2.193   7.672  18.930  0.00  0.00    +0.000 N 
ATOM     10  H   UNL     1       2.275   8.307  18.146  0.00  0.00    +0.000 HD
BRANCH   8  11
ATOM     11  C   UNL     1       0.880   9.470  19.918  0.00  0.00    +0.000 A 
ATOM     12  C   UNL     1       0.673  10.243  21.069  0.00  0.00    +0.000 A 
ATOM     13  C   UNL     1       0.020  11.473  20.982  0.00  0.00    +0.000 A 
ATOM     14  C   UNL     1      -0.436  11.930  19.747  0.00  0.00    +0.000 A 
ATOM     15  C   UNL     1      -0.249  11.156  18.600  0.00  0.00    +0.000 A 
ATOM     16  C   UNL     1       0.405   9.924  18.682  0.00  0.00    +0.000 A 
ENDBRANCH   8  11
ENDBRANCH   1   9
BRANCH   5  17
ATOM     17  N   UNL     1       2.001   2.801  18.626  0.00  0.00    +0.000 N 
ATOM     18  O   UNL     1       0.840   2.888  18.206  0.00  0.00    +0.000 OA
ATOM     19  O   UNL     1       2.533   1.748  19.008  0.00  0.00    +0.000 OA
ENDBRANCH   5  17
BRANCH   3  20
ATOM     20  S   UNL     1       6.687   5.123  18.163  0.00  0.00    +0.000 S 
BRANCH  20  21
ATOM     21  C   UNL     1       6.690   4.832  16.434  0.00  0.00    +0.000 A 
ATOM     22  N   UNL     1       7.479   5.458  15.593  0.00  0.00    +0.000 NA
ATOM     23  C   UNL     1       7.257   4.988  14.307  0.00  0.00    +0.000 A 
ATOM     24  C   UNL     1       7.921   5.425  13.145  0.00  0.00    +0.000 A 
ATOM     25  C   UNL     1       7.600   4.863  11.903  0.00  0.00    +0.000 A 
ATOM     26  C   UNL     1       6.626   3.874  11.809  0.00  0.00    +0.000 A 
ATOM     27  C   UNL     1       5.954   3.419  12.947  0.00  0.00    +0.000 A 
ATOM     28  C   UNL     1       6.284   3.994  14.188  0.00  0.00    +0.000 A 
ATOM     29  S   UNL     1       5.645   3.654  15.748  0.00  0.00    +0.000 S 
ENDBRANCH  20  21
ENDBRANCH   3  20
TORSDOF 5
ENDMDL
MODEL 6
REMARK VINA RESULT:      -8.4      4.822     10.346
REMARK  Name = 
REMARK  5 active torsions:
REMARK  status: ('A' for Active; 'I' for Inactive)
REMARK    1  A    between atoms: C_2  and  C_23
REMARK    2  A    between atoms: N_3  and  C_4
REMARK    3  A    between atoms: C_6  and  S_7
REMARK    4  A    between atoms: S_7  and  C_8
REMARK    5  A    between atoms: C_18  and  N_19
REMARK                            x       y       z     vdW  Elec       q    Type
REMARK                         _______ _______ _______ _____ _____    ______ ____
ROOT
ATOM      1  C   UNL     1       1.414   8.945  19.030  0.00  0.00    +0.000 A 
ATOM      2  C   UNL     1       0.686   9.973  18.420  0.00  0.00    +0.000 A 
ATOM      3  C   UNL     1      -0.103  10.860  19.171  0.00  0.00    +0.000 A 
ATOM      4  C   UNL     1      -0.168  10.711  20.558  0.00  0.00    +0.000 A 
ATOM      5  C   UNL     1       0.550   9.677  21.171  0.00  0.00    +0.000 A 
ATOM      6  C   UNL     1       1.326   8.785  20.416  0.00  0.00    +0.000 A 
ENDROOT
BRANCH   1   9
ATOM      7  O   UNL     1       2.150   6.168  19.674  0.00  0.00    +0.000 OA
ATOM      8  C   UNL     1       2.591   6.769  18.702  0.00  0.00    +0.000 C 
ATOM      9  N   UNL     1       2.261   8.061  18.319  0.00  0.00    +0.000 N 
ATOM     10  H   UNL     1       2.531   8.345  17.385  0.00  0.00    +0.000 HD
BRANCH   8  11
ATOM     11  C   UNL     1       3.513   6.040  17.786  0.00  0.00    +0.000 A 
ATOM     12  C   UNL     1       4.420   6.792  17.026  0.00  0.00    +0.000 A 
ATOM     13  C   UNL     1       5.294   6.156  16.143  0.00  0.00    +0.000 A 
ATOM     14  C   UNL     1       5.257   4.769  16.010  0.00  0.00    +0.000 A 
ATOM     15  C   UNL     1       4.343   4.017  16.749  0.00  0.00    +0.000 A 
ATOM     16  C   UNL     1       3.467   4.649  17.636  0.00  0.00    +0.000 A 
ENDBRANCH   8  11
ENDBRANCH   1   9
BRANCH   5  17
ATOM     17  N   UNL     1       0.541   9.563  22.636  0.00  0.00    +0.000 N 
ATOM     18  O   UNL     1      -0.554   9.575  23.213  0.00  0.00    +0.000 OA
ATOM     19  O   UNL     1       1.637   9.476  23.211  0.00  0.00    +0.000 OA
ENDBRANCH   5  17
BRANCH   3  20
ATOM     20  S   UNL     1      -0.842  12.261  18.350  0.00  0.00    +0.000 S 
BRANCH  20  21
ATOM     21  C   UNL     1      -2.550  12.009  18.656  0.00  0.00    +0.000 A 
ATOM     22  N   UNL     1      -3.173  12.465  19.716  0.00  0.00    +0.000 NA
ATOM     23  C   UNL     1      -4.515  12.122  19.652  0.00  0.00    +0.000 A 
ATOM     24  C   UNL     1      -5.495  12.441  20.613  0.00  0.00    +0.000 A 
ATOM     25  C   UNL     1      -6.820  12.032  20.424  0.00  0.00    +0.000 A 
ATOM     26  C   UNL     1      -7.178  11.309  19.291  0.00  0.00    +0.000 A 
ATOM     27  C   UNL     1      -6.228  10.981  18.319  0.00  0.00    +0.000 A 
ATOM     28  C   UNL     1      -4.899  11.395  18.523  0.00  0.00    +0.000 A 
ATOM     29  S   UNL     1      -3.519  11.153  17.526  0.00  0.00    +0.000 S 
ENDBRANCH  20  21
ENDBRANCH   3  20
TORSDOF 5
ENDMDL
MODEL 7
REMARK VINA RESULT:      -8.4      2.940      8.567
REMARK  Name = 
REMARK  5 active torsions:
REMARK  status: ('A' for Active; 'I' for Inactive)
REMARK    1  A    between atoms: C_2  and  C_23
REMARK    2  A    between atoms: N_3  and  C_4
REMARK    3  A    between atoms: C_6  and  S_7
REMARK    4  A    between atoms: S_7  and  C_8
REMARK    5  A    between atoms: C_18  and  N_19
REMARK                            x       y       z     vdW  Elec       q    Type
REMARK                         _______ _______ _______ _____ _____    ______ ____
ROOT
ATOM      1  C   UNL     1       5.424   4.165  16.961  0.00  0.00    +0.000 A 
ATOM      2  C   UNL     1       4.233   4.145  17.696  0.00  0.00    +0.000 A 
ATOM      3  C   UNL     1       4.169   4.654  19.004  0.00  0.00    +0.000 A 
ATOM      4  C   UNL     1       5.320   5.189  19.588  0.00  0.00    +0.000 A 
ATOM      5  C   UNL     1       6.515   5.200  18.860  0.00  0.00    +0.000 A 
ATOM      6  C   UNL     1       6.579   4.678  17.559  0.00  0.00    +0.000 A 
ENDROOT
BRANCH   1   9
ATOM      7  O   UNL     1       6.250   5.648  14.557  0.00  0.00    +0.000 OA
ATOM      8  C   UNL     1       5.889   4.478  14.529  0.00  0.00    +0.000 C 
ATOM      9  N   UNL     1       5.523   3.709  15.624  0.00  0.00    +0.000 N 
ATOM     10  H   UNL     1       5.459   2.709  15.480  0.00  0.00    +0.000 HD
BRANCH   8  11
ATOM     11  C   UNL     1       5.909   3.768  13.219  0.00  0.00    +0.000 A 
ATOM     12  C   UNL     1       4.682   3.467  12.613  0.00  0.00    +0.000 A 
ATOM     13  C   UNL     1       4.648   2.790  11.393  0.00  0.00    +0.000 A 
ATOM     14  C   UNL     1       5.839   2.405  10.780  0.00  0.00    +0.000 A 
ATOM     15  C   UNL     1       7.064   2.685  11.390  0.00  0.00    +0.000 A 
ATOM     16  C   UNL     1       7.103   3.364  12.610  0.00  0.00    +0.000 A 
ENDBRANCH   8  11
ENDBRANCH   1   9
BRANCH   5  17
ATOM     17  N   UNL     1       7.709   5.827  19.443  0.00  0.00    +0.000 N 
ATOM     18  O   UNL     1       8.135   5.378  20.516  0.00  0.00    +0.000 OA
ATOM     19  O   UNL     1       8.212   6.782  18.833  0.00  0.00    +0.000 OA
ENDBRANCH   5  17
BRANCH   3  20
ATOM     20  S   UNL     1       2.578   4.775  19.803  0.00  0.00    +0.000 S 
BRANCH  20  21
ATOM     21  C   UNL     1       2.180   6.468  19.576  0.00  0.00    +0.000 A 
ATOM     22  N   UNL     1       1.626   7.215  20.502  0.00  0.00    +0.000 NA
ATOM     23  C   UNL     1       1.463   8.506  20.024  0.00  0.00    +0.000 A 
ATOM     24  C   UNL     1       0.903   9.584  20.737  0.00  0.00    +0.000 A 
ATOM     25  C   UNL     1       0.798  10.842  20.133  0.00  0.00    +0.000 A 
ATOM     26  C   UNL     1       1.242  11.037  18.829  0.00  0.00    +0.000 A 
ATOM     27  C   UNL     1       1.805   9.986  18.099  0.00  0.00    +0.000 A 
ATOM     28  C   UNL     1       1.902   8.726  18.717  0.00  0.00    +0.000 A 
ATOM     29  S   UNL     1       2.538   7.255  18.092  0.00  0.00    +0.000 S 
ENDBRANCH  20  21
ENDBRANCH   3  20
TORSDOF 5
ENDMDL
MODEL 8
REMARK VINA RESULT:      -8.4      5.526     10.283
REMARK  Name = 
REMARK  5 active torsions:
REMARK  status: ('A' for Active; 'I' for Inactive)
REMARK    1  A    between atoms: C_2  and  C_23
REMARK    2  A    between atoms: N_3  and  C_4
REMARK    3  A    between atoms: C_6  and  S_7
REMARK    4  A    between atoms: S_7  and  C_8
REMARK    5  A    between atoms: C_18  and  N_19
REMARK                            x       y       z     vdW  Elec       q    Type
REMARK                         _______ _______ _______ _____ _____    ______ ____
ROOT
ATOM      1  C   UNL     1       0.944   9.796  18.197  0.00  0.00    +0.000 A 
ATOM      2  C   UNL     1       1.437  10.891  18.917  0.00  0.00    +0.000 A 
ATOM      3  C   UNL     1       0.593  11.928  19.346  0.00  0.00    +0.000 A 
ATOM      4  C   UNL     1      -0.770  11.871  19.045  0.00  0.00    +0.000 A 
ATOM      5  C   UNL     1      -1.266  10.784  18.316  0.00  0.00    +0.000 A 
ATOM      6  C   UNL     1      -0.417   9.756  17.877  0.00  0.00    +0.000 A 
ENDROOT
BRANCH   1   9
ATOM      7  O   UNL     1       2.163   7.678  19.837  0.00  0.00    +0.000 OA
ATOM      8  C   UNL     1       2.320   7.759  18.625  0.00  0.00    +0.000 C 
ATOM      9  N   UNL     1       1.748   8.706  17.787  0.00  0.00    +0.000 N 
ATOM     10  H   UNL     1       1.790   8.521  16.793  0.00  0.00    +0.000 HD
BRANCH   8  11
ATOM     11  C   UNL     1       3.136   6.710  17.952  0.00  0.00    +0.000 A 
ATOM     12  C   UNL     1       2.710   5.378  18.052  0.00  0.00    +0.000 A 
ATOM     13  C   UNL     1       3.448   4.357  17.452  0.00  0.00    +0.000 A 
ATOM     14  C   UNL     1       4.617   4.663  16.757  0.00  0.00    +0.000 A 
ATOM     15  C   UNL     1       5.056   5.985  16.671  0.00  0.00    +0.000 A 
ATOM     16  C   UNL     1       4.320   7.011  17.269  0.00  0.00    +0.000 A 
ENDBRANCH   8  11
ENDBRANCH   1   9
BRANCH   5  17
ATOM     17  N   UNL     1      -2.709  10.684  18.061  0.00  0.00    +0.000 N 
ATOM     18  O   UNL     1      -3.442  11.571  18.517  0.00  0.00    +0.000 OA
ATOM     19  O   UNL     1      -3.111   9.704  17.415  0.00  0.00    +0.000 OA
ENDBRANCH   5  17
BRANCH   3  20
ATOM     20  S   UNL     1       1.256  13.186  20.425  0.00  0.00    +0.000 S 
BRANCH  20  21
ATOM     21  C   UNL     1       1.142  14.624  19.427  0.00  0.00    +0.000 A 
ATOM     22  N   UNL     1       0.023  15.277  19.218  0.00  0.00    +0.000 NA
ATOM     23  C   UNL     1       0.269  16.377  18.411  0.00  0.00    +0.000 A 
ATOM     24  C   UNL     1      -0.691  17.311  17.976  0.00  0.00    +0.000 A 
ATOM     25  C   UNL     1      -0.307  18.382  17.161  0.00  0.00    +0.000 A 
ATOM     26  C   UNL     1       1.022  18.530  16.774  0.00  0.00    +0.000 A 
ATOM     27  C   UNL     1       1.996  17.620  17.194  0.00  0.00    +0.000 A 
ATOM     28  C   UNL     1       1.596  16.547  18.010  0.00  0.00    +0.000 A 
ATOM     29  S   UNL     1       2.544  15.279  18.682  0.00  0.00    +0.000 S 
ENDBRANCH  20  21
ENDBRANCH   3  20
TORSDOF 5
ENDMDL
MODEL 9
REMARK VINA RESULT:      -8.3      4.926     10.339
REMARK  Name = 
REMARK  5 active torsions:
REMARK  status: ('A' for Active; 'I' for Inactive)
REMARK    1  A    between atoms: C_2  and  C_23
REMARK    2  A    between atoms: N_3  and  C_4
REMARK    3  A    between atoms: C_6  and  S_7
REMARK    4  A    between atoms: S_7  and  C_8
REMARK    5  A    between atoms: C_18  and  N_19
REMARK                            x       y       z     vdW  Elec       q    Type
REMARK                         _______ _______ _______ _____ _____    ______ ____
ROOT
ATOM      1  C   UNL     1       1.407   9.051  19.055  0.00  0.00    +0.000 A 
ATOM      2  C   UNL     1       0.693  10.099  18.463  0.00  0.00    +0.000 A 
ATOM      3  C   UNL     1      -0.088  10.980  19.229  0.00  0.00    +0.000 A 
ATOM      4  C   UNL     1      -0.159  10.806  20.613  0.00  0.00    +0.000 A 
ATOM      5  C   UNL     1       0.544   9.752  21.208  0.00  0.00    +0.000 A 
ATOM      6  C   UNL     1       1.313   8.865  20.438  0.00  0.00    +0.000 A 
ENDROOT
BRANCH   1   9
ATOM      7  O   UNL     1       2.162   6.276  19.684  0.00  0.00    +0.000 OA
ATOM      8  C   UNL     1       2.586   6.879  18.706  0.00  0.00    +0.000 C 
ATOM      9  N   UNL     1       2.245   8.170  18.330  0.00  0.00    +0.000 N 
ATOM     10  H   UNL     1       2.501   8.457  17.393  0.00  0.00    +0.000 HD
BRANCH   8  11
ATOM     11  C   UNL     1       3.496   6.154  17.775  0.00  0.00    +0.000 A 
ATOM     12  C   UNL     1       3.375   4.760  17.686  0.00  0.00    +0.000 A 
ATOM     13  C   UNL     1       4.214   4.034  16.840  0.00  0.00    +0.000 A 
ATOM     14  C   UNL     1       5.182   4.698  16.087  0.00  0.00    +0.000 A 
ATOM     15  C   UNL     1       5.319   6.083  16.186  0.00  0.00    +0.000 A 
ATOM     16  C   UNL     1       4.480   6.815  17.030  0.00  0.00    +0.000 A 
ENDBRANCH   8  11
ENDBRANCH   1   9
BRANCH   5  17
ATOM     17  N   UNL     1       0.530   9.610  22.670  0.00  0.00    +0.000 N 
ATOM     18  O   UNL     1       1.602   9.367  23.240  0.00  0.00    +0.000 OA
ATOM     19  O   UNL     1      -0.562   9.726  23.247  0.00  0.00    +0.000 OA
ENDBRANCH   5  17
BRANCH   3  20
ATOM     20  S   UNL     1      -0.808  12.406  18.432  0.00  0.00    +0.000 S 
BRANCH  20  21
ATOM     21  C   UNL     1      -2.515  12.198  18.776  0.00  0.00    +0.000 A 
ATOM     22  N   UNL     1      -3.344  11.563  17.982  0.00  0.00    +0.000 NA
ATOM     23  C   UNL     1      -4.611  11.550  18.545  0.00  0.00    +0.000 A 
ATOM     24  C   UNL     1      -5.757  10.958  17.981  0.00  0.00    +0.000 A 
ATOM     25  C   UNL     1      -6.981  11.016  18.658  0.00  0.00    +0.000 A 
ATOM     26  C   UNL     1      -7.073  11.658  19.889  0.00  0.00    +0.000 A 
ATOM     27  C   UNL     1      -5.951  12.251  20.475  0.00  0.00    +0.000 A 
ATOM     28  C   UNL     1      -4.728  12.188  19.782  0.00  0.00    +0.000 A 
ATOM     29  S   UNL     1      -3.190  12.811  20.232  0.00  0.00    +0.000 S 
ENDBRANCH  20  21
ENDBRANCH   3  20
TORSDOF 5
ENDMDL
