MODEL 1
REMARK VINA RESULT:      -7.7      0.000      0.000
REMARK  Name = 
REMARK  3 active torsions:
REMARK  status: ('A' for Active; 'I' for Inactive)
REMARK    1  A    between atoms: N_2  and  C_4
REMARK    2  A    between atoms: C_8  and  N_9
REMARK    3  A    between atoms: N_10  and  C_11
REMARK                            x       y       z     vdW  Elec       q    Type
REMARK                         _______ _______ _______ _____ _____    ______ ____
ROOT
ATOM      1  N   UNL     1       6.915   4.452  18.105  0.00  0.00    +0.000 NA
ATOM      2  N   UNL     1       6.075   4.684  19.002  0.00  0.00    +0.000 NA
ENDROOT
BRANCH   2   3
ATOM      3  C   UNL     1       4.815   5.229  18.888  0.00  0.00    +0.000 C 
ATOM      4  C   UNL     1       3.719   4.585  19.380  0.00  0.00    +0.000 C 
ATOM      5  C   UNL     1       3.832   3.152  19.898  0.00  0.00    +0.000 C 
ATOM      6  C   UNL     1       2.916   2.864  21.087  0.00  0.00    +0.000 C 
ATOM      7  C   UNL     1       1.493   3.284  20.760  0.00  0.00    +0.000 C 
ATOM      8  C   UNL     1       1.447   4.771  20.450  0.00  0.00    +0.000 C 
ATOM      9  N   UNL     1       2.438   5.178  19.434  0.00  0.00    +0.000 N 
ATOM     10  C   UNL     1       2.265   6.586  19.038  0.00  0.00    +0.000 C 
ATOM     11  C   UNL     1       3.248   6.964  17.945  0.00  0.00    +0.000 C 
ATOM     12  C   UNL     1       4.672   6.652  18.391  0.00  0.00    +0.000 C 
ENDBRANCH   2   3
BRANCH   1  17
ATOM     13  C   UNL     1       6.952   4.724  14.381  0.00  0.00    +0.000 A 
ATOM     14  C   UNL     1       5.673   4.239  14.073  0.00  0.00    +0.000 A 
ATOM     15  C   UNL     1       4.841   3.814  15.104  0.00  0.00    +0.000 A 
ATOM     16  C   UNL     1       5.292   3.875  16.427  0.00  0.00    +0.000 A 
ATOM     17  C   UNL     1       6.583   4.340  16.745  0.00  0.00    +0.000 A 
ATOM     18  C   UNL     1       7.408   4.778  15.706  0.00  0.00    +0.000 A 
BRANCH  13  20
ATOM     19  O   UNL     1       8.747   5.967  13.609  0.00  0.00    +0.000 OA
ATOM     20  N   UNL     1       7.816   5.210  13.301  0.00  0.00    +0.000 N 
ATOM     21  O   UNL     1       7.564   4.835  12.149  0.00  0.00    +0.000 OA
ENDBRANCH  13  20
ENDBRANCH   1  17
TORSDOF 3
ENDMDL
MODEL 2
REMARK VINA RESULT:      -7.6      1.877      2.876
REMARK  Name = 
REMARK  3 active torsions:
REMARK  status: ('A' for Active; 'I' for Inactive)
REMARK    1  A    between atoms: N_2  and  C_4
REMARK    2  A    between atoms: C_8  and  N_9
REMARK    3  A    between atoms: N_10  and  C_11
REMARK                            x       y       z     vdW  Elec       q    Type
REMARK                         _______ _______ _______ _____ _____    ______ ____
ROOT
ATOM      1  N   UNL     1       3.847   6.692  17.431  0.00  0.00    +0.000 NA
ATOM      2  N   UNL     1       2.933   6.060  18.005  0.00  0.00    +0.000 NA
ENDROOT
BRANCH   2   3
ATOM      3  C   UNL     1       2.756   4.698  18.110  0.00  0.00    +0.000 C 
ATOM      4  C   UNL     1       2.653   4.091  19.326  0.00  0.00    +0.000 C 
ATOM      5  C   UNL     1       2.926   4.875  20.608  0.00  0.00    +0.000 C 
ATOM      6  C   UNL     1       2.042   4.448  21.779  0.00  0.00    +0.000 C 
ATOM      7  C   UNL     1       2.112   2.941  21.959  0.00  0.00    +0.000 C 
ATOM      8  C   UNL     1       1.632   2.242  20.699  0.00  0.00    +0.000 C 
ATOM      9  N   UNL     1       2.307   2.729  19.478  0.00  0.00    +0.000 N 
ATOM     10  C   UNL     1       1.941   1.929  18.298  0.00  0.00    +0.000 C 
ATOM     11  C   UNL     1       2.697   2.402  17.070  0.00  0.00    +0.000 C 
ATOM     12  C   UNL     1       2.470   3.896  16.859  0.00  0.00    +0.000 C 
ENDBRANCH   2   3
BRANCH   1  17
ATOM     13  C   UNL     1       6.718   5.173  15.587  0.00  0.00    +0.000 A 
ATOM     14  C   UNL     1       7.544   4.798  16.656  0.00  0.00    +0.000 A 
ATOM     15  C   UNL     1       7.138   5.077  17.958  0.00  0.00    +0.000 A 
ATOM     16  C   UNL     1       5.919   5.728  18.179  0.00  0.00    +0.000 A 
ATOM     17  C   UNL     1       5.094   6.128  17.111  0.00  0.00    +0.000 A 
ATOM     18  C   UNL     1       5.500   5.833  15.807  0.00  0.00    +0.000 A 
BRANCH  13  20
ATOM     19  O   UNL     1       6.564   3.884  13.669  0.00  0.00    +0.000 OA
ATOM     20  N   UNL     1       7.122   4.845  14.217  0.00  0.00    +0.000 N 
ATOM     21  O   UNL     1       7.996   5.547  13.690  0.00  0.00    +0.000 OA
ENDBRANCH  13  20
ENDBRANCH   1  17
TORSDOF 3
ENDMDL
MODEL 3
REMARK VINA RESULT:      -7.5      3.901      6.594
REMARK  Name = 
REMARK  3 active torsions:
REMARK  status: ('A' for Active; 'I' for Inactive)
REMARK    1  A    between atoms: N_2  and  C_4
REMARK    2  A    between atoms: C_8  and  N_9
REMARK    3  A    between atoms: N_10  and  C_11
REMARK                            x       y       z     vdW  Elec       q    Type
REMARK                         _______ _______ _______ _____ _____    ______ ____
ROOT
ATOM      1  N   UNL     1       2.475   6.164  18.280  0.00  0.00    +0.000 NA
ATOM      2  N   UNL     1       3.594   6.494  17.828  0.00  0.00    +0.000 NA
ENDROOT
BRANCH   2   3
ATOM      3  C   UNL     1       4.803   5.847  17.955  0.00  0.00    +0.000 C 
ATOM      4  C   UNL     1       5.371   5.196  16.901  0.00  0.00    +0.000 C 
ATOM      5  C   UNL     1       4.590   4.999  15.603  0.00  0.00    +0.000 C 
ATOM      6  C   UNL     1       5.467   5.062  14.353  0.00  0.00    +0.000 C 
ATOM      7  C   UNL     1       6.650   4.121  14.501  0.00  0.00    +0.000 C 
ATOM      8  C   UNL     1       7.483   4.518  15.708  0.00  0.00    +0.000 C 
ATOM      9  N   UNL     1       6.679   4.664  16.939  0.00  0.00    +0.000 N 
ATOM     10  C   UNL     1       7.528   4.891  18.120  0.00  0.00    +0.000 C 
ATOM     11  C   UNL     1       6.688   4.970  19.382  0.00  0.00    +0.000 C 
ATOM     12  C   UNL     1       5.607   6.035  19.224  0.00  0.00    +0.000 C 
ENDBRANCH   2   3
BRANCH   1  17
ATOM     13  C   UNL     1       2.033   3.044  20.282  0.00  0.00    +0.000 A 
ATOM     14  C   UNL     1       1.685   2.135  19.273  0.00  0.00    +0.000 A 
ATOM     15  C   UNL     1       1.584   2.584  17.960  0.00  0.00    +0.000 A 
ATOM     16  C   UNL     1       1.829   3.931  17.668  0.00  0.00    +0.000 A 
ATOM     17  C   UNL     1       2.157   4.855  18.677  0.00  0.00    +0.000 A 
ATOM     18  C   UNL     1       2.270   4.395  19.992  0.00  0.00    +0.000 A 
BRANCH  13  20
ATOM     19  O   UNL     1       1.165   2.551  22.372  0.00  0.00    +0.000 OA
ATOM     20  N   UNL     1       2.179   2.566  21.660  0.00  0.00    +0.000 N 
ATOM     21  O   UNL     1       3.304   2.206  22.030  0.00  0.00    +0.000 OA
ENDBRANCH  13  20
ENDBRANCH   1  17
TORSDOF 3
ENDMDL
MODEL 4
REMARK VINA RESULT:      -7.4      3.509      6.232
REMARK  Name = 
REMARK  3 active torsions:
REMARK  status: ('A' for Active; 'I' for Inactive)
REMARK    1  A    between atoms: N_2  and  C_4
REMARK    2  A    between atoms: C_8  and  N_9
REMARK    3  A    between atoms: N_10  and  C_11
REMARK                            x       y       z     vdW  Elec       q    Type
REMARK                         _______ _______ _______ _____ _____    ______ ____
ROOT
ATOM      1  N   UNL     1       4.558   2.808  19.890  0.00  0.00    +0.000 NA
ATOM      2  N   UNL     1       5.497   3.188  19.157  0.00  0.00    +0.000 NA
ENDROOT
BRANCH   2   3
ATOM      3  C   UNL     1       5.460   4.034  18.070  0.00  0.00    +0.000 C 
ATOM      4  C   UNL     1       6.150   5.209  18.065  0.00  0.00    +0.000 C 
ATOM      5  C   UNL     1       6.828   5.713  19.338  0.00  0.00    +0.000 C 
ATOM      6  C   UNL     1       8.140   6.451  19.073  0.00  0.00    +0.000 C 
ATOM      7  C   UNL     1       7.926   7.531  18.027  0.00  0.00    +0.000 C 
ATOM      8  C   UNL     1       7.440   6.910  16.729  0.00  0.00    +0.000 C 
ATOM      9  N   UNL     1       6.274   6.023  16.917  0.00  0.00    +0.000 N 
ATOM     10  C   UNL     1       5.726   5.563  15.630  0.00  0.00    +0.000 C 
ATOM     11  C   UNL     1       4.490   4.709  15.843  0.00  0.00    +0.000 C 
ATOM     12  C   UNL     1       4.807   3.557  16.790  0.00  0.00    +0.000 C 
ENDBRANCH   2   3
BRANCH   1  17
ATOM     13  C   UNL     1       1.957   5.467  20.217  0.00  0.00    +0.000 A 
ATOM     14  C   UNL     1       0.808   4.685  20.402  0.00  0.00    +0.000 A 
ATOM     15  C   UNL     1       0.922   3.298  20.391  0.00  0.00    +0.000 A 
ATOM     16  C   UNL     1       2.175   2.708  20.195  0.00  0.00    +0.000 A 
ATOM     17  C   UNL     1       3.331   3.484  19.987  0.00  0.00    +0.000 A 
ATOM     18  C   UNL     1       3.212   4.877  20.011  0.00  0.00    +0.000 A 
BRANCH  13  20
ATOM     19  O   UNL     1       1.269   7.426  21.243  0.00  0.00    +0.000 OA
ATOM     20  N   UNL     1       1.847   6.928  20.267  0.00  0.00    +0.000 N 
ATOM     21  O   UNL     1       2.338   7.575  19.333  0.00  0.00    +0.000 OA
ENDBRANCH  13  20
ENDBRANCH   1  17
TORSDOF 3
ENDMDL
MODEL 5
REMARK VINA RESULT:      -7.3      1.624      2.661
REMARK  Name = 
REMARK  3 active torsions:
REMARK  status: ('A' for Active; 'I' for Inactive)
REMARK    1  A    between atoms: N_2  and  C_4
REMARK    2  A    between atoms: C_8  and  N_9
REMARK    3  A    between atoms: N_10  and  C_11
REMARK                            x       y       z     vdW  Elec       q    Type
REMARK                         _______ _______ _______ _____ _____    ______ ____
ROOT
ATOM      1  N   UNL     1       6.096   4.903  19.174  0.00  0.00    +0.000 NA
ATOM      2  N   UNL     1       5.605   3.879  19.698  0.00  0.00    +0.000 NA
ENDROOT
BRANCH   2   3
ATOM      3  C   UNL     1       4.482   3.172  19.331  0.00  0.00    +0.000 C 
ATOM      4  C   UNL     1       3.241   3.547  19.753  0.00  0.00    +0.000 C 
ATOM      5  C   UNL     1       3.081   4.646  20.802  0.00  0.00    +0.000 C 
ATOM      6  C   UNL     1       1.839   5.510  20.588  0.00  0.00    +0.000 C 
ATOM      7  C   UNL     1       0.611   4.627  20.436  0.00  0.00    +0.000 C 
ATOM      8  C   UNL     1       0.780   3.702  19.243  0.00  0.00    +0.000 C 
ATOM      9  N   UNL     1       2.053   2.954  19.270  0.00  0.00    +0.000 N 
ATOM     10  C   UNL     1       2.119   1.952  18.194  0.00  0.00    +0.000 C 
ATOM     11  C   UNL     1       3.404   1.149  18.282  0.00  0.00    +0.000 C 
ATOM     12  C   UNL     1       4.607   2.086  18.284  0.00  0.00    +0.000 C 
ENDBRANCH   2   3
BRANCH   1  17
ATOM     13  C   UNL     1       6.220   5.373  15.471  0.00  0.00    +0.000 A 
ATOM     14  C   UNL     1       5.266   6.387  15.306  0.00  0.00    +0.000 A 
ATOM     15  C   UNL     1       4.592   6.873  16.422  0.00  0.00    +0.000 A 
ATOM     16  C   UNL     1       4.873   6.343  17.686  0.00  0.00    +0.000 A 
ATOM     17  C   UNL     1       5.812   5.309  17.859  0.00  0.00    +0.000 A 
ATOM     18  C   UNL     1       6.496   4.835  16.736  0.00  0.00    +0.000 A 
BRANCH  13  20
ATOM     19  O   UNL     1       7.960   5.529  13.950  0.00  0.00    +0.000 OA
ATOM     20  N   UNL     1       6.960   4.887  14.304  0.00  0.00    +0.000 N 
ATOM     21  O   UNL     1       6.545   3.865  13.742  0.00  0.00    +0.000 OA
ENDBRANCH  13  20
ENDBRANCH   1  17
TORSDOF 3
ENDMDL
MODEL 6
REMARK VINA RESULT:      -7.1      2.832      3.616
REMARK  Name = 
REMARK  3 active torsions:
REMARK  status: ('A' for Active; 'I' for Inactive)
REMARK    1  A    between atoms: N_2  and  C_4
REMARK    2  A    between atoms: C_8  and  N_9
REMARK    3  A    between atoms: N_10  and  C_11
REMARK                            x       y       z     vdW  Elec       q    Type
REMARK                         _______ _______ _______ _____ _____    ______ ____
ROOT
ATOM      1  N   UNL     1       5.735   5.011  16.301  0.00  0.00    +0.000 NA
ATOM      2  N   UNL     1       4.486   5.067  16.316  0.00  0.00    +0.000 NA
ENDROOT
BRANCH   2   3
ATOM      3  C   UNL     1       3.645   5.366  17.366  0.00  0.00    +0.000 C 
ATOM      4  C   UNL     1       2.976   4.387  18.037  0.00  0.00    +0.000 C 
ATOM      5  C   UNL     1       2.988   2.949  17.521  0.00  0.00    +0.000 C 
ATOM      6  C   UNL     1       2.984   1.905  18.637  0.00  0.00    +0.000 C 
ATOM      7  C   UNL     1       1.856   2.194  19.614  0.00  0.00    +0.000 C 
ATOM      8  C   UNL     1       2.039   3.571  20.228  0.00  0.00    +0.000 C 
ATOM      9  N   UNL     1       2.238   4.630  19.217  0.00  0.00    +0.000 N 
ATOM     10  C   UNL     1       2.252   5.970  19.828  0.00  0.00    +0.000 C 
ATOM     11  C   UNL     1       2.389   7.045  18.766  0.00  0.00    +0.000 C 
ATOM     12  C   UNL     1       3.622   6.779  17.908  0.00  0.00    +0.000 C 
ENDBRANCH   2   3
BRANCH   1  17
ATOM     13  C   UNL     1       7.824   7.487  18.159  0.00  0.00    +0.000 A 
ATOM     14  C   UNL     1       8.363   6.670  19.163  0.00  0.00    +0.000 A 
ATOM     15  C   UNL     1       8.004   5.326  19.210  0.00  0.00    +0.000 A 
ATOM     16  C   UNL     1       7.113   4.814  18.262  0.00  0.00    +0.000 A 
ATOM     17  C   UNL     1       6.548   5.631  17.264  0.00  0.00    +0.000 A 
ATOM     18  C   UNL     1       6.923   6.977  17.213  0.00  0.00    +0.000 A 
BRANCH  13  20
ATOM     19  O   UNL     1       9.058   9.297  18.910  0.00  0.00    +0.000 OA
ATOM     20  N   UNL     1       8.230   8.893  18.082  0.00  0.00    +0.000 N 
ATOM     21  O   UNL     1       7.723   9.592  17.194  0.00  0.00    +0.000 OA
ENDBRANCH  13  20
ENDBRANCH   1  17
TORSDOF 3
ENDMDL
MODEL 7
REMARK VINA RESULT:      -7.1      4.021      6.711
REMARK  Name = 
REMARK  3 active torsions:
REMARK  status: ('A' for Active; 'I' for Inactive)
REMARK    1  A    between atoms: N_2  and  C_4
REMARK    2  A    between atoms: C_8  and  N_9
REMARK    3  A    between atoms: N_10  and  C_11
REMARK                            x       y       z     vdW  Elec       q    Type
REMARK                         _______ _______ _______ _____ _____    ______ ____
ROOT
ATOM      1  N   UNL     1       3.044   4.335  18.941  0.00  0.00    +0.000 NA
ATOM      2  N   UNL     1       4.208   3.878  18.893  0.00  0.00    +0.000 NA
ENDROOT
BRANCH   2   3
ATOM      3  C   UNL     1       5.377   4.522  18.555  0.00  0.00    +0.000 C 
ATOM      4  C   UNL     1       5.848   4.508  17.276  0.00  0.00    +0.000 C 
ATOM      5  C   UNL     1       5.195   3.614  16.222  0.00  0.00    +0.000 C 
ATOM      6  C   UNL     1       5.187   4.232  14.825  0.00  0.00    +0.000 C 
ATOM      7  C   UNL     1       6.587   4.693  14.453  0.00  0.00    +0.000 C 
ATOM      8  C   UNL     1       7.076   5.731  15.448  0.00  0.00    +0.000 C 
ATOM      9  N   UNL     1       6.947   5.288  16.852  0.00  0.00    +0.000 N 
ATOM     10  C   UNL     1       7.572   6.241  17.783  0.00  0.00    +0.000 C 
ATOM     11  C   UNL     1       7.489   5.734  19.211  0.00  0.00    +0.000 C 
ATOM     12  C   UNL     1       6.039   5.426  19.573  0.00  0.00    +0.000 C 
ENDBRANCH   2   3
BRANCH   1  17
ATOM     13  C   UNL     1       1.791   7.652  20.111  0.00  0.00    +0.000 A 
ATOM     14  C   UNL     1       2.048   8.440  18.980  0.00  0.00    +0.000 A 
ATOM     15  C   UNL     1       2.649   7.857  17.869  0.00  0.00    +0.000 A 
ATOM     16  C   UNL     1       2.988   6.500  17.897  0.00  0.00    +0.000 A 
ATOM     17  C   UNL     1       2.755   5.706  19.036  0.00  0.00    +0.000 A 
ATOM     18  C   UNL     1       2.139   6.294  20.144  0.00  0.00    +0.000 A 
BRANCH  13  20
ATOM     19  O   UNL     1      -0.108   8.128  21.349  0.00  0.00    +0.000 OA
ATOM     20  N   UNL     1       1.122   8.253  21.269  0.00  0.00    +0.000 N 
ATOM     21  O   UNL     1       1.825   8.847  22.097  0.00  0.00    +0.000 OA
ENDBRANCH  13  20
ENDBRANCH   1  17
TORSDOF 3
ENDMDL
MODEL 8
REMARK VINA RESULT:      -7.1      3.177      4.125
REMARK  Name = 
REMARK  3 active torsions:
REMARK  status: ('A' for Active; 'I' for Inactive)
REMARK    1  A    between atoms: N_2  and  C_4
REMARK    2  A    between atoms: C_8  and  N_9
REMARK    3  A    between atoms: N_10  and  C_11
REMARK                            x       y       z     vdW  Elec       q    Type
REMARK                         _______ _______ _______ _____ _____    ______ ____
ROOT
ATOM      1  N   UNL     1       5.918   6.365  15.989  0.00  0.00    +0.000 NA
ATOM      2  N   UNL     1       4.671   6.463  16.005  0.00  0.00    +0.000 NA
ENDROOT
BRANCH   2   3
ATOM      3  C   UNL     1       3.822   6.549  17.086  0.00  0.00    +0.000 C 
ATOM      4  C   UNL     1       3.485   5.445  17.810  0.00  0.00    +0.000 C 
ATOM      5  C   UNL     1       3.883   4.052  17.325  0.00  0.00    +0.000 C 
ATOM      6  C   UNL     1       4.219   3.088  18.462  0.00  0.00    +0.000 C 
ATOM      7  C   UNL     1       3.096   3.080  19.486  0.00  0.00    +0.000 C 
ATOM      8  C   UNL     1       2.905   4.473  20.060  0.00  0.00    +0.000 C 
ATOM      9  N   UNL     1       2.756   5.510  19.018  0.00  0.00    +0.000 N 
ATOM     10  C   UNL     1       2.414   6.819  19.598  0.00  0.00    +0.000 C 
ATOM     11  C   UNL     1       2.199   7.853  18.508  0.00  0.00    +0.000 C 
ATOM     12  C   UNL     1       3.422   7.916  17.598  0.00  0.00    +0.000 C 
ENDBRANCH   2   3
BRANCH   1  17
ATOM     13  C   UNL     1       8.148   8.240  18.324  0.00  0.00    +0.000 A 
ATOM     14  C   UNL     1       8.535   7.212  19.196  0.00  0.00    +0.000 A 
ATOM     15  C   UNL     1       8.030   5.930  18.999  0.00  0.00    +0.000 A 
ATOM     16  C   UNL     1       7.146   5.688  17.942  0.00  0.00    +0.000 A 
ATOM     17  C   UNL     1       6.734   6.718  17.076  0.00  0.00    +0.000 A 
ATOM     18  C   UNL     1       7.255   8.001  17.270  0.00  0.00    +0.000 A 
BRANCH  13  20
ATOM     19  O   UNL     1       8.540  10.401  17.588  0.00  0.00    +0.000 OA
ATOM     20  N   UNL     1       8.708   9.582  18.504  0.00  0.00    +0.000 N 
ATOM     21  O   UNL     1       9.314   9.818  19.557  0.00  0.00    +0.000 OA
ENDBRANCH  13  20
ENDBRANCH   1  17
TORSDOF 3
ENDMDL
MODEL 9
REMARK VINA RESULT:      -7.0      2.984      6.019
REMARK  Name = 
REMARK  3 active torsions:
REMARK  status: ('A' for Active; 'I' for Inactive)
REMARK    1  A    between atoms: N_2  and  C_4
REMARK    2  A    between atoms: C_8  and  N_9
REMARK    3  A    between atoms: N_10  and  C_11
REMARK                            x       y       z     vdW  Elec       q    Type
REMARK                         _______ _______ _______ _____ _____    ______ ____
ROOT
ATOM      1  N   UNL     1       2.857   3.728  18.515  0.00  0.00    +0.000 NA
ATOM      2  N   UNL     1       4.052   3.382  18.389  0.00  0.00    +0.000 NA
ENDROOT
BRANCH   2   3
ATOM      3  C   UNL     1       5.176   4.172  18.289  0.00  0.00    +0.000 C 
ATOM      4  C   UNL     1       5.816   4.344  17.098  0.00  0.00    +0.000 C 
ATOM      5  C   UNL     1       5.419   3.512  15.880  0.00  0.00    +0.000 C 
ATOM      6  C   UNL     1       5.533   4.275  14.561  0.00  0.00    +0.000 C 
ATOM      7  C   UNL     1       6.908   4.910  14.445  0.00  0.00    +0.000 C 
ATOM      8  C   UNL     1       7.135   5.876  15.596  0.00  0.00    +0.000 C 
ATOM      9  N   UNL     1       6.867   5.271  16.917  0.00  0.00    +0.000 N 
ATOM     10  C   UNL     1       7.246   6.174  18.016  0.00  0.00    +0.000 C 
ATOM     11  C   UNL     1       7.026   5.507  19.362  0.00  0.00    +0.000 C 
ATOM     12  C   UNL     1       5.586   5.019  19.475  0.00  0.00    +0.000 C 
ENDBRANCH   2   3
BRANCH   1  17
ATOM     13  C   UNL     1       2.211   7.396  18.774  0.00  0.00    +0.000 A 
ATOM     14  C   UNL     1       1.838   7.500  20.122  0.00  0.00    +0.000 A 
ATOM     15  C   UNL     1       1.790   6.349  20.903  0.00  0.00    +0.000 A 
ATOM     16  C   UNL     1       2.110   5.112  20.334  0.00  0.00    +0.000 A 
ATOM     17  C   UNL     1       2.463   4.995  18.976  0.00  0.00    +0.000 A 
ATOM     18  C   UNL     1       2.523   6.156  18.200  0.00  0.00    +0.000 A 
BRANCH  13  20
ATOM     19  O   UNL     1       2.973   8.555  16.919  0.00  0.00    +0.000 OA
ATOM     20  N   UNL     1       2.301   8.611  17.959  0.00  0.00    +0.000 N 
ATOM     21  O   UNL     1       1.702   9.618  18.356  0.00  0.00    +0.000 OA
ENDBRANCH  13  20
ENDBRANCH   1  17
TORSDOF 3
ENDMDL
