MODEL 1
REMARK VINA RESULT:      -8.2      0.000      0.000
REMARK  Name = 
REMARK  7 active torsions:
REMARK  status: ('A' for Active; 'I' for Inactive)
REMARK    1  A    between atoms: C_2  and  C_23
REMARK    2  A    between atoms: N_3  and  C_4
REMARK    3  A    between atoms: C_7  and  O_8
REMARK    4  A    between atoms: O_8  and  C_9
REMARK    5  A    between atoms: C_12  and  N_13
REMARK    6  A    between atoms: C_19  and  C_20
REMARK    7  A    between atoms: C_20  and  O_22
REMARK                            x       y       z     vdW  Elec       q    Type
REMARK                         _______ _______ _______ _____ _____    ______ ____
ROOT
ATOM      1  C   UNL     1       1.318   9.326  19.630  0.00  0.00    +0.000 A 
ATOM      2  C   UNL     1       1.835   8.831  18.421  0.00  0.00    +0.000 A 
ATOM      3  C   UNL     1       2.238   7.495  18.308  0.00  0.00    +0.000 A 
ATOM      4  C   UNL     1       2.109   6.635  19.397  0.00  0.00    +0.000 A 
ATOM      5  C   UNL     1       1.620   7.128  20.608  0.00  0.00    +0.000 A 
ATOM      6  C   UNL     1       1.218   8.464  20.734  0.00  0.00    +0.000 A 
ENDROOT
BRANCH   1   9
ATOM      7  O   UNL     1      -1.243  10.435  19.139  0.00  0.00    +0.000 OA
ATOM      8  C   UNL     1      -0.306  11.157  19.475  0.00  0.00    +0.000 C 
ATOM      9  N   UNL     1       0.972  10.694  19.735  0.00  0.00    +0.000 N 
ATOM     10  H   UNL     1       1.500  11.245  20.409  0.00  0.00    +0.000 HD
BRANCH   8  11
ATOM     11  C   UNL     1      -0.550  12.629  19.599  0.00  0.00    +0.000 A 
ATOM     12  C   UNL     1       0.212  13.443  18.735  0.00  0.00    +0.000 A 
ATOM     13  C   UNL     1       0.116  14.837  18.782  0.00  0.00    +0.000 A 
ATOM     14  C   UNL     1      -0.756  15.437  19.682  0.00  0.00    +0.000 A 
ATOM     15 CL   UNL     1      -0.869  17.146  19.766  0.00  0.00    +0.000 Cl
ATOM     16  C   UNL     1      -1.539  14.650  20.526  0.00  0.00    +0.000 A 
ATOM     17  C   UNL     1      -1.437  13.252  20.490  0.00  0.00    +0.000 A 
ATOM     18 CL   UNL     1      -2.474  12.412  21.583  0.00  0.00    +0.000 Cl
ENDBRANCH   8  11
ENDBRANCH   1   9
BRANCH   6  19
ATOM     19  C   UNL     1       0.530   8.883  21.982  0.00  0.00    +0.000 C 
ATOM     20  O   UNL     1       1.035   9.602  22.820  0.00  0.00    +0.000 OA
BRANCH  19  21
ATOM     21  O   UNL     1      -0.715   8.366  22.125  0.00  0.00    +0.000 OA
ATOM     22  H   UNL     1      -1.439   9.016  22.167  0.00  0.00    +0.000 HD
ENDBRANCH  19  21
ENDBRANCH   6  19
BRANCH   4  23
ATOM     23  O   UNL     1       2.528   5.332  19.231  0.00  0.00    +0.000 OA
BRANCH  23  24
ATOM     24  C   UNL     1       3.792   5.120  18.691  0.00  0.00    +0.000 A 
ATOM     25  C   UNL     1       3.857   4.568  17.420  0.00  0.00    +0.000 A 
ATOM     26  C   UNL     1       5.117   4.345  16.858  0.00  0.00    +0.000 A 
ATOM     27  C   UNL     1       6.257   4.687  17.593  0.00  0.00    +0.000 A 
ATOM     28  C   UNL     1       6.102   5.238  18.853  0.00  0.00    +0.000 A 
ATOM     29  N   UNL     1       4.890   5.445  19.418  0.00  0.00    +0.000 NA
BRANCH  27  30
ATOM     30  N   UNL     1       7.595   4.467  17.067  0.00  0.00    +0.000 N 
ATOM     31  O   UNL     1       8.468   4.097  17.866  0.00  0.00    +0.000 OA
ATOM     32  O   UNL     1       7.781   4.662  15.859  0.00  0.00    +0.000 OA
ENDBRANCH  27  30
ENDBRANCH  23  24
ENDBRANCH   4  23
TORSDOF 7
ENDMDL
MODEL 2
REMARK VINA RESULT:      -8.1      0.513      1.049
REMARK  Name = 
REMARK  7 active torsions:
REMARK  status: ('A' for Active; 'I' for Inactive)
REMARK    1  A    between atoms: C_2  and  C_23
REMARK    2  A    between atoms: N_3  and  C_4
REMARK    3  A    between atoms: C_7  and  O_8
REMARK    4  A    between atoms: O_8  and  C_9
REMARK    5  A    between atoms: C_12  and  N_13
REMARK    6  A    between atoms: C_19  and  C_20
REMARK    7  A    between atoms: C_20  and  O_22
REMARK                            x       y       z     vdW  Elec       q    Type
REMARK                         _______ _______ _______ _____ _____    ______ ____
ROOT
ATOM      1  C   UNL     1       1.293   9.318  19.632  0.00  0.00    +0.000 A 
ATOM      2  C   UNL     1       1.805   8.836  18.415  0.00  0.00    +0.000 A 
ATOM      3  C   UNL     1       2.204   7.501  18.284  0.00  0.00    +0.000 A 
ATOM      4  C   UNL     1       2.076   6.628  19.363  0.00  0.00    +0.000 A 
ATOM      5  C   UNL     1       1.592   7.108  20.582  0.00  0.00    +0.000 A 
ATOM      6  C   UNL     1       1.194   8.443  20.725  0.00  0.00    +0.000 A 
ENDROOT
BRANCH   1   9
ATOM      7  O   UNL     1      -1.239  10.456  19.062  0.00  0.00    +0.000 OA
ATOM      8  C   UNL     1      -0.312  11.164  19.454  0.00  0.00    +0.000 C 
ATOM      9  N   UNL     1       0.951  10.686  19.754  0.00  0.00    +0.000 N 
ATOM     10  H   UNL     1       1.455  11.217  20.461  0.00  0.00    +0.000 HD
BRANCH   8  11
ATOM     11  C   UNL     1      -0.552  12.634  19.601  0.00  0.00    +0.000 A 
ATOM     12  C   UNL     1       0.106  13.451  18.659  0.00  0.00    +0.000 A 
ATOM     13  C   UNL     1       0.005  14.845  18.715  0.00  0.00    +0.000 A 
ATOM     14  C   UNL     1      -0.769  15.441  19.703  0.00  0.00    +0.000 A 
ATOM     15 CL   UNL     1      -0.885  17.149  19.797  0.00  0.00    +0.000 Cl
ATOM     16  C   UNL     1      -1.451  14.649  20.628  0.00  0.00    +0.000 A 
ATOM     17  C   UNL     1      -1.343  13.252  20.583  0.00  0.00    +0.000 A 
ATOM     18 CL   UNL     1      -2.249  12.407  21.782  0.00  0.00    +0.000 Cl
ENDBRANCH   8  11
ENDBRANCH   1   9
BRANCH   6  19
ATOM     19  C   UNL     1       0.511   8.849  21.980  0.00  0.00    +0.000 C 
ATOM     20  O   UNL     1       1.004   9.591  22.805  0.00  0.00    +0.000 OA
BRANCH  19  21
ATOM     21  O   UNL     1      -0.713   8.292  22.146  0.00  0.00    +0.000 OA
ATOM     22  H   UNL     1      -0.734   7.319  22.173  0.00  0.00    +0.000 HD
ENDBRANCH  19  21
ENDBRANCH   6  19
BRANCH   4  23
ATOM     23  O   UNL     1       2.491   5.326  19.180  0.00  0.00    +0.000 OA
BRANCH  23  24
ATOM     24  C   UNL     1       3.756   5.117  18.642  0.00  0.00    +0.000 A 
ATOM     25  C   UNL     1       4.846   5.499  19.411  0.00  0.00    +0.000 A 
ATOM     26  C   UNL     1       6.127   5.299  18.891  0.00  0.00    +0.000 A 
ATOM     27  C   UNL     1       6.261   4.721  17.624  0.00  0.00    +0.000 A 
ATOM     28  C   UNL     1       5.121   4.364  16.926  0.00  0.00    +0.000 A 
ATOM     29  N   UNL     1       3.873   4.567  17.408  0.00  0.00    +0.000 NA
BRANCH  27  30
ATOM     30  N   UNL     1       7.567   4.499  17.023  0.00  0.00    +0.000 N 
ATOM     31  O   UNL     1       7.699   4.785  15.824  0.00  0.00    +0.000 OA
ATOM     32  O   UNL     1       8.464   4.039  17.743  0.00  0.00    +0.000 OA
ENDBRANCH  27  30
ENDBRANCH  23  24
ENDBRANCH   4  23
TORSDOF 7
ENDMDL
MODEL 3
REMARK VINA RESULT:      -8.0      0.943      1.473
REMARK  Name = 
REMARK  7 active torsions:
REMARK  status: ('A' for Active; 'I' for Inactive)
REMARK    1  A    between atoms: C_2  and  C_23
REMARK    2  A    between atoms: N_3  and  C_4
REMARK    3  A    between atoms: C_7  and  O_8
REMARK    4  A    between atoms: O_8  and  C_9
REMARK    5  A    between atoms: C_12  and  N_13
REMARK    6  A    between atoms: C_19  and  C_20
REMARK    7  A    between atoms: C_20  and  O_22
REMARK                            x       y       z     vdW  Elec       q    Type
REMARK                         _______ _______ _______ _____ _____    ______ ____
ROOT
ATOM      1  C   UNL     1       1.284   9.364  19.798  0.00  0.00    +0.000 A 
ATOM      2  C   UNL     1       1.821   8.885  18.591  0.00  0.00    +0.000 A 
ATOM      3  C   UNL     1       2.219   7.549  18.464  0.00  0.00    +0.000 A 
ATOM      4  C   UNL     1       2.064   6.673  19.537  0.00  0.00    +0.000 A 
ATOM      5  C   UNL     1       1.554   7.150  20.746  0.00  0.00    +0.000 A 
ATOM      6  C   UNL     1       1.158   8.485  20.886  0.00  0.00    +0.000 A 
ENDROOT
BRANCH   1   9
ATOM      7  O   UNL     1      -1.149  10.552  18.962  0.00  0.00    +0.000 OA
ATOM      8  C   UNL     1      -0.268  11.236  19.482  0.00  0.00    +0.000 C 
ATOM      9  N   UNL     1       0.944  10.733  19.919  0.00  0.00    +0.000 N 
ATOM     10  H   UNL     1       1.365  11.237  20.696  0.00  0.00    +0.000 HD
BRANCH   8  11
ATOM     11  C   UNL     1      -0.509  12.705  19.642  0.00  0.00    +0.000 A 
ATOM     12  C   UNL     1      -1.632  13.052  20.422  0.00  0.00    +0.000 A 
ATOM     13  C   UNL     1      -1.998  14.388  20.609  0.00  0.00    +0.000 A 
ATOM     14  C   UNL     1      -1.236  15.398  20.034  0.00  0.00    +0.000 A 
ATOM     15 CL   UNL     1      -1.684  17.041  20.238  0.00  0.00    +0.000 Cl
ATOM     16  C   UNL     1      -0.106  15.078  19.282  0.00  0.00    +0.000 A 
ATOM     17  C   UNL     1       0.258  13.739  19.082  0.00  0.00    +0.000 A 
ATOM     18 CL   UNL     1       1.683  13.498  18.141  0.00  0.00    +0.000 Cl
ENDBRANCH   8  11
ENDBRANCH   1   9
BRANCH   6  19
ATOM     19  C   UNL     1       0.448   8.889  22.127  0.00  0.00    +0.000 C 
ATOM     20  O   UNL     1       0.889   9.692  22.924  0.00  0.00    +0.000 OA
BRANCH  19  21
ATOM     21  O   UNL     1      -0.736   8.257  22.314  0.00  0.00    +0.000 OA
ATOM     22  H   UNL     1      -0.815   7.378  21.902  0.00  0.00    +0.000 HD
ENDBRANCH  19  21
ENDBRANCH   6  19
BRANCH   4  23
ATOM     23  O   UNL     1       2.478   5.370  19.358  0.00  0.00    +0.000 OA
BRANCH  23  24
ATOM     24  C   UNL     1       3.719   5.158  18.768  0.00  0.00    +0.000 A 
ATOM     25  C   UNL     1       3.732   4.719  17.452  0.00  0.00    +0.000 A 
ATOM     26  C   UNL     1       4.969   4.498  16.839  0.00  0.00    +0.000 A 
ATOM     27  C   UNL     1       6.138   4.731  17.570  0.00  0.00    +0.000 A 
ATOM     28  C   UNL     1       6.035   5.174  18.877  0.00  0.00    +0.000 A 
ATOM     29  N   UNL     1       4.846   5.376  19.490  0.00  0.00    +0.000 NA
BRANCH  27  30
ATOM     30  N   UNL     1       7.454   4.507  16.991  0.00  0.00    +0.000 N 
ATOM     31  O   UNL     1       7.588   4.728  15.779  0.00  0.00    +0.000 OA
ATOM     32  O   UNL     1       8.356   4.112  17.741  0.00  0.00    +0.000 OA
ENDBRANCH  27  30
ENDBRANCH  23  24
ENDBRANCH   4  23
TORSDOF 7
ENDMDL
MODEL 4
REMARK VINA RESULT:      -7.9      1.083      1.825
REMARK  Name = 
REMARK  7 active torsions:
REMARK  status: ('A' for Active; 'I' for Inactive)
REMARK    1  A    between atoms: C_2  and  C_23
REMARK    2  A    between atoms: N_3  and  C_4
REMARK    3  A    between atoms: C_7  and  O_8
REMARK    4  A    between atoms: O_8  and  C_9
REMARK    5  A    between atoms: C_12  and  N_13
REMARK    6  A    between atoms: C_19  and  C_20
REMARK    7  A    between atoms: C_20  and  O_22
REMARK                            x       y       z     vdW  Elec       q    Type
REMARK                         _______ _______ _______ _____ _____    ______ ____
ROOT
ATOM      1  C   UNL     1       1.343   9.393  19.634  0.00  0.00    +0.000 A 
ATOM      2  C   UNL     1       1.849   8.920  18.412  0.00  0.00    +0.000 A 
ATOM      3  C   UNL     1       2.216   7.578  18.259  0.00  0.00    +0.000 A 
ATOM      4  C   UNL     1       2.060   6.690  19.321  0.00  0.00    +0.000 A 
ATOM      5  C   UNL     1       1.581   7.160  20.546  0.00  0.00    +0.000 A 
ATOM      6  C   UNL     1       1.216   8.501  20.711  0.00  0.00    +0.000 A 
ENDROOT
BRANCH   1   9
ATOM      7  O   UNL     1      -1.030  10.667  18.751  0.00  0.00    +0.000 OA
ATOM      8  C   UNL     1      -0.149  11.313  19.318  0.00  0.00    +0.000 C 
ATOM      9  N   UNL     1       1.035  10.767  19.780  0.00  0.00    +0.000 N 
ATOM     10  H   UNL     1       1.443  11.240  20.584  0.00  0.00    +0.000 HD
BRANCH   8  11
ATOM     11  C   UNL     1      -0.357  12.784  19.509  0.00  0.00    +0.000 A 
ATOM     12  C   UNL     1      -1.477  13.140  20.288  0.00  0.00    +0.000 A 
ATOM     13  C   UNL     1      -1.813  14.479  20.502  0.00  0.00    +0.000 A 
ATOM     14  C   UNL     1      -1.024  15.484  19.955  0.00  0.00    +0.000 A 
ATOM     15 CL   UNL     1      -1.435  17.132  20.192  0.00  0.00    +0.000 Cl
ATOM     16  C   UNL     1       0.105  15.154  19.205  0.00  0.00    +0.000 A 
ATOM     17  C   UNL     1       0.438  13.811  18.977  0.00  0.00    +0.000 A 
ATOM     18 CL   UNL     1       1.865  13.558  18.042  0.00  0.00    +0.000 Cl
ENDBRANCH   8  11
ENDBRANCH   1   9
BRANCH   6  19
ATOM     19  C   UNL     1       0.537   8.902  21.970  0.00  0.00    +0.000 C 
ATOM     20  O   UNL     1      -0.582   8.541  22.275  0.00  0.00    +0.000 OA
BRANCH  19  21
ATOM     21  O   UNL     1       1.267   9.738  22.748  0.00  0.00    +0.000 OA
ATOM     22  H   UNL     1       0.755  10.323  23.334  0.00  0.00    +0.000 HD
ENDBRANCH  19  21
ENDBRANCH   6  19
BRANCH   4  23
ATOM     23  O   UNL     1       2.443   5.381  19.117  0.00  0.00    +0.000 OA
BRANCH  23  24
ATOM     24  C   UNL     1       3.707   5.149  18.587  0.00  0.00    +0.000 A 
ATOM     25  C   UNL     1       4.799   5.469  19.382  0.00  0.00    +0.000 A 
ATOM     26  C   UNL     1       6.080   5.245  18.869  0.00  0.00    +0.000 A 
ATOM     27  C   UNL     1       6.211   4.708  17.585  0.00  0.00    +0.000 A 
ATOM     28  C   UNL     1       5.069   4.412  16.861  0.00  0.00    +0.000 A 
ATOM     29  N   UNL     1       3.822   4.639  17.336  0.00  0.00    +0.000 NA
BRANCH  27  30
ATOM     30  N   UNL     1       7.517   4.464  16.992  0.00  0.00    +0.000 N 
ATOM     31  O   UNL     1       7.639   4.672  15.776  0.00  0.00    +0.000 OA
ATOM     32  O   UNL     1       8.423   4.064  17.735  0.00  0.00    +0.000 OA
ENDBRANCH  27  30
ENDBRANCH  23  24
ENDBRANCH   4  23
TORSDOF 7
ENDMDL
MODEL 5
REMARK VINA RESULT:      -7.8      1.285      1.445
REMARK  Name = 
REMARK  7 active torsions:
REMARK  status: ('A' for Active; 'I' for Inactive)
REMARK    1  A    between atoms: C_2  and  C_23
REMARK    2  A    between atoms: N_3  and  C_4
REMARK    3  A    between atoms: C_7  and  O_8
REMARK    4  A    between atoms: O_8  and  C_9
REMARK    5  A    between atoms: C_12  and  N_13
REMARK    6  A    between atoms: C_19  and  C_20
REMARK    7  A    between atoms: C_20  and  O_22
REMARK                            x       y       z     vdW  Elec       q    Type
REMARK                         _______ _______ _______ _____ _____    ______ ____
ROOT
ATOM      1  C   UNL     1       1.384   9.449  19.390  0.00  0.00    +0.000 A 
ATOM      2  C   UNL     1       1.799   8.851  18.188  0.00  0.00    +0.000 A 
ATOM      3  C   UNL     1       2.208   7.512  18.158  0.00  0.00    +0.000 A 
ATOM      4  C   UNL     1       2.186   6.753  19.326  0.00  0.00    +0.000 A 
ATOM      5  C   UNL     1       1.799   7.350  20.527  0.00  0.00    +0.000 A 
ATOM      6  C   UNL     1       1.393   8.689  20.570  0.00  0.00    +0.000 A 
ENDROOT
BRANCH   1   9
ATOM      7  O   UNL     1       2.649  11.506  17.906  0.00  0.00    +0.000 OA
ATOM      8  C   UNL     1       1.702  11.765  18.649  0.00  0.00    +0.000 C 
ATOM      9  N   UNL     1       1.031  10.820  19.403  0.00  0.00    +0.000 N 
ATOM     10  H   UNL     1       0.054  11.034  19.591  0.00  0.00    +0.000 HD
BRANCH   8  11
ATOM     11  C   UNL     1       1.254  13.189  18.759  0.00  0.00    +0.000 A 
ATOM     12  C   UNL     1       2.286  14.138  18.910  0.00  0.00    +0.000 A 
ATOM     13  C   UNL     1       2.002  15.497  19.074  0.00  0.00    +0.000 A 
ATOM     14  C   UNL     1       0.681  15.930  19.071  0.00  0.00    +0.000 A 
ATOM     15 CL   UNL     1       0.315  17.591  19.291  0.00  0.00    +0.000 Cl
ATOM     16  C   UNL     1      -0.354  15.011  18.895  0.00  0.00    +0.000 A 
ATOM     17  C   UNL     1      -0.073  13.646  18.743  0.00  0.00    +0.000 A 
ATOM     18 CL   UNL     1      -1.452  12.633  18.525  0.00  0.00    +0.000 Cl
ENDBRANCH   8  11
ENDBRANCH   1   9
BRANCH   6  19
ATOM     19  C   UNL     1       0.812   9.214  21.832  0.00  0.00    +0.000 C 
ATOM     20  O   UNL     1       1.458   9.401  22.843  0.00  0.00    +0.000 OA
BRANCH  19  21
ATOM     21  O   UNL     1      -0.522   9.444  21.771  0.00  0.00    +0.000 OA
ATOM     22  H   UNL     1      -0.818  10.017  21.041  0.00  0.00    +0.000 HD
ENDBRANCH  19  21
ENDBRANCH   6  19
BRANCH   4  23
ATOM     23  O   UNL     1       2.606   5.442  19.239  0.00  0.00    +0.000 OA
BRANCH  23  24
ATOM     24  C   UNL     1       3.857   5.196  18.684  0.00  0.00    +0.000 A 
ATOM     25  C   UNL     1       3.890   4.646  17.410  0.00  0.00    +0.000 A 
ATOM     26  C   UNL     1       5.137   4.389  16.832  0.00  0.00    +0.000 A 
ATOM     27  C   UNL     1       6.294   4.696  17.554  0.00  0.00    +0.000 A 
ATOM     28  C   UNL     1       6.171   5.248  18.818  0.00  0.00    +0.000 A 
ATOM     29  N   UNL     1       4.972   5.487  19.398  0.00  0.00    +0.000 NA
BRANCH  27  30
ATOM     30  N   UNL     1       7.620   4.440  17.012  0.00  0.00    +0.000 N 
ATOM     31  O   UNL     1       8.495   4.060  17.802  0.00  0.00    +0.000 OA
ATOM     32  O   UNL     1       7.792   4.617  15.799  0.00  0.00    +0.000 OA
ENDBRANCH  27  30
ENDBRANCH  23  24
ENDBRANCH   4  23
TORSDOF 7
ENDMDL
MODEL 6
REMARK VINA RESULT:      -7.8      2.396      3.233
REMARK  Name = 
REMARK  7 active torsions:
REMARK  status: ('A' for Active; 'I' for Inactive)
REMARK    1  A    between atoms: C_2  and  C_23
REMARK    2  A    between atoms: N_3  and  C_4
REMARK    3  A    between atoms: C_7  and  O_8
REMARK    4  A    between atoms: O_8  and  C_9
REMARK    5  A    between atoms: C_12  and  N_13
REMARK    6  A    between atoms: C_19  and  C_20
REMARK    7  A    between atoms: C_20  and  O_22
REMARK                            x       y       z     vdW  Elec       q    Type
REMARK                         _______ _______ _______ _____ _____    ______ ____
ROOT
ATOM      1  C   UNL     1       0.196   9.885  19.722  0.00  0.00    +0.000 A 
ATOM      2  C   UNL     1       0.431  10.014  18.342  0.00  0.00    +0.000 A 
ATOM      3  C   UNL     1       1.411   9.242  17.706  0.00  0.00    +0.000 A 
ATOM      4  C   UNL     1       2.152   8.318  18.440  0.00  0.00    +0.000 A 
ATOM      5  C   UNL     1       1.941   8.203  19.815  0.00  0.00    +0.000 A 
ATOM      6  C   UNL     1       0.967   8.974  20.462  0.00  0.00    +0.000 A 
ENDROOT
BRANCH   1   9
ATOM      7  O   UNL     1       0.766  12.031  21.482  0.00  0.00    +0.000 OA
ATOM      8  C   UNL     1      -0.398  11.747  21.201  0.00  0.00    +0.000 C 
ATOM      9  N   UNL     1      -0.759  10.718  20.350  0.00  0.00    +0.000 N 
ATOM     10  H   UNL     1      -1.635  10.859  19.852  0.00  0.00    +0.000 HD
BRANCH   8  11
ATOM     11  C   UNL     1      -1.497  12.550  21.826  0.00  0.00    +0.000 A 
ATOM     12  C   UNL     1      -2.153  11.935  22.912  0.00  0.00    +0.000 A 
ATOM     13  C   UNL     1      -3.229  12.556  23.554  0.00  0.00    +0.000 A 
ATOM     14  C   UNL     1      -3.654  13.809  23.129  0.00  0.00    +0.000 A 
ATOM     15 CL   UNL     1      -4.985  14.574  23.892  0.00  0.00    +0.000 Cl
ATOM     16  C   UNL     1      -3.001  14.447  22.074  0.00  0.00    +0.000 A 
ATOM     17  C   UNL     1      -1.929  13.823  21.421  0.00  0.00    +0.000 A 
ATOM     18 CL   UNL     1      -1.216  14.736  20.143  0.00  0.00    +0.000 Cl
ENDBRANCH   8  11
ENDBRANCH   1   9
BRANCH   6  19
ATOM     19  C   UNL     1       0.654   8.674  21.884  0.00  0.00    +0.000 C 
ATOM     20  O   UNL     1      -0.366   8.125  22.247  0.00  0.00    +0.000 OA
BRANCH  19  21
ATOM     21  O   UNL     1       1.602   9.096  22.756  0.00  0.00    +0.000 OA
ATOM     22  H   UNL     1       1.798   8.488  23.491  0.00  0.00    +0.000 HD
ENDBRANCH  19  21
ENDBRANCH   6  19
BRANCH   4  23
ATOM     23  O   UNL     1       3.107   7.590  17.763  0.00  0.00    +0.000 OA
BRANCH  23  24
ATOM     24  C   UNL     1       3.318   6.272  18.154  0.00  0.00    +0.000 A 
ATOM     25  C   UNL     1       2.298   5.364  17.906  0.00  0.00    +0.000 A 
ATOM     26  C   UNL     1       2.488   4.034  18.291  0.00  0.00    +0.000 A 
ATOM     27  C   UNL     1       3.690   3.671  18.905  0.00  0.00    +0.000 A 
ATOM     28  C   UNL     1       4.658   4.640  19.111  0.00  0.00    +0.000 A 
ATOM     29  N   UNL     1       4.483   5.935  18.760  0.00  0.00    +0.000 NA
BRANCH  27  30
ATOM     30  N   UNL     1       3.941   2.306  19.340  0.00  0.00    +0.000 N 
ATOM     31  O   UNL     1       4.793   2.136  20.224  0.00  0.00    +0.000 OA
ATOM     32  O   UNL     1       3.291   1.399  18.802  0.00  0.00    +0.000 OA
ENDBRANCH  27  30
ENDBRANCH  23  24
ENDBRANCH   4  23
TORSDOF 7
ENDMDL
MODEL 7
REMARK VINA RESULT:      -7.7      1.567      2.143
REMARK  Name = 
REMARK  7 active torsions:
REMARK  status: ('A' for Active; 'I' for Inactive)
REMARK    1  A    between atoms: C_2  and  C_23
REMARK    2  A    between atoms: N_3  and  C_4
REMARK    3  A    between atoms: C_7  and  O_8
REMARK    4  A    between atoms: O_8  and  C_9
REMARK    5  A    between atoms: C_12  and  N_13
REMARK    6  A    between atoms: C_19  and  C_20
REMARK    7  A    between atoms: C_20  and  O_22
REMARK                            x       y       z     vdW  Elec       q    Type
REMARK                         _______ _______ _______ _____ _____    ______ ____
ROOT
ATOM      1  C   UNL     1       1.384   9.696  19.365  0.00  0.00    +0.000 A 
ATOM      2  C   UNL     1       1.812   9.072  18.181  0.00  0.00    +0.000 A 
ATOM      3  C   UNL     1       2.187   7.724  18.175  0.00  0.00    +0.000 A 
ATOM      4  C   UNL     1       2.119   6.979  19.351  0.00  0.00    +0.000 A 
ATOM      5  C   UNL     1       1.719   7.599  20.536  0.00  0.00    +0.000 A 
ATOM      6  C   UNL     1       1.346   8.949  20.554  0.00  0.00    +0.000 A 
ENDROOT
BRANCH   1   9
ATOM      7  O   UNL     1       2.729  11.700  17.881  0.00  0.00    +0.000 OA
ATOM      8  C   UNL     1       1.775  11.993  18.602  0.00  0.00    +0.000 C 
ATOM      9  N   UNL     1       1.066  11.074  19.355  0.00  0.00    +0.000 N 
ATOM     10  H   UNL     1       0.092  11.316  19.522  0.00  0.00    +0.000 HD
BRANCH   8  11
ATOM     11  C   UNL     1       1.362  13.429  18.686  0.00  0.00    +0.000 A 
ATOM     12  C   UNL     1      -0.023  13.652  18.836  0.00  0.00    +0.000 A 
ATOM     13  C   UNL     1      -0.547  14.947  18.878  0.00  0.00    +0.000 A 
ATOM     14  C   UNL     1       0.307  16.039  18.788  0.00  0.00    +0.000 A 
ATOM     15 CL   UNL     1      -0.323  17.634  18.817  0.00  0.00    +0.000 Cl
ATOM     16  C   UNL     1       1.683  15.841  18.667  0.00  0.00    +0.000 A 
ATOM     17  C   UNL     1       2.211  14.544  18.613  0.00  0.00    +0.000 A 
ATOM     18 CL   UNL     1       3.928  14.456  18.473  0.00  0.00    +0.000 Cl
ENDBRANCH   8  11
ENDBRANCH   1   9
BRANCH   6  19
ATOM     19  C   UNL     1       0.749   9.504  21.796  0.00  0.00    +0.000 C 
ATOM     20  O   UNL     1       1.307   9.492  22.874  0.00  0.00    +0.000 OA
BRANCH  19  21
ATOM     21  O   UNL     1      -0.499  10.006  21.631  0.00  0.00    +0.000 OA
ATOM     22  H   UNL     1      -0.687  10.833  22.109  0.00  0.00    +0.000 HD
ENDBRANCH  19  21
ENDBRANCH   6  19
BRANCH   4  23
ATOM     23  O   UNL     1       2.506   5.657  19.289  0.00  0.00    +0.000 OA
BRANCH  23  24
ATOM     24  C   UNL     1       3.738   5.368  18.711  0.00  0.00    +0.000 A 
ATOM     25  C   UNL     1       3.732   4.856  17.422  0.00  0.00    +0.000 A 
ATOM     26  C   UNL     1       4.958   4.557  16.822  0.00  0.00    +0.000 A 
ATOM     27  C   UNL     1       6.137   4.786  17.539  0.00  0.00    +0.000 A 
ATOM     28  C   UNL     1       6.053   5.304  18.820  0.00  0.00    +0.000 A 
ATOM     29  N   UNL     1       4.873   5.583  19.421  0.00  0.00    +0.000 NA
BRANCH  27  30
ATOM     30  N   UNL     1       7.442   4.483  16.974  0.00  0.00    +0.000 N 
ATOM     31  O   UNL     1       7.578   4.618  15.749  0.00  0.00    +0.000 OA
ATOM     32  O   UNL     1       8.335   4.110  17.747  0.00  0.00    +0.000 OA
ENDBRANCH  27  30
ENDBRANCH  23  24
ENDBRANCH   4  23
TORSDOF 7
ENDMDL
MODEL 8
REMARK VINA RESULT:      -7.7      2.544      3.764
REMARK  Name = 
REMARK  7 active torsions:
REMARK  status: ('A' for Active; 'I' for Inactive)
REMARK    1  A    between atoms: C_2  and  C_23
REMARK    2  A    between atoms: N_3  and  C_4
REMARK    3  A    between atoms: C_7  and  O_8
REMARK    4  A    between atoms: O_8  and  C_9
REMARK    5  A    between atoms: C_12  and  N_13
REMARK    6  A    between atoms: C_19  and  C_20
REMARK    7  A    between atoms: C_20  and  O_22
REMARK                            x       y       z     vdW  Elec       q    Type
REMARK                         _______ _______ _______ _____ _____    ______ ____
ROOT
ATOM      1  C   UNL     1       2.551   7.455  18.567  0.00  0.00    +0.000 A 
ATOM      2  C   UNL     1       3.366   7.799  17.475  0.00  0.00    +0.000 A 
ATOM      3  C   UNL     1       4.524   7.067  17.186  0.00  0.00    +0.000 A 
ATOM      4  C   UNL     1       4.867   5.970  17.974  0.00  0.00    +0.000 A 
ATOM      5  C   UNL     1       4.074   5.639  19.075  0.00  0.00    +0.000 A 
ATOM      6  C   UNL     1       2.917   6.367  19.376  0.00  0.00    +0.000 A 
ENDROOT
BRANCH   1   9
ATOM      7  O   UNL     1       2.015  10.047  17.555  0.00  0.00    +0.000 OA
ATOM      8  C   UNL     1       1.230   9.508  18.335  0.00  0.00    +0.000 C 
ATOM      9  N   UNL     1       1.418   8.247  18.871  0.00  0.00    +0.000 N 
ATOM     10  H   UNL     1       0.562   7.745  19.100  0.00  0.00    +0.000 HD
BRANCH   8  11
ATOM     11  C   UNL     1       0.004  10.263  18.745  0.00  0.00    +0.000 A 
ATOM     12  C   UNL     1      -1.097  10.147  17.873  0.00  0.00    +0.000 A 
ATOM     13  C   UNL     1      -2.287  10.840  18.113  0.00  0.00    +0.000 A 
ATOM     14  C   UNL     1      -2.399  11.646  19.239  0.00  0.00    +0.000 A 
ATOM     15 CL   UNL     1      -3.845  12.519  19.537  0.00  0.00    +0.000 Cl
ATOM     16  C   UNL     1      -1.331  11.753  20.131  0.00  0.00    +0.000 A 
ATOM     17  C   UNL     1      -0.132  11.069  19.886  0.00  0.00    +0.000 A 
ATOM     18 CL   UNL     1       1.094  11.288  21.080  0.00  0.00    +0.000 Cl
ENDBRANCH   8  11
ENDBRANCH   1   9
BRANCH   6  19
ATOM     19  C   UNL     1       2.013   5.856  20.438  0.00  0.00    +0.000 C 
ATOM     20  O   UNL     1       1.669   4.694  20.528  0.00  0.00    +0.000 OA
BRANCH  19  21
ATOM     21  O   UNL     1       1.573   6.810  21.294  0.00  0.00    +0.000 OA
ATOM     22  H   UNL     1       2.124   6.956  22.082  0.00  0.00    +0.000 HD
ENDBRANCH  19  21
ENDBRANCH   6  19
BRANCH   4  23
ATOM     23  O   UNL     1       6.020   5.289  17.648  0.00  0.00    +0.000 OA
BRANCH  23  24
ATOM     24  C   UNL     1       6.196   4.906  16.322  0.00  0.00    +0.000 A 
ATOM     25  C   UNL     1       5.277   4.014  15.790  0.00  0.00    +0.000 A 
ATOM     26  C   UNL     1       5.435   3.614  14.460  0.00  0.00    +0.000 A 
ATOM     27  C   UNL     1       6.505   4.129  13.721  0.00  0.00    +0.000 A 
ATOM     28  C   UNL     1       7.373   5.019  14.328  0.00  0.00    +0.000 A 
ATOM     29  N   UNL     1       7.244   5.403  15.619  0.00  0.00    +0.000 NA
BRANCH  27  30
ATOM     30  N   UNL     1       6.728   3.741  12.337  0.00  0.00    +0.000 N 
ATOM     31  O   UNL     1       7.467   4.467  11.654  0.00  0.00    +0.000 OA
ATOM     32  O   UNL     1       6.170   2.715  11.926  0.00  0.00    +0.000 OA
ENDBRANCH  27  30
ENDBRANCH  23  24
ENDBRANCH   4  23
TORSDOF 7
ENDMDL
MODEL 9
REMARK VINA RESULT:      -7.7      3.006      4.347
REMARK  Name = 
REMARK  7 active torsions:
REMARK  status: ('A' for Active; 'I' for Inactive)
REMARK    1  A    between atoms: C_2  and  C_23
REMARK    2  A    between atoms: N_3  and  C_4
REMARK    3  A    between atoms: C_7  and  O_8
REMARK    4  A    between atoms: O_8  and  C_9
REMARK    5  A    between atoms: C_12  and  N_13
REMARK    6  A    between atoms: C_19  and  C_20
REMARK    7  A    between atoms: C_20  and  O_22
REMARK                            x       y       z     vdW  Elec       q    Type
REMARK                         _______ _______ _______ _____ _____    ______ ____
ROOT
ATOM      1  C   UNL     1       2.584   5.903  19.366  0.00  0.00    +0.000 A 
ATOM      2  C   UNL     1       3.303   6.304  18.227  0.00  0.00    +0.000 A 
ATOM      3  C   UNL     1       4.118   5.397  17.538  0.00  0.00    +0.000 A 
ATOM      4  C   UNL     1       4.207   4.076  17.970  0.00  0.00    +0.000 A 
ATOM      5  C   UNL     1       3.515   3.679  19.116  0.00  0.00    +0.000 A 
ATOM      6  C   UNL     1       2.700   4.578  19.815  0.00  0.00    +0.000 A 
ENDROOT
BRANCH   1   9
ATOM      7  O   UNL     1       2.172   8.605  18.616  0.00  0.00    +0.000 OA
ATOM      8  C   UNL     1       1.662   8.158  19.644  0.00  0.00    +0.000 C 
ATOM      9  N   UNL     1       1.813   6.853  20.077  0.00  0.00    +0.000 N 
ATOM     10  H   UNL     1       1.035   6.488  20.622  0.00  0.00    +0.000 HD
BRANCH   8  11
ATOM     11  C   UNL     1       0.840   9.081  20.489  0.00  0.00    +0.000 A 
ATOM     12  C   UNL     1       0.979   8.910  21.881  0.00  0.00    +0.000 A 
ATOM     13  C   UNL     1       0.232   9.673  22.783  0.00  0.00    +0.000 A 
ATOM     14  C   UNL     1      -0.654  10.631  22.305  0.00  0.00    +0.000 A 
ATOM     15 CL   UNL     1      -1.594  11.562  23.397  0.00  0.00    +0.000 Cl
ATOM     16  C   UNL     1      -0.787  10.836  20.931  0.00  0.00    +0.000 A 
ATOM     17  C   UNL     1      -0.047  10.064  20.024  0.00  0.00    +0.000 A 
ATOM     18 CL   UNL     1      -0.308  10.437  18.360  0.00  0.00    +0.000 Cl
ENDBRANCH   8  11
ENDBRANCH   1   9
BRANCH   6  19
ATOM     19  C   UNL     1       1.841   4.054  20.908  0.00  0.00    +0.000 C 
ATOM     20  O   UNL     1       2.268   3.704  21.990  0.00  0.00    +0.000 OA
BRANCH  19  21
ATOM     21  O   UNL     1       0.527   3.973  20.586  0.00  0.00    +0.000 OA
ATOM     22  H   UNL     1      -0.097   4.142  21.314  0.00  0.00    +0.000 HD
ENDBRANCH  19  21
ENDBRANCH   6  19
BRANCH   4  23
ATOM     23  O   UNL     1       5.029   3.229  17.258  0.00  0.00    +0.000 OA
BRANCH  23  24
ATOM     24  C   UNL     1       5.738   3.760  16.187  0.00  0.00    +0.000 A 
ATOM     25  C   UNL     1       5.252   3.505  14.912  0.00  0.00    +0.000 A 
ATOM     26  C   UNL     1       5.950   4.028  13.820  0.00  0.00    +0.000 A 
ATOM     27  C   UNL     1       7.101   4.787  14.052  0.00  0.00    +0.000 A 
ATOM     28  C   UNL     1       7.514   4.999  15.356  0.00  0.00    +0.000 A 
ATOM     29  N   UNL     1       6.860   4.485  16.423  0.00  0.00    +0.000 NA
BRANCH  27  30
ATOM     30  N   UNL     1       7.876   5.348  12.956  0.00  0.00    +0.000 N 
ATOM     31  O   UNL     1       8.835   6.076  13.251  0.00  0.00    +0.000 OA
ATOM     32  O   UNL     1       7.532   5.066  11.801  0.00  0.00    +0.000 OA
ENDBRANCH  27  30
ENDBRANCH  23  24
ENDBRANCH   4  23
TORSDOF 7
ENDMDL
