MODEL 1
REMARK VINA RESULT:      -7.8      0.000      0.000
REMARK  Name = 
REMARK  9 active torsions:
REMARK  status: ('A' for Active; 'I' for Inactive)
REMARK    1  A    between atoms: C_1  and  C_2
REMARK    2  A    between atoms: C_2  and  C_3
REMARK    3  A    between atoms: C_7  and  O_8
REMARK    4  A    between atoms: O_8  and  C_9
REMARK    5  A    between atoms: C_9  and  C_10
REMARK    6  A    between atoms: N_12  and  C_13
REMARK    7  A    between atoms: N_12  and  C_14
REMARK    8  A    between atoms: C_14  and  C_15
REMARK    9  A    between atoms: N_17  and  C_18
REMARK                            x       y       z     vdW  Elec       q    Type
REMARK                         _______ _______ _______ _____ _____    ______ ____
ROOT
ATOM      1  C   UNL     1       7.624   7.220  17.762  0.00  0.00    +0.000 C 
ATOM      2  O   UNL     1       7.072   7.439  16.679  0.00  0.00    +0.000 OA
ATOM      3  N   UNL     1       7.408   6.034  18.454  0.00  0.00    +0.000 N 
ATOM      4  C   UNL     1       8.064   5.665  19.703  0.00  0.00    +0.000 C 
ENDROOT
BRANCH   1   5
ATOM      5  C   UNL     1       8.520   8.294  18.391  0.00  0.00    +0.000 C 
BRANCH   5   6
ATOM      6  O   UNL     1       8.175   9.601  17.948  0.00  0.00    +0.000 OA
BRANCH   6  11
ATOM      7  C   UNL     1       9.841  12.896  18.480  0.00  0.00    +0.000 A 
ATOM      8  C   UNL     1      10.414  12.642  19.733  0.00  0.00    +0.000 A 
ATOM      9  C   UNL     1      10.241  11.399  20.345  0.00  0.00    +0.000 A 
ATOM     10  C   UNL     1       9.495  10.402  19.712  0.00  0.00    +0.000 A 
ATOM     11  C   UNL     1       8.919  10.635  18.458  0.00  0.00    +0.000 A 
ATOM     12  C   UNL     1       9.108  11.878  17.847  0.00  0.00    +0.000 A 
BRANCH   7  14
ATOM     13  C   UNL     1      10.387  15.330  18.814  0.00  0.00    +0.000 C 
ATOM     14  C   UNL     1      10.006  14.242  17.820  0.00  0.00    +0.000 C 
ENDBRANCH   7  14
ENDBRANCH   6  11
ENDBRANCH   5   6
ENDBRANCH   1   5
BRANCH   3  15
ATOM     15  C   UNL     1       6.608   4.979  17.816  0.00  0.00    +0.000 C 
BRANCH  15  16
ATOM     16  C   UNL     1       5.190   4.828  18.378  0.00  0.00    +0.000 C 
ATOM     17  O   UNL     1       4.628   5.780  18.919  0.00  0.00    +0.000 OA
ATOM     18  N   UNL     1       4.700   3.531  18.363  0.00  0.00    +0.000 N 
ATOM     19  H   UNL     1       5.396   2.797  18.298  0.00  0.00    +0.000 HD
BRANCH  18  20
ATOM     20  C   UNL     1       3.414   3.185  18.832  0.00  0.00    +0.000 A 
ATOM     21  C   UNL     1       2.311   3.100  17.971  0.00  0.00    +0.000 A 
ATOM     22  C   UNL     1       1.045   2.771  18.465  0.00  0.00    +0.000 A 
ATOM     23  C   UNL     1       0.870   2.550  19.827  0.00  0.00    +0.000 A 
ATOM     24  C   UNL     1       1.969   2.628  20.676  0.00  0.00    +0.000 A 
ATOM     25  F   UNL     1       1.796   2.445  21.991  0.00  0.00    +0.000 F 
ATOM     26  C   UNL     1       3.244   2.915  20.189  0.00  0.00    +0.000 A 
ENDBRANCH  18  20
ENDBRANCH  15  16
ENDBRANCH   3  15
TORSDOF 7
ENDMDL
MODEL 2
REMARK VINA RESULT:      -7.8      1.356      1.613
REMARK  Name = 
REMARK  9 active torsions:
REMARK  status: ('A' for Active; 'I' for Inactive)
REMARK    1  A    between atoms: C_1  and  C_2
REMARK    2  A    between atoms: C_2  and  C_3
REMARK    3  A    between atoms: C_7  and  O_8
REMARK    4  A    between atoms: O_8  and  C_9
REMARK    5  A    between atoms: C_9  and  C_10
REMARK    6  A    between atoms: N_12  and  C_13
REMARK    7  A    between atoms: N_12  and  C_14
REMARK    8  A    between atoms: C_14  and  C_15
REMARK    9  A    between atoms: N_17  and  C_18
REMARK                            x       y       z     vdW  Elec       q    Type
REMARK                         _______ _______ _______ _____ _____    ______ ____
ROOT
ATOM      1  C   UNL     1       7.497   7.687  17.769  0.00  0.00    +0.000 C 
ATOM      2  O   UNL     1       6.999   8.200  16.762  0.00  0.00    +0.000 OA
ATOM      3  N   UNL     1       7.141   6.406  18.175  0.00  0.00    +0.000 N 
ATOM      4  C   UNL     1       7.723   5.700  19.311  0.00  0.00    +0.000 C 
ENDROOT
BRANCH   1   5
ATOM      5  C   UNL     1       8.481   8.492  18.626  0.00  0.00    +0.000 C 
BRANCH   5   6
ATOM      6  O   UNL     1       8.279   9.894  18.493  0.00  0.00    +0.000 OA
BRANCH   6  11
ATOM      7  C   UNL     1      11.202  12.203  18.305  0.00  0.00    +0.000 A 
ATOM      8  C   UNL     1      11.429  12.369  19.678  0.00  0.00    +0.000 A 
ATOM      9  C   UNL     1      10.622  11.708  20.607  0.00  0.00    +0.000 A 
ATOM     10  C   UNL     1       9.586  10.879  20.172  0.00  0.00    +0.000 A 
ATOM     11  C   UNL     1       9.347  10.696  18.806  0.00  0.00    +0.000 A 
ATOM     12  C   UNL     1      10.167  11.353  17.882  0.00  0.00    +0.000 A 
BRANCH   7  14
ATOM     13  C   UNL     1      11.686  14.401  17.178  0.00  0.00    +0.000 C 
ATOM     14  C   UNL     1      12.055  12.929  17.294  0.00  0.00    +0.000 C 
ENDBRANCH   7  14
ENDBRANCH   6  11
ENDBRANCH   5   6
ENDBRANCH   1   5
BRANCH   3  15
ATOM     15  C   UNL     1       6.255   5.611  17.314  0.00  0.00    +0.000 C 
BRANCH  15  16
ATOM     16  C   UNL     1       4.814   5.492  17.821  0.00  0.00    +0.000 C 
ATOM     17  O   UNL     1       3.998   6.387  17.602  0.00  0.00    +0.000 OA
ATOM     18  N   UNL     1       4.585   4.407  18.655  0.00  0.00    +0.000 N 
ATOM     19  H   UNL     1       5.406   4.006  19.094  0.00  0.00    +0.000 HD
BRANCH  18  20
ATOM     20  C   UNL     1       3.324   4.120  19.221  0.00  0.00    +0.000 A 
ATOM     21  C   UNL     1       2.906   4.699  20.428  0.00  0.00    +0.000 A 
ATOM     22  C   UNL     1       1.658   4.385  20.974  0.00  0.00    +0.000 A 
ATOM     23  C   UNL     1       0.830   3.471  20.329  0.00  0.00    +0.000 A 
ATOM     24  C   UNL     1       1.247   2.906  19.127  0.00  0.00    +0.000 A 
ATOM     25  F   UNL     1       0.464   2.005  18.522  0.00  0.00    +0.000 F 
ATOM     26  C   UNL     1       2.471   3.243  18.552  0.00  0.00    +0.000 A 
ENDBRANCH  18  20
ENDBRANCH  15  16
ENDBRANCH   3  15
TORSDOF 7
ENDMDL
MODEL 3
REMARK VINA RESULT:      -7.6      1.611      2.273
REMARK  Name = 
REMARK  9 active torsions:
REMARK  status: ('A' for Active; 'I' for Inactive)
REMARK    1  A    between atoms: C_1  and  C_2
REMARK    2  A    between atoms: C_2  and  C_3
REMARK    3  A    between atoms: C_7  and  O_8
REMARK    4  A    between atoms: O_8  and  C_9
REMARK    5  A    between atoms: C_9  and  C_10
REMARK    6  A    between atoms: N_12  and  C_13
REMARK    7  A    between atoms: N_12  and  C_14
REMARK    8  A    between atoms: C_14  and  C_15
REMARK    9  A    between atoms: N_17  and  C_18
REMARK                            x       y       z     vdW  Elec       q    Type
REMARK                         _______ _______ _______ _____ _____    ______ ____
ROOT
ATOM      1  C   UNL     1       7.609   6.729  18.086  0.00  0.00    +0.000 C 
ATOM      2  O   UNL     1       8.236   6.092  18.939  0.00  0.00    +0.000 OA
ATOM      3  N   UNL     1       6.759   6.091  17.190  0.00  0.00    +0.000 N 
ATOM      4  C   UNL     1       5.934   6.768  16.196  0.00  0.00    +0.000 C 
ENDROOT
BRANCH   1   5
ATOM      5  C   UNL     1       7.811   8.245  17.969  0.00  0.00    +0.000 C 
BRANCH   5   6
ATOM      6  O   UNL     1       8.889   8.702  18.775  0.00  0.00    +0.000 OA
BRANCH   6  11
ATOM      7  C   UNL     1       9.545  12.114  20.135  0.00  0.00    +0.000 A 
ATOM      8  C   UNL     1       9.256  12.858  18.983  0.00  0.00    +0.000 A 
ATOM      9  C   UNL     1       8.848  12.213  17.814  0.00  0.00    +0.000 A 
ATOM     10  C   UNL     1       8.725  10.822  17.786  0.00  0.00    +0.000 A 
ATOM     11  C   UNL     1       9.003  10.061  18.928  0.00  0.00    +0.000 A 
ATOM     12  C   UNL     1       9.400  10.717  20.097  0.00  0.00    +0.000 A 
BRANCH   7  14
ATOM     13  C   UNL     1      10.064  14.313  21.242  0.00  0.00    +0.000 C 
ATOM     14  C   UNL     1      10.007  12.800  21.396  0.00  0.00    +0.000 C 
ENDBRANCH   7  14
ENDBRANCH   6  11
ENDBRANCH   5   6
ENDBRANCH   1   5
BRANCH   3  15
ATOM     15  C   UNL     1       6.513   4.651  17.352  0.00  0.00    +0.000 C 
BRANCH  15  16
ATOM     16  C   UNL     1       5.406   4.304  18.354  0.00  0.00    +0.000 C 
ATOM     17  O   UNL     1       5.676   3.731  19.409  0.00  0.00    +0.000 OA
ATOM     18  N   UNL     1       4.119   4.540  17.894  0.00  0.00    +0.000 N 
ATOM     19  H   UNL     1       4.013   4.600  16.888  0.00  0.00    +0.000 HD
BRANCH  18  20
ATOM     20  C   UNL     1       2.965   4.291  18.668  0.00  0.00    +0.000 A 
ATOM     21  C   UNL     1       2.694   5.004  19.845  0.00  0.00    +0.000 A 
ATOM     22  C   UNL     1       1.551   4.725  20.600  0.00  0.00    +0.000 A 
ATOM     23  C   UNL     1       0.684   3.715  20.196  0.00  0.00    +0.000 A 
ATOM     24  C   UNL     1       0.954   3.015  19.024  0.00  0.00    +0.000 A 
ATOM     25  F   UNL     1       0.136   2.023  18.651  0.00  0.00    +0.000 F 
ATOM     26  C   UNL     1       2.068   3.312  18.241  0.00  0.00    +0.000 A 
ENDBRANCH  18  20
ENDBRANCH  15  16
ENDBRANCH   3  15
TORSDOF 7
ENDMDL
MODEL 4
REMARK VINA RESULT:      -7.6      1.440      1.687
REMARK  Name = 
REMARK  9 active torsions:
REMARK  status: ('A' for Active; 'I' for Inactive)
REMARK    1  A    between atoms: C_1  and  C_2
REMARK    2  A    between atoms: C_2  and  C_3
REMARK    3  A    between atoms: C_7  and  O_8
REMARK    4  A    between atoms: O_8  and  C_9
REMARK    5  A    between atoms: C_9  and  C_10
REMARK    6  A    between atoms: N_12  and  C_13
REMARK    7  A    between atoms: N_12  and  C_14
REMARK    8  A    between atoms: C_14  and  C_15
REMARK    9  A    between atoms: N_17  and  C_18
REMARK                            x       y       z     vdW  Elec       q    Type
REMARK                         _______ _______ _______ _____ _____    ______ ____
ROOT
ATOM      1  C   UNL     1       7.608   7.416  17.853  0.00  0.00    +0.000 C 
ATOM      2  O   UNL     1       7.031   7.692  16.797  0.00  0.00    +0.000 OA
ATOM      3  N   UNL     1       7.443   6.178  18.463  0.00  0.00    +0.000 N 
ATOM      4  C   UNL     1       8.133   5.745  19.673  0.00  0.00    +0.000 C 
ENDROOT
BRANCH   1   5
ATOM      5  C   UNL     1       8.477   8.474  18.544  0.00  0.00    +0.000 C 
BRANCH   5   6
ATOM      6  O   UNL     1       8.684   9.614  17.719  0.00  0.00    +0.000 OA
BRANCH   6  11
ATOM      7  C   UNL     1       8.997  13.200  18.699  0.00  0.00    +0.000 A 
ATOM      8  C   UNL     1       9.714  13.031  19.891  0.00  0.00    +0.000 A 
ATOM      9  C   UNL     1      10.075  11.750  20.317  0.00  0.00    +0.000 A 
ATOM     10  C   UNL     1       9.723  10.633  19.558  0.00  0.00    +0.000 A 
ATOM     11  C   UNL     1       9.012  10.781  18.362  0.00  0.00    +0.000 A 
ATOM     12  C   UNL     1       8.665  12.068  17.936  0.00  0.00    +0.000 A 
BRANCH   7  14
ATOM     13  C   UNL     1       7.182  14.594  17.653  0.00  0.00    +0.000 C 
ATOM     14  C   UNL     1       8.585  14.577  18.241  0.00  0.00    +0.000 C 
ENDBRANCH   7  14
ENDBRANCH   6  11
ENDBRANCH   5   6
ENDBRANCH   1   5
BRANCH   3  15
ATOM     15  C   UNL     1       6.669   5.143  17.763  0.00  0.00    +0.000 C 
BRANCH  15  16
ATOM     16  C   UNL     1       5.512   4.554  18.578  0.00  0.00    +0.000 C 
ATOM     17  O   UNL     1       5.702   3.604  19.337  0.00  0.00    +0.000 OA
ATOM     18  N   UNL     1       4.264   5.068  18.259  0.00  0.00    +0.000 N 
ATOM     19  H   UNL     1       4.187   5.511  17.351  0.00  0.00    +0.000 HD
BRANCH  18  20
ATOM     20  C   UNL     1       3.074   4.660  18.900  0.00  0.00    +0.000 A 
ATOM     21  C   UNL     1       2.622   5.269  20.079  0.00  0.00    +0.000 A 
ATOM     22  C   UNL     1       1.447   4.834  20.700  0.00  0.00    +0.000 A 
ATOM     23  C   UNL     1       0.732   3.770  20.160  0.00  0.00    +0.000 A 
ATOM     24  C   UNL     1       1.181   3.174  18.986  0.00  0.00    +0.000 A 
ATOM     25  F   UNL     1       0.509   2.132  18.482  0.00  0.00    +0.000 F 
ATOM     26  C   UNL     1       2.327   3.627  18.335  0.00  0.00    +0.000 A 
ENDBRANCH  18  20
ENDBRANCH  15  16
ENDBRANCH   3  15
TORSDOF 7
ENDMDL
MODEL 5
REMARK VINA RESULT:      -7.4      4.691      7.808
REMARK  Name = 
REMARK  9 active torsions:
REMARK  status: ('A' for Active; 'I' for Inactive)
REMARK    1  A    between atoms: C_1  and  C_2
REMARK    2  A    between atoms: C_2  and  C_3
REMARK    3  A    between atoms: C_7  and  O_8
REMARK    4  A    between atoms: O_8  and  C_9
REMARK    5  A    between atoms: C_9  and  C_10
REMARK    6  A    between atoms: N_12  and  C_13
REMARK    7  A    between atoms: N_12  and  C_14
REMARK    8  A    between atoms: C_14  and  C_15
REMARK    9  A    between atoms: N_17  and  C_18
REMARK                            x       y       z     vdW  Elec       q    Type
REMARK                         _______ _______ _______ _____ _____    ______ ____
ROOT
ATOM      1  C   UNL     1       6.366   5.386  15.477  0.00  0.00    +0.000 C 
ATOM      2  O   UNL     1       5.479   6.073  14.962  0.00  0.00    +0.000 OA
ATOM      3  N   UNL     1       6.633   5.456  16.840  0.00  0.00    +0.000 N 
ATOM      4  C   UNL     1       7.615   4.638  17.542  0.00  0.00    +0.000 C 
ENDROOT
BRANCH   1   5
ATOM      5  C   UNL     1       7.235   4.479  14.597  0.00  0.00    +0.000 C 
BRANCH   5   6
ATOM      6  O   UNL     1       7.076   4.770  13.214  0.00  0.00    +0.000 OA
BRANCH   6  11
ATOM      7  C   UNL     1       4.483   2.952  11.242  0.00  0.00    +0.000 A 
ATOM      8  C   UNL     1       5.248   1.841  10.863  0.00  0.00    +0.000 A 
ATOM      9  C   UNL     1       6.576   1.728  11.278  0.00  0.00    +0.000 A 
ATOM     10  C   UNL     1       7.150   2.722  12.074  0.00  0.00    +0.000 A 
ATOM     11  C   UNL     1       6.400   3.837  12.468  0.00  0.00    +0.000 A 
ATOM     12  C   UNL     1       5.067   3.935  12.057  0.00  0.00    +0.000 A 
BRANCH   7  14
ATOM     13  C   UNL     1       2.918   4.038   9.598  0.00  0.00    +0.000 C 
ATOM     14  C   UNL     1       3.053   3.092  10.782  0.00  0.00    +0.000 C 
ENDBRANCH   7  14
ENDBRANCH   6  11
ENDBRANCH   5   6
ENDBRANCH   1   5
BRANCH   3  15
ATOM     15  C   UNL     1       5.753   6.270  17.691  0.00  0.00    +0.000 C 
BRANCH  15  16
ATOM     16  C   UNL     1       4.870   5.462  18.648  0.00  0.00    +0.000 C 
ATOM     17  O   UNL     1       5.271   5.172  19.775  0.00  0.00    +0.000 OA
ATOM     18  N   UNL     1       3.703   4.972  18.080  0.00  0.00    +0.000 N 
ATOM     19  H   UNL     1       3.696   4.910  17.068  0.00  0.00    +0.000 HD
BRANCH  18  20
ATOM     20  C   UNL     1       2.755   4.209  18.796  0.00  0.00    +0.000 A 
ATOM     21  C   UNL     1       1.752   3.476  18.147  0.00  0.00    +0.000 A 
ATOM     22  C   UNL     1       0.817   2.741  18.883  0.00  0.00    +0.000 A 
ATOM     23  C   UNL     1       0.865   2.756  20.274  0.00  0.00    +0.000 A 
ATOM     24  C   UNL     1       1.867   3.480  20.912  0.00  0.00    +0.000 A 
ATOM     25  F   UNL     1       1.896   3.518  22.250  0.00  0.00    +0.000 F 
ATOM     26  C   UNL     1       2.830   4.182  20.188  0.00  0.00    +0.000 A 
ENDBRANCH  18  20
ENDBRANCH  15  16
ENDBRANCH   3  15
TORSDOF 7
ENDMDL
MODEL 6
REMARK VINA RESULT:      -7.4      5.791      7.965
REMARK  Name = 
REMARK  9 active torsions:
REMARK  status: ('A' for Active; 'I' for Inactive)
REMARK    1  A    between atoms: C_1  and  C_2
REMARK    2  A    between atoms: C_2  and  C_3
REMARK    3  A    between atoms: C_7  and  O_8
REMARK    4  A    between atoms: O_8  and  C_9
REMARK    5  A    between atoms: C_9  and  C_10
REMARK    6  A    between atoms: N_12  and  C_13
REMARK    7  A    between atoms: N_12  and  C_14
REMARK    8  A    between atoms: C_14  and  C_15
REMARK    9  A    between atoms: N_17  and  C_18
REMARK                            x       y       z     vdW  Elec       q    Type
REMARK                         _______ _______ _______ _____ _____    ______ ____
ROOT
ATOM      1  C   UNL     1       4.692   4.919  17.828  0.00  0.00    +0.000 C 
ATOM      2  O   UNL     1       5.576   5.466  18.494  0.00  0.00    +0.000 OA
ATOM      3  N   UNL     1       3.556   4.393  18.433  0.00  0.00    +0.000 N 
ATOM      4  C   UNL     1       2.436   3.788  17.721  0.00  0.00    +0.000 C 
ENDROOT
BRANCH   1   5
ATOM      5  C   UNL     1       4.868   4.760  16.313  0.00  0.00    +0.000 C 
BRANCH   5   6
ATOM      6  O   UNL     1       6.235   4.835  15.926  0.00  0.00    +0.000 OA
BRANCH   6  11
ATOM      7  C   UNL     1       6.166   3.465  12.457  0.00  0.00    +0.000 A 
ATOM      8  C   UNL     1       7.189   4.246  11.902  0.00  0.00    +0.000 A 
ATOM      9  C   UNL     1       7.866   5.179  12.690  0.00  0.00    +0.000 A 
ATOM     10  C   UNL     1       7.526   5.339  14.035  0.00  0.00    +0.000 A 
ATOM     11  C   UNL     1       6.512   4.566  14.609  0.00  0.00    +0.000 A 
ATOM     12  C   UNL     1       5.847   3.625  13.816  0.00  0.00    +0.000 A 
BRANCH   7  14
ATOM     13  C   UNL     1       6.296   1.312  11.161  0.00  0.00    +0.000 C 
ATOM     14  C   UNL     1       5.415   2.469  11.608  0.00  0.00    +0.000 C 
ENDBRANCH   7  14
ENDBRANCH   6  11
ENDBRANCH   5   6
ENDBRANCH   1   5
BRANCH   3  15
ATOM     15  C   UNL     1       3.356   4.611  19.873  0.00  0.00    +0.000 C 
BRANCH  15  16
ATOM     16  C   UNL     1       2.259   5.625  20.215  0.00  0.00    +0.000 C 
ATOM     17  O   UNL     1       1.127   5.244  20.512  0.00  0.00    +0.000 OA
ATOM     18  N   UNL     1       2.612   6.949  20.003  0.00  0.00    +0.000 N 
ATOM     19  H   UNL     1       3.387   7.103  19.369  0.00  0.00    +0.000 HD
BRANCH  18  20
ATOM     20  C   UNL     1       1.744   8.031  20.263  0.00  0.00    +0.000 A 
ATOM     21  C   UNL     1       1.290   8.878  19.241  0.00  0.00    +0.000 A 
ATOM     22  C   UNL     1       0.442   9.952  19.530  0.00  0.00    +0.000 A 
ATOM     23  C   UNL     1       0.063  10.200  20.845  0.00  0.00    +0.000 A 
ATOM     24  C   UNL     1       0.510   9.352  21.854  0.00  0.00    +0.000 A 
ATOM     25  F   UNL     1       0.170   9.609  23.123  0.00  0.00    +0.000 F 
ATOM     26  C   UNL     1       1.322   8.254  21.573  0.00  0.00    +0.000 A 
ENDBRANCH  18  20
ENDBRANCH  15  16
ENDBRANCH   3  15
TORSDOF 7
ENDMDL
MODEL 7
REMARK VINA RESULT:      -7.3      4.575      8.140
REMARK  Name = 
REMARK  9 active torsions:
REMARK  status: ('A' for Active; 'I' for Inactive)
REMARK    1  A    between atoms: C_1  and  C_2
REMARK    2  A    between atoms: C_2  and  C_3
REMARK    3  A    between atoms: C_7  and  O_8
REMARK    4  A    between atoms: O_8  and  C_9
REMARK    5  A    between atoms: C_9  and  C_10
REMARK    6  A    between atoms: N_12  and  C_13
REMARK    7  A    between atoms: N_12  and  C_14
REMARK    8  A    between atoms: C_14  and  C_15
REMARK    9  A    between atoms: N_17  and  C_18
REMARK                            x       y       z     vdW  Elec       q    Type
REMARK                         _______ _______ _______ _____ _____    ______ ____
ROOT
ATOM      1  C   UNL     1       6.273   5.440  15.658  0.00  0.00    +0.000 C 
ATOM      2  O   UNL     1       5.450   6.194  15.129  0.00  0.00    +0.000 OA
ATOM      3  N   UNL     1       6.618   5.577  16.997  0.00  0.00    +0.000 N 
ATOM      4  C   UNL     1       7.529   4.695  17.718  0.00  0.00    +0.000 C 
ENDROOT
BRANCH   1   5
ATOM      5  C   UNL     1       6.975   4.370  14.815  0.00  0.00    +0.000 C 
BRANCH   5   6
ATOM      6  O   UNL     1       6.943   4.679  13.427  0.00  0.00    +0.000 OA
BRANCH   6  11
ATOM      7  C   UNL     1       6.010   1.740  11.328  0.00  0.00    +0.000 A 
ATOM      8  C   UNL     1       4.678   2.086  11.061  0.00  0.00    +0.000 A 
ATOM      9  C   UNL     1       4.146   3.273  11.570  0.00  0.00    +0.000 A 
ATOM     10  C   UNL     1       4.938   4.120  12.347  0.00  0.00    +0.000 A 
ATOM     11  C   UNL     1       6.271   3.795  12.620  0.00  0.00    +0.000 A 
ATOM     12  C   UNL     1       6.799   2.611  12.096  0.00  0.00    +0.000 A 
BRANCH   7  14
ATOM     13  C   UNL     1       5.899  -0.773  11.385  0.00  0.00    +0.000 C 
ATOM     14  C   UNL     1       6.587   0.451  10.799  0.00  0.00    +0.000 C 
ENDBRANCH   7  14
ENDBRANCH   6  11
ENDBRANCH   5   6
ENDBRANCH   1   5
BRANCH   3  15
ATOM     15  C   UNL     1       5.891   6.554  17.819  0.00  0.00    +0.000 C 
BRANCH  15  16
ATOM     16  C   UNL     1       4.473   6.126  18.210  0.00  0.00    +0.000 C 
ATOM     17  O   UNL     1       3.521   6.889  18.042  0.00  0.00    +0.000 OA
ATOM     18  N   UNL     1       4.402   4.921  18.893  0.00  0.00    +0.000 N 
ATOM     19  H   UNL     1       5.260   4.614  19.336  0.00  0.00    +0.000 HD
BRANCH  18  20
ATOM     20  C   UNL     1       3.188   4.353  19.334  0.00  0.00    +0.000 A 
ATOM     21  C   UNL     1       2.608   4.706  20.561  0.00  0.00    +0.000 A 
ATOM     22  C   UNL     1       1.412   4.116  20.980  0.00  0.00    +0.000 A 
ATOM     23  C   UNL     1       0.801   3.150  20.186  0.00  0.00    +0.000 A 
ATOM     24  C   UNL     1       1.377   2.809  18.967  0.00  0.00    +0.000 A 
ATOM     25  F   UNL     1       0.806   1.858  18.216  0.00  0.00    +0.000 F 
ATOM     26  C   UNL     1       2.547   3.421  18.519  0.00  0.00    +0.000 A 
ENDBRANCH  18  20
ENDBRANCH  15  16
ENDBRANCH   3  15
TORSDOF 7
ENDMDL
MODEL 8
REMARK VINA RESULT:      -7.2      4.462      7.995
REMARK  Name = 
REMARK  9 active torsions:
REMARK  status: ('A' for Active; 'I' for Inactive)
REMARK    1  A    between atoms: C_1  and  C_2
REMARK    2  A    between atoms: C_2  and  C_3
REMARK    3  A    between atoms: C_7  and  O_8
REMARK    4  A    between atoms: O_8  and  C_9
REMARK    5  A    between atoms: C_9  and  C_10
REMARK    6  A    between atoms: N_12  and  C_13
REMARK    7  A    between atoms: N_12  and  C_14
REMARK    8  A    between atoms: C_14  and  C_15
REMARK    9  A    between atoms: N_17  and  C_18
REMARK                            x       y       z     vdW  Elec       q    Type
REMARK                         _______ _______ _______ _____ _____    ______ ____
ROOT
ATOM      1  C   UNL     1       6.385   4.505  15.574  0.00  0.00    +0.000 C 
ATOM      2  O   UNL     1       5.984   3.342  15.682  0.00  0.00    +0.000 OA
ATOM      3  N   UNL     1       6.830   5.219  16.681  0.00  0.00    +0.000 N 
ATOM      4  C   UNL     1       7.378   6.570  16.637  0.00  0.00    +0.000 C 
ENDROOT
BRANCH   1   5
ATOM      5  C   UNL     1       6.339   5.202  14.210  0.00  0.00    +0.000 C 
BRANCH   5   6
ATOM      6  O   UNL     1       7.078   4.491  13.224  0.00  0.00    +0.000 OA
BRANCH   6  11
ATOM      7  C   UNL     1       4.414   2.883  11.167  0.00  0.00    +0.000 A 
ATOM      8  C   UNL     1       5.131   1.759  10.734  0.00  0.00    +0.000 A 
ATOM      9  C   UNL     1       6.453   1.570  11.144  0.00  0.00    +0.000 A 
ATOM     10  C   UNL     1       7.066   2.499  11.987  0.00  0.00    +0.000 A 
ATOM     11  C   UNL     1       6.365   3.625  12.434  0.00  0.00    +0.000 A 
ATOM     12  C   UNL     1       5.038   3.800  12.028  0.00  0.00    +0.000 A 
BRANCH   7  14
ATOM     13  C   UNL     1       2.902   4.108   9.572  0.00  0.00    +0.000 C 
ATOM     14  C   UNL     1       2.993   3.106  10.713  0.00  0.00    +0.000 C 
ENDBRANCH   7  14
ENDBRANCH   6  11
ENDBRANCH   5   6
ENDBRANCH   1   5
BRANCH   3  15
ATOM     15  C   UNL     1       6.940   4.526  17.972  0.00  0.00    +0.000 C 
BRANCH  15  16
ATOM     16  C   UNL     1       5.702   4.647  18.866  0.00  0.00    +0.000 C 
ATOM     17  O   UNL     1       5.725   5.353  19.874  0.00  0.00    +0.000 OA
ATOM     18  N   UNL     1       4.663   3.790  18.531  0.00  0.00    +0.000 N 
ATOM     19  H   UNL     1       4.919   2.983  17.975  0.00  0.00    +0.000 HD
BRANCH  18  20
ATOM     20  C   UNL     1       3.437   3.753  19.229  0.00  0.00    +0.000 A 
ATOM     21  C   UNL     1       2.730   2.557  19.418  0.00  0.00    +0.000 A 
ATOM     22  C   UNL     1       1.509   2.551  20.101  0.00  0.00    +0.000 A 
ATOM     23  C   UNL     1       0.977   3.745  20.577  0.00  0.00    +0.000 A 
ATOM     24  C   UNL     1       1.687   4.928  20.393  0.00  0.00    +0.000 A 
ATOM     25  F   UNL     1       1.161   6.081  20.824  0.00  0.00    +0.000 F 
ATOM     26  C   UNL     1       2.924   4.940  19.751  0.00  0.00    +0.000 A 
ENDBRANCH  18  20
ENDBRANCH  15  16
ENDBRANCH   3  15
TORSDOF 7
ENDMDL
MODEL 9
REMARK VINA RESULT:      -7.2      5.211      7.434
REMARK  Name = 
REMARK  9 active torsions:
REMARK  status: ('A' for Active; 'I' for Inactive)
REMARK    1  A    between atoms: C_1  and  C_2
REMARK    2  A    between atoms: C_2  and  C_3
REMARK    3  A    between atoms: C_7  and  O_8
REMARK    4  A    between atoms: O_8  and  C_9
REMARK    5  A    between atoms: C_9  and  C_10
REMARK    6  A    between atoms: N_12  and  C_13
REMARK    7  A    between atoms: N_12  and  C_14
REMARK    8  A    between atoms: C_14  and  C_15
REMARK    9  A    between atoms: N_17  and  C_18
REMARK                            x       y       z     vdW  Elec       q    Type
REMARK                         _______ _______ _______ _____ _____    ______ ____
ROOT
ATOM      1  C   UNL     1       4.210   6.327  18.102  0.00  0.00    +0.000 C 
ATOM      2  O   UNL     1       4.532   7.319  17.442  0.00  0.00    +0.000 OA
ATOM      3  N   UNL     1       5.142   5.353  18.440  0.00  0.00    +0.000 N 
ATOM      4  C   UNL     1       4.865   4.184  19.268  0.00  0.00    +0.000 C 
ENDROOT
BRANCH   1   5
ATOM      5  C   UNL     1       2.745   6.126  18.509  0.00  0.00    +0.000 C 
BRANCH   5   6
ATOM      6  O   UNL     1       2.515   6.490  19.865  0.00  0.00    +0.000 OA
BRANCH   6  11
ATOM      7  C   UNL     1       0.906   9.832  19.465  0.00  0.00    +0.000 A 
ATOM      8  C   UNL     1       0.201   9.872  20.676  0.00  0.00    +0.000 A 
ATOM      9  C   UNL     1       0.292   8.808  21.577  0.00  0.00    +0.000 A 
ATOM     10  C   UNL     1       1.086   7.699  21.276  0.00  0.00    +0.000 A 
ATOM     11  C   UNL     1       1.801   7.643  20.075  0.00  0.00    +0.000 A 
ATOM     12  C   UNL     1       1.714   8.718  19.184  0.00  0.00    +0.000 A 
BRANCH   7  14
ATOM     13  C   UNL     1       2.116  11.705  18.300  0.00  0.00    +0.000 C 
ATOM     14  C   UNL     1       0.798  10.966  18.477  0.00  0.00    +0.000 C 
ENDBRANCH   7  14
ENDBRANCH   6  11
ENDBRANCH   5   6
ENDBRANCH   1   5
BRANCH   3  15
ATOM     15  C   UNL     1       6.556   5.583  18.112  0.00  0.00    +0.000 C 
BRANCH  15  16
ATOM     16  C   UNL     1       7.016   4.940  16.799  0.00  0.00    +0.000 C 
ATOM     17  O   UNL     1       7.995   4.194  16.777  0.00  0.00    +0.000 OA
ATOM     18  N   UNL     1       6.352   5.398  15.670  0.00  0.00    +0.000 N 
ATOM     19  H   UNL     1       5.888   6.294  15.763  0.00  0.00    +0.000 HD
BRANCH  18  20
ATOM     20  C   UNL     1       6.627   4.926  14.368  0.00  0.00    +0.000 A 
ATOM     21  C   UNL     1       7.649   5.477  13.582  0.00  0.00    +0.000 A 
ATOM     22  C   UNL     1       7.889   5.001  12.289  0.00  0.00    +0.000 A 
ATOM     23  C   UNL     1       7.092   3.987  11.766  0.00  0.00    +0.000 A 
ATOM     24  C   UNL     1       6.084   3.440  12.554  0.00  0.00    +0.000 A 
ATOM     25  F   UNL     1       5.298   2.485  12.040  0.00  0.00    +0.000 F 
ATOM     26  C   UNL     1       5.863   3.878  13.858  0.00  0.00    +0.000 A 
ENDBRANCH  18  20
ENDBRANCH  15  16
ENDBRANCH   3  15
TORSDOF 7
ENDMDL
