MODEL 1
REMARK VINA RESULT:      -8.1      0.000      0.000
REMARK  Name = 
REMARK  5 active torsions:
REMARK  status: ('A' for Active; 'I' for Inactive)
REMARK    1  A    between atoms: C_1  and  C_2
REMARK    2  A    between atoms: C_2  and  C_3
REMARK    3  A    between atoms: N_5  and  C_6
REMARK    4  A    between atoms: C_6  and  C_7
REMARK    5  A    between atoms: N_12  and  C_13
REMARK                            x       y       z     vdW  Elec       q    Type
REMARK                         _______ _______ _______ _____ _____    ______ ____
ROOT
ATOM      1  C   UNL     1       1.424  11.566  19.589  0.00  0.00    +0.000 C 
ENDROOT
BRANCH   1   4
ATOM      2  C   UNL     1      -2.067  11.757  18.681  0.00  0.00    +0.000 A 
ATOM      3  N   UNL     1      -0.788  11.533  18.637  0.00  0.00    +0.000 NA
ATOM      4  N   UNL     1      -0.012  11.760  19.761  0.00  0.00    +0.000 N 
ATOM      5  C   UNL     1      -0.517  12.254  20.971  0.00  0.00    +0.000 A 
ATOM      6  O   UNL     1       0.181  12.492  21.952  0.00  0.00    +0.000 OA
ATOM      7  C   UNL     1      -1.950  12.472  20.972  0.00  0.00    +0.000 A 
ATOM      8  C   UNL     1      -2.766  12.912  21.991  0.00  0.00    +0.000 A 
ATOM      9  C   UNL     1      -4.071  12.947  21.440  0.00  0.00    +0.000 A 
ATOM     10  S   UNL     1      -5.674  13.355  21.953  0.00  0.00    +0.000 S 
ATOM     11  C   UNL     1      -6.262  12.991  20.386  0.00  0.00    +0.000 A 
ATOM     12  C   UNL     1      -5.292  12.568  19.500  0.00  0.00    +0.000 A 
ATOM     13  C   UNL     1      -4.011  12.540  20.131  0.00  0.00    +0.000 A 
ATOM     14  N   UNL     1      -2.688  12.229  19.837  0.00  0.00    +0.000 N 
BRANCH   2  16
ATOM     15  C   UNL     1      -2.308  10.269  16.732  0.00  0.00    +0.000 C 
ATOM     16  C   UNL     1      -2.913  11.443  17.484  0.00  0.00    +0.000 C 
ENDBRANCH   2  16
ENDBRANCH   1   4
BRANCH   1  17
ATOM     17  C   UNL     1       1.809  10.576  18.480  0.00  0.00    +0.000 C 
ATOM     18  O   UNL     1       2.197  10.990  17.382  0.00  0.00    +0.000 OA
ATOM     19  N   UNL     1       1.766   9.219  18.759  0.00  0.00    +0.000 N 
ATOM     20  C   UNL     1       2.316   8.262  17.786  0.00  0.00    +0.000 C 
ATOM     21  C   UNL     1       3.129   7.149  18.484  0.00  0.00    +0.000 C 
ATOM     22  N   UNL     1       2.322   6.535  19.555  0.00  0.00    +0.000 N 
ATOM     23  C   UNL     1       1.782   7.484  20.543  0.00  0.00    +0.000 C 
ATOM     24  C   UNL     1       0.986   8.592  19.833  0.00  0.00    +0.000 C 
BRANCH  22  25
ATOM     25  C   UNL     1       2.179   5.168  19.682  0.00  0.00    +0.000 A 
ATOM     26  C   UNL     1       1.318   4.610  20.641  0.00  0.00    +0.000 A 
ATOM     27  C   UNL     1       1.124   3.229  20.754  0.00  0.00    +0.000 A 
ATOM     28  C   UNL     1       1.796   2.363  19.901  0.00  0.00    +0.000 A 
ATOM     29  C   UNL     1       2.662   2.886  18.950  0.00  0.00    +0.000 A 
ATOM     30 CL   UNL     1       3.508   1.824  17.891  0.00  0.00    +0.000 Cl
ATOM     31  C   UNL     1       2.853   4.269  18.842  0.00  0.00    +0.000 A 
ENDBRANCH  22  25
ENDBRANCH   1  17
TORSDOF 4
ENDMDL
MODEL 2
REMARK VINA RESULT:      -8.0      0.988      1.266
REMARK  Name = 
REMARK  5 active torsions:
REMARK  status: ('A' for Active; 'I' for Inactive)
REMARK    1  A    between atoms: C_1  and  C_2
REMARK    2  A    between atoms: C_2  and  C_3
REMARK    3  A    between atoms: N_5  and  C_6
REMARK    4  A    between atoms: C_6  and  C_7
REMARK    5  A    between atoms: N_12  and  C_13
REMARK                            x       y       z     vdW  Elec       q    Type
REMARK                         _______ _______ _______ _____ _____    ______ ____
ROOT
ATOM      1  C   UNL     1       1.302  11.886  19.859  0.00  0.00    +0.000 C 
ENDROOT
BRANCH   1   4
ATOM      2  C   UNL     1      -2.197  11.956  18.967  0.00  0.00    +0.000 A 
ATOM      3  N   UNL     1      -0.911  11.783  18.915  0.00  0.00    +0.000 NA
ATOM      4  N   UNL     1      -0.140  12.021  20.039  0.00  0.00    +0.000 N 
ATOM      5  C   UNL     1      -0.658  12.477  21.259  0.00  0.00    +0.000 A 
ATOM      6  O   UNL     1       0.035  12.726  22.241  0.00  0.00    +0.000 OA
ATOM      7  C   UNL     1      -2.098  12.639  21.269  0.00  0.00    +0.000 A 
ATOM      8  C   UNL     1      -2.926  13.031  22.298  0.00  0.00    +0.000 A 
ATOM      9  C   UNL     1      -4.235  13.025  21.751  0.00  0.00    +0.000 A 
ATOM     10  S   UNL     1      -5.849  13.363  22.277  0.00  0.00    +0.000 S 
ATOM     11  C   UNL     1      -6.430  13.001  20.706  0.00  0.00    +0.000 A 
ATOM     12  C   UNL     1      -5.448  12.629  19.810  0.00  0.00    +0.000 A 
ATOM     13  C   UNL     1      -4.164  12.641  20.436  0.00  0.00    +0.000 A 
ATOM     14  N   UNL     1      -2.831  12.385  20.132  0.00  0.00    +0.000 N 
BRANCH   2  16
ATOM     15  C   UNL     1      -3.248  10.126  17.696  0.00  0.00    +0.000 C 
ATOM     16  C   UNL     1      -3.036  11.629  17.768  0.00  0.00    +0.000 C 
ENDBRANCH   2  16
ENDBRANCH   1   4
BRANCH   1  17
ATOM     17  C   UNL     1       1.720  11.032  18.653  0.00  0.00    +0.000 C 
ATOM     18  O   UNL     1       2.122  11.571  17.617  0.00  0.00    +0.000 OA
ATOM     19  N   UNL     1       1.689   9.651  18.777  0.00  0.00    +0.000 N 
ATOM     20  C   UNL     1       2.269   8.816  17.713  0.00  0.00    +0.000 C 
ATOM     21  C   UNL     1       3.083   7.640  18.297  0.00  0.00    +0.000 C 
ATOM     22  N   UNL     1       2.265   6.901  19.275  0.00  0.00    +0.000 N 
ATOM     23  C   UNL     1       1.695   7.726  20.354  0.00  0.00    +0.000 C 
ATOM     24  C   UNL     1       0.898   8.899  19.757  0.00  0.00    +0.000 C 
BRANCH  22  25
ATOM     25  C   UNL     1       2.136   5.527  19.245  0.00  0.00    +0.000 A 
ATOM     26  C   UNL     1       2.272   4.807  18.046  0.00  0.00    +0.000 A 
ATOM     27  C   UNL     1       2.191   3.410  18.003  0.00  0.00    +0.000 A 
ATOM     28  C   UNL     1       1.967   2.693  19.171  0.00  0.00    +0.000 A 
ATOM     29  C   UNL     1       1.817   3.380  20.369  0.00  0.00    +0.000 A 
ATOM     30 CL   UNL     1       1.532   2.504  21.824  0.00  0.00    +0.000 Cl
ATOM     31  C   UNL     1       1.899   4.776  20.406  0.00  0.00    +0.000 A 
ENDBRANCH  22  25
ENDBRANCH   1  17
TORSDOF 4
ENDMDL
MODEL 3
REMARK VINA RESULT:      -7.9      1.106      1.287
REMARK  Name = 
REMARK  5 active torsions:
REMARK  status: ('A' for Active; 'I' for Inactive)
REMARK    1  A    between atoms: C_1  and  C_2
REMARK    2  A    between atoms: C_2  and  C_3
REMARK    3  A    between atoms: N_5  and  C_6
REMARK    4  A    between atoms: C_6  and  C_7
REMARK    5  A    between atoms: N_12  and  C_13
REMARK                            x       y       z     vdW  Elec       q    Type
REMARK                         _______ _______ _______ _____ _____    ______ ____
ROOT
ATOM      1  C   UNL     1       0.632  11.872  20.604  0.00  0.00    +0.000 C 
ENDROOT
BRANCH   1   4
ATOM      2  C   UNL     1      -2.907  12.157  19.939  0.00  0.00    +0.000 A 
ATOM      3  N   UNL     1      -1.633  11.955  19.789  0.00  0.00    +0.000 NA
ATOM      4  N   UNL     1      -0.793  12.023  20.887  0.00  0.00    +0.000 N 
ATOM      5  C   UNL     1      -1.226  12.331  22.184  0.00  0.00    +0.000 A 
ATOM      6  O   UNL     1      -0.471  12.430  23.146  0.00  0.00    +0.000 OA
ATOM      7  C   UNL     1      -2.656  12.531  22.300  0.00  0.00    +0.000 A 
ATOM      8  C   UNL     1      -3.411  12.809  23.418  0.00  0.00    +0.000 A 
ATOM      9  C   UNL     1      -4.747  12.911  22.955  0.00  0.00    +0.000 A 
ATOM     10  S   UNL     1      -6.317  13.223  23.615  0.00  0.00    +0.000 S 
ATOM     11  C   UNL     1      -6.996  13.085  22.048  0.00  0.00    +0.000 A 
ATOM     12  C   UNL     1      -6.080  12.806  21.055  0.00  0.00    +0.000 A 
ATOM     13  C   UNL     1      -4.763  12.700  21.599  0.00  0.00    +0.000 A 
ATOM     14  N   UNL     1      -3.460  12.448  21.186  0.00  0.00    +0.000 N 
BRANCH   2  16
ATOM     15  C   UNL     1      -3.052  11.418  17.594  0.00  0.00    +0.000 C 
ATOM     16  C   UNL     1      -3.823  12.012  18.761  0.00  0.00    +0.000 C 
ENDBRANCH   2  16
ENDBRANCH   1   4
BRANCH   1  17
ATOM     17  C   UNL     1       0.952  11.075  19.332  0.00  0.00    +0.000 C 
ATOM     18  O   UNL     1       1.123  11.659  18.257  0.00  0.00    +0.000 OA
ATOM     19  N   UNL     1       1.099   9.700  19.431  0.00  0.00    +0.000 N 
ATOM     20  C   UNL     1       1.597   8.940  18.274  0.00  0.00    +0.000 C 
ATOM     21  C   UNL     1       2.622   7.866  18.701  0.00  0.00    +0.000 C 
ATOM     22  N   UNL     1       2.056   7.034  19.780  0.00  0.00    +0.000 N 
ATOM     23  C   UNL     1       1.570   7.785  20.949  0.00  0.00    +0.000 C 
ATOM     24  C   UNL     1       0.561   8.859  20.507  0.00  0.00    +0.000 C 
BRANCH  22  25
ATOM     25  C   UNL     1       2.082   5.654  19.742  0.00  0.00    +0.000 A 
ATOM     26  C   UNL     1       1.305   4.884  20.622  0.00  0.00    +0.000 A 
ATOM     27  C   UNL     1       1.283   3.486  20.569  0.00  0.00    +0.000 A 
ATOM     28  C   UNL     1       2.049   2.817  19.622  0.00  0.00    +0.000 A 
ATOM     29  C   UNL     1       2.837   3.553  18.746  0.00  0.00    +0.000 A 
ATOM     30 CL   UNL     1       3.797   2.737  17.572  0.00  0.00    +0.000 Cl
ATOM     31  C   UNL     1       2.855   4.951  18.805  0.00  0.00    +0.000 A 
ENDBRANCH  22  25
ENDBRANCH   1  17
TORSDOF 4
ENDMDL
MODEL 4
REMARK VINA RESULT:      -7.9      1.752      2.491
REMARK  Name = 
REMARK  5 active torsions:
REMARK  status: ('A' for Active; 'I' for Inactive)
REMARK    1  A    between atoms: C_1  and  C_2
REMARK    2  A    between atoms: C_2  and  C_3
REMARK    3  A    between atoms: N_5  and  C_6
REMARK    4  A    between atoms: C_6  and  C_7
REMARK    5  A    between atoms: N_12  and  C_13
REMARK                            x       y       z     vdW  Elec       q    Type
REMARK                         _______ _______ _______ _____ _____    ______ ____
ROOT
ATOM      1  C   UNL     1       0.341  11.840  19.702  0.00  0.00    +0.000 C 
ENDROOT
BRANCH   1   4
ATOM      2  C   UNL     1      -2.791  11.060  18.080  0.00  0.00    +0.000 A 
ATOM      3  N   UNL     1      -1.531  11.071  18.397  0.00  0.00    +0.000 NA
ATOM      4  N   UNL     1      -1.102  11.818  19.479  0.00  0.00    +0.000 N 
ATOM      5  C   UNL     1      -1.948  12.611  20.266  0.00  0.00    +0.000 A 
ATOM      6  O   UNL     1      -1.556  13.305  21.199  0.00  0.00    +0.000 OA
ATOM      7  C   UNL     1      -3.344  12.552  19.881  0.00  0.00    +0.000 A 
ATOM      8  C   UNL     1      -4.434  13.171  20.452  0.00  0.00    +0.000 A 
ATOM      9  C   UNL     1      -5.547  12.770  19.669  0.00  0.00    +0.000 A 
ATOM     10  S   UNL     1      -7.257  13.037  19.634  0.00  0.00    +0.000 S 
ATOM     11  C   UNL     1      -7.378  12.039  18.247  0.00  0.00    +0.000 A 
ATOM     12  C   UNL     1      -6.177  11.511  17.821  0.00  0.00    +0.000 A 
ATOM     13  C   UNL     1      -5.109  11.942  18.667  0.00  0.00    +0.000 A 
ATOM     14  N   UNL     1      -3.733  11.791  18.802  0.00  0.00    +0.000 N 
BRANCH   2  16
ATOM     15  C   UNL     1      -2.926  10.862  15.629  0.00  0.00    +0.000 C 
ATOM     16  C   UNL     1      -3.262  10.193  16.951  0.00  0.00    +0.000 C 
ENDBRANCH   2  16
ENDBRANCH   1   4
BRANCH   1  17
ATOM     17  C   UNL     1       0.875  10.679  20.554  0.00  0.00    +0.000 C 
ATOM     18  O   UNL     1       0.707  10.677  21.778  0.00  0.00    +0.000 OA
ATOM     19  N   UNL     1       1.495   9.618  19.913  0.00  0.00    +0.000 N 
ATOM     20  C   UNL     1       1.837   8.409  20.681  0.00  0.00    +0.000 C 
ATOM     21  C   UNL     1       1.510   7.124  19.888  0.00  0.00    +0.000 C 
ATOM     22  N   UNL     1       2.125   7.191  18.549  0.00  0.00    +0.000 N 
ATOM     23  C   UNL     1       1.774   8.389  17.768  0.00  0.00    +0.000 C 
ATOM     24  C   UNL     1       2.093   9.659  18.574  0.00  0.00    +0.000 C 
BRANCH  22  25
ATOM     25  C   UNL     1       2.879   6.159  18.029  0.00  0.00    +0.000 A 
ATOM     26  C   UNL     1       4.153   6.388  17.484  0.00  0.00    +0.000 A 
ATOM     27  C   UNL     1       4.952   5.348  16.994  0.00  0.00    +0.000 A 
ATOM     28  C   UNL     1       4.487   4.039  17.036  0.00  0.00    +0.000 A 
ATOM     29  C   UNL     1       3.226   3.785  17.559  0.00  0.00    +0.000 A 
ATOM     30 CL   UNL     1       2.635   2.168  17.611  0.00  0.00    +0.000 Cl
ATOM     31  C   UNL     1       2.432   4.829  18.047  0.00  0.00    +0.000 A 
ENDBRANCH  22  25
ENDBRANCH   1  17
TORSDOF 4
ENDMDL
MODEL 5
REMARK VINA RESULT:      -7.9      1.373      1.761
REMARK  Name = 
REMARK  5 active torsions:
REMARK  status: ('A' for Active; 'I' for Inactive)
REMARK    1  A    between atoms: C_1  and  C_2
REMARK    2  A    between atoms: C_2  and  C_3
REMARK    3  A    between atoms: N_5  and  C_6
REMARK    4  A    between atoms: C_6  and  C_7
REMARK    5  A    between atoms: N_12  and  C_13
REMARK                            x       y       z     vdW  Elec       q    Type
REMARK                         _______ _______ _______ _____ _____    ______ ____
ROOT
ATOM      1  C   UNL     1       0.764  11.446  20.679  0.00  0.00    +0.000 C 
ENDROOT
BRANCH   1   4
ATOM      2  C   UNL     1      -2.672  12.047  19.740  0.00  0.00    +0.000 A 
ATOM      3  N   UNL     1      -1.411  11.739  19.688  0.00  0.00    +0.000 NA
ATOM      4  N   UNL     1      -0.661  11.715  20.850  0.00  0.00    +0.000 N 
ATOM      5  C   UNL     1      -1.170  12.036  22.116  0.00  0.00    +0.000 A 
ATOM      6  O   UNL     1      -0.491  12.053  23.137  0.00  0.00    +0.000 OA
ATOM      7  C   UNL     1      -2.583  12.357  22.122  0.00  0.00    +0.000 A 
ATOM      8  C   UNL     1      -3.401  12.681  23.183  0.00  0.00    +0.000 A 
ATOM      9  C   UNL     1      -4.681  12.906  22.617  0.00  0.00    +0.000 A 
ATOM     10  S   UNL     1      -6.268  13.341  23.156  0.00  0.00    +0.000 S 
ATOM     11  C   UNL     1      -6.826  13.290  21.538  0.00  0.00    +0.000 A 
ATOM     12  C   UNL     1      -5.859  12.950  20.614  0.00  0.00    +0.000 A 
ATOM     13  C   UNL     1      -4.604  12.720  21.260  0.00  0.00    +0.000 A 
ATOM     14  N   UNL     1      -3.297  12.364  20.946  0.00  0.00    +0.000 N 
BRANCH   2  16
ATOM     15  C   UNL     1      -3.519  10.583  17.950  0.00  0.00    +0.000 C 
ATOM     16  C   UNL     1      -3.497  12.003  18.489  0.00  0.00    +0.000 C 
ENDBRANCH   2  16
ENDBRANCH   1   4
BRANCH   1  17
ATOM     17  C   UNL     1       1.172  11.029  19.259  0.00  0.00    +0.000 C 
ATOM     18  O   UNL     1       1.337  11.884  18.382  0.00  0.00    +0.000 OA
ATOM     19  N   UNL     1       1.403   9.686  19.002  0.00  0.00    +0.000 N 
ATOM     20  C   UNL     1       1.982   9.285  17.711  0.00  0.00    +0.000 C 
ATOM     21  C   UNL     1       3.060   8.193  17.889  0.00  0.00    +0.000 C 
ATOM     22  N   UNL     1       2.517   7.078  18.687  0.00  0.00    +0.000 N 
ATOM     23  C   UNL     1       1.950   7.469  19.989  0.00  0.00    +0.000 C 
ATOM     24  C   UNL     1       0.889   8.564  19.796  0.00  0.00    +0.000 C 
BRANCH  22  25
ATOM     25  C   UNL     1       2.633   5.760  18.292  0.00  0.00    +0.000 A 
ATOM     26  C   UNL     1       3.720   5.322  17.519  0.00  0.00    +0.000 A 
ATOM     27  C   UNL     1       3.878   3.981  17.148  0.00  0.00    +0.000 A 
ATOM     28  C   UNL     1       2.939   3.038  17.545  0.00  0.00    +0.000 A 
ATOM     29  C   UNL     1       1.847   3.446  18.300  0.00  0.00    +0.000 A 
ATOM     30 CL   UNL     1       0.671   2.288  18.792  0.00  0.00    +0.000 Cl
ATOM     31  C   UNL     1       1.694   4.787  18.667  0.00  0.00    +0.000 A 
ENDBRANCH  22  25
ENDBRANCH   1  17
TORSDOF 4
ENDMDL
MODEL 6
REMARK VINA RESULT:      -7.8      2.018      2.611
REMARK  Name = 
REMARK  5 active torsions:
REMARK  status: ('A' for Active; 'I' for Inactive)
REMARK    1  A    between atoms: C_1  and  C_2
REMARK    2  A    between atoms: C_2  and  C_3
REMARK    3  A    between atoms: N_5  and  C_6
REMARK    4  A    between atoms: C_6  and  C_7
REMARK    5  A    between atoms: N_12  and  C_13
REMARK                            x       y       z     vdW  Elec       q    Type
REMARK                         _______ _______ _______ _____ _____    ______ ____
ROOT
ATOM      1  C   UNL     1       0.382  11.698  19.798  0.00  0.00    +0.000 C 
ENDROOT
BRANCH   1   4
ATOM      2  C   UNL     1      -2.726  10.986  18.100  0.00  0.00    +0.000 A 
ATOM      3  N   UNL     1      -1.474  10.968  18.449  0.00  0.00    +0.000 NA
ATOM      4  N   UNL     1      -1.055  11.710  19.539  0.00  0.00    +0.000 N 
ATOM      5  C   UNL     1      -1.902  12.527  20.300  0.00  0.00    +0.000 A 
ATOM      6  O   UNL     1      -1.517  13.215  21.241  0.00  0.00    +0.000 OA
ATOM      7  C   UNL     1      -3.288  12.499  19.880  0.00  0.00    +0.000 A 
ATOM      8  C   UNL     1      -4.378  13.147  20.420  0.00  0.00    +0.000 A 
ATOM      9  C   UNL     1      -5.479  12.770  19.611  0.00  0.00    +0.000 A 
ATOM     10  S   UNL     1      -7.181  13.078  19.530  0.00  0.00    +0.000 S 
ATOM     11  C   UNL     1      -7.291  12.077  18.145  0.00  0.00    +0.000 A 
ATOM     12  C   UNL     1      -6.092  11.519  17.752  0.00  0.00    +0.000 A 
ATOM     13  C   UNL     1      -5.036  11.927  18.623  0.00  0.00    +0.000 A 
ATOM     14  N   UNL     1      -3.668  11.744  18.795  0.00  0.00    +0.000 N 
BRANCH   2  16
ATOM     15  C   UNL     1      -2.910  10.836  15.648  0.00  0.00    +0.000 C 
ATOM     16  C   UNL     1      -3.189  10.126  16.962  0.00  0.00    +0.000 C 
ENDBRANCH   2  16
ENDBRANCH   1   4
BRANCH   1  17
ATOM     17  C   UNL     1       0.873  10.503  20.628  0.00  0.00    +0.000 C 
ATOM     18  O   UNL     1       0.637  10.447  21.840  0.00  0.00    +0.000 OA
ATOM     19  N   UNL     1       1.532   9.471  19.979  0.00  0.00    +0.000 N 
ATOM     20  C   UNL     1       1.836   8.231  20.711  0.00  0.00    +0.000 C 
ATOM     21  C   UNL     1       1.559   6.981  19.847  0.00  0.00    +0.000 C 
ATOM     22  N   UNL     1       2.247   7.106  18.549  0.00  0.00    +0.000 N 
ATOM     23  C   UNL     1       1.936   8.337  17.801  0.00  0.00    +0.000 C 
ATOM     24  C   UNL     1       2.204   9.571  18.678  0.00  0.00    +0.000 C 
BRANCH  22  25
ATOM     25  C   UNL     1       3.034   6.099  18.028  0.00  0.00    +0.000 A 
ATOM     26  C   UNL     1       2.534   4.798  17.853  0.00  0.00    +0.000 A 
ATOM     27  C   UNL     1       3.301   3.776  17.283  0.00  0.00    +0.000 A 
ATOM     28  C   UNL     1       4.603   4.033  16.872  0.00  0.00    +0.000 A 
ATOM     29  C   UNL     1       5.127   5.308  17.044  0.00  0.00    +0.000 A 
ATOM     30 CL   UNL     1       6.742   5.640  16.547  0.00  0.00    +0.000 Cl
ATOM     31  C   UNL     1       4.355   6.326  17.615  0.00  0.00    +0.000 A 
ENDBRANCH  22  25
ENDBRANCH   1  17
TORSDOF 4
ENDMDL
MODEL 7
REMARK VINA RESULT:      -7.7      1.516      1.781
REMARK  Name = 
REMARK  5 active torsions:
REMARK  status: ('A' for Active; 'I' for Inactive)
REMARK    1  A    between atoms: C_1  and  C_2
REMARK    2  A    between atoms: C_2  and  C_3
REMARK    3  A    between atoms: N_5  and  C_6
REMARK    4  A    between atoms: C_6  and  C_7
REMARK    5  A    between atoms: N_12  and  C_13
REMARK                            x       y       z     vdW  Elec       q    Type
REMARK                         _______ _______ _______ _____ _____    ______ ____
ROOT
ATOM      1  C   UNL     1       0.645  11.495  20.810  0.00  0.00    +0.000 C 
ENDROOT
BRANCH   1   4
ATOM      2  C   UNL     1      -2.833  12.049  20.009  0.00  0.00    +0.000 A 
ATOM      3  N   UNL     1      -1.574  11.745  19.909  0.00  0.00    +0.000 NA
ATOM      4  N   UNL     1      -0.772  11.764  21.036  0.00  0.00    +0.000 N 
ATOM      5  C   UNL     1      -1.226  12.126  22.312  0.00  0.00    +0.000 A 
ATOM      6  O   UNL     1      -0.500  12.181  23.301  0.00  0.00    +0.000 OA
ATOM      7  C   UNL     1      -2.639  12.441  22.372  0.00  0.00    +0.000 A 
ATOM      8  C   UNL     1      -3.409  12.797  23.457  0.00  0.00    +0.000 A 
ATOM      9  C   UNL     1      -4.715  12.997  22.942  0.00  0.00    +0.000 A 
ATOM     10  S   UNL     1      -6.278  13.443  23.539  0.00  0.00    +0.000 S 
ATOM     11  C   UNL     1      -6.908  13.335  21.950  0.00  0.00    +0.000 A 
ATOM     12  C   UNL     1      -5.982  12.967  20.995  0.00  0.00    +0.000 A 
ATOM     13  C   UNL     1      -4.699  12.765  21.590  0.00  0.00    +0.000 A 
ATOM     14  N   UNL     1      -3.405  12.405  21.230  0.00  0.00    +0.000 N 
BRANCH   2  16
ATOM     15  C   UNL     1      -3.131  10.949  17.825  0.00  0.00    +0.000 C 
ATOM     16  C   UNL     1      -3.713  11.959  18.799  0.00  0.00    +0.000 C 
ENDBRANCH   2  16
ENDBRANCH   1   4
BRANCH   1  17
ATOM     17  C   UNL     1       1.004  11.122  19.364  0.00  0.00    +0.000 C 
ATOM     18  O   UNL     1       1.082  11.998  18.496  0.00  0.00    +0.000 OA
ATOM     19  N   UNL     1       1.291   9.798  19.073  0.00  0.00    +0.000 N 
ATOM     20  C   UNL     1       1.827   9.447  17.748  0.00  0.00    +0.000 C 
ATOM     21  C   UNL     1       2.967   8.411  17.855  0.00  0.00    +0.000 C 
ATOM     22  N   UNL     1       2.522   7.256  18.658  0.00  0.00    +0.000 N 
ATOM     23  C   UNL     1       2.000   7.597  19.992  0.00  0.00    +0.000 C 
ATOM     24  C   UNL     1       0.875   8.638  19.871  0.00  0.00    +0.000 C 
BRANCH  22  25
ATOM     25  C   UNL     1       2.686   5.953  18.234  0.00  0.00    +0.000 A 
ATOM     26  C   UNL     1       1.688   4.987  18.443  0.00  0.00    +0.000 A 
ATOM     27  C   UNL     1       1.816   3.672  17.980  0.00  0.00    +0.000 A 
ATOM     28  C   UNL     1       2.960   3.288  17.291  0.00  0.00    +0.000 A 
ATOM     29  C   UNL     1       3.968   4.221  17.080  0.00  0.00    +0.000 A 
ATOM     30 CL   UNL     1       5.395   3.757  16.235  0.00  0.00    +0.000 Cl
ATOM     31  C   UNL     1       3.834   5.533  17.546  0.00  0.00    +0.000 A 
ENDBRANCH  22  25
ENDBRANCH   1  17
TORSDOF 4
ENDMDL
MODEL 8
REMARK VINA RESULT:      -7.7      1.698      2.323
REMARK  Name = 
REMARK  5 active torsions:
REMARK  status: ('A' for Active; 'I' for Inactive)
REMARK    1  A    between atoms: C_1  and  C_2
REMARK    2  A    between atoms: C_2  and  C_3
REMARK    3  A    between atoms: N_5  and  C_6
REMARK    4  A    between atoms: C_6  and  C_7
REMARK    5  A    between atoms: N_12  and  C_13
REMARK                            x       y       z     vdW  Elec       q    Type
REMARK                         _______ _______ _______ _____ _____    ______ ____
ROOT
ATOM      1  C   UNL     1       0.985  10.373  19.157  0.00  0.00    +0.000 C 
ENDROOT
BRANCH   1   4
ATOM      2  C   UNL     1      -2.288  10.334  17.628  0.00  0.00    +0.000 A 
ATOM      3  N   UNL     1      -1.046  10.066  17.900  0.00  0.00    +0.000 NA
ATOM      4  N   UNL     1      -0.435  10.668  18.986  0.00  0.00    +0.000 N 
ATOM      5  C   UNL     1      -1.068  11.597  19.823  0.00  0.00    +0.000 A 
ATOM      6  O   UNL     1      -0.509  12.159  20.760  0.00  0.00    +0.000 OA
ATOM      7  C   UNL     1      -2.455  11.850  19.486  0.00  0.00    +0.000 A 
ATOM      8  C   UNL     1      -3.370  12.668  20.112  0.00  0.00    +0.000 A 
ATOM      9  C   UNL     1      -4.565  12.541  19.359  0.00  0.00    +0.000 A 
ATOM     10  S   UNL     1      -6.178  13.168  19.391  0.00  0.00    +0.000 S 
ATOM     11  C   UNL     1      -6.551  12.266  17.984  0.00  0.00    +0.000 A 
ATOM     12  C   UNL     1      -5.503  11.508  17.502  0.00  0.00    +0.000 A 
ATOM     13  C   UNL     1      -4.344  11.672  18.320  0.00  0.00    +0.000 A 
ATOM     14  N   UNL     1      -3.029  11.226  18.402  0.00  0.00    +0.000 N 
BRANCH   2  16
ATOM     15  C   UNL     1      -2.781  10.428  15.217  0.00  0.00    +0.000 C 
ATOM     16  C   UNL     1      -2.966   9.627  16.494  0.00  0.00    +0.000 C 
ENDBRANCH   2  16
ENDBRANCH   1   4
BRANCH   1  17
ATOM     17  C   UNL     1       1.300   9.368  20.275  0.00  0.00    +0.000 C 
ATOM     18  O   UNL     1       1.127   9.678  21.459  0.00  0.00    +0.000 OA
ATOM     19  N   UNL     1       1.726   8.097  19.923  0.00  0.00    +0.000 N 
ATOM     20  C   UNL     1       1.844   7.060  20.959  0.00  0.00    +0.000 C 
ATOM     21  C   UNL     1       1.300   5.701  20.465  0.00  0.00    +0.000 C 
ATOM     22  N   UNL     1       1.925   5.349  19.177  0.00  0.00    +0.000 N 
ATOM     23  C   UNL     1       1.797   6.376  18.127  0.00  0.00    +0.000 C 
ATOM     24  C   UNL     1       2.331   7.724  18.639  0.00  0.00    +0.000 C 
BRANCH  22  25
ATOM     25  C   UNL     1       2.488   4.112  18.940  0.00  0.00    +0.000 A 
ATOM     26  C   UNL     1       2.232   3.407  17.753  0.00  0.00    +0.000 A 
ATOM     27  C   UNL     1       2.830   2.173  17.475  0.00  0.00    +0.000 A 
ATOM     28  C   UNL     1       3.707   1.606  18.391  0.00  0.00    +0.000 A 
ATOM     29  C   UNL     1       3.970   2.275  19.580  0.00  0.00    +0.000 A 
ATOM     30 CL   UNL     1       5.049   1.581  20.728  0.00  0.00    +0.000 Cl
ATOM     31  C   UNL     1       3.369   3.509  19.852  0.00  0.00    +0.000 A 
ENDBRANCH  22  25
ENDBRANCH   1  17
TORSDOF 4
ENDMDL
MODEL 9
REMARK VINA RESULT:      -7.7      2.195      3.305
REMARK  Name = 
REMARK  5 active torsions:
REMARK  status: ('A' for Active; 'I' for Inactive)
REMARK    1  A    between atoms: C_1  and  C_2
REMARK    2  A    between atoms: C_2  and  C_3
REMARK    3  A    between atoms: N_5  and  C_6
REMARK    4  A    between atoms: C_6  and  C_7
REMARK    5  A    between atoms: N_12  and  C_13
REMARK                            x       y       z     vdW  Elec       q    Type
REMARK                         _______ _______ _______ _____ _____    ______ ____
ROOT
ATOM      1  C   UNL     1      -0.826  12.355  21.981  0.00  0.00    +0.000 C 
ENDROOT
BRANCH   1   4
ATOM      2  C   UNL     1      -2.821  11.910  19.004  0.00  0.00    +0.000 A 
ATOM      3  N   UNL     1      -1.830  11.887  19.844  0.00  0.00    +0.000 NA
ATOM      4  N   UNL     1      -2.018  12.336  21.139  0.00  0.00    +0.000 N 
ATOM      5  C   UNL     1      -3.228  12.856  21.618  0.00  0.00    +0.000 A 
ATOM      6  O   UNL     1      -3.377  13.291  22.756  0.00  0.00    +0.000 OA
ATOM      7  C   UNL     1      -4.304  12.845  20.648  0.00  0.00    +0.000 A 
ATOM      8  C   UNL     1      -5.614  13.245  20.793  0.00  0.00    +0.000 A 
ATOM      9  C   UNL     1      -6.217  13.024  19.528  0.00  0.00    +0.000 A 
ATOM     10  S   UNL     1      -7.772  13.222  18.792  0.00  0.00    +0.000 S 
ATOM     11  C   UNL     1      -7.142  12.625  17.315  0.00  0.00    +0.000 A 
ATOM     12  C   UNL     1      -5.808  12.279  17.366  0.00  0.00    +0.000 A 
ATOM     13  C   UNL     1      -5.276  12.511  18.672  0.00  0.00    +0.000 A 
ATOM     14  N   UNL     1      -4.080  12.385  19.371  0.00  0.00    +0.000 N 
BRANCH   2  16
ATOM     15  C   UNL     1      -2.819   9.850  17.654  0.00  0.00    +0.000 C 
ATOM     16  C   UNL     1      -2.633  11.358  17.623  0.00  0.00    +0.000 C 
ENDBRANCH   2  16
ENDBRANCH   1   4
BRANCH   1  17
ATOM     17  C   UNL     1      -0.392  10.980  22.509  0.00  0.00    +0.000 C 
ATOM     18  O   UNL     1      -0.789  10.582  23.610  0.00  0.00    +0.000 OA
ATOM     19  N   UNL     1       0.403  10.181  21.703  0.00  0.00    +0.000 N 
ATOM     20  C   UNL     1       0.668   8.789  22.099  0.00  0.00    +0.000 C 
ATOM     21  C   UNL     1       0.579   7.830  20.891  0.00  0.00    +0.000 C 
ATOM     22  N   UNL     1       1.431   8.325  19.794  0.00  0.00    +0.000 N 
ATOM     23  C   UNL     1       1.162   9.713  19.380  0.00  0.00    +0.000 C 
ATOM     24  C   UNL     1       1.242  10.652  20.595  0.00  0.00    +0.000 C 
BRANCH  22  25
ATOM     25  C   UNL     1       2.334   7.515  19.135  0.00  0.00    +0.000 A 
ATOM     26  C   UNL     1       2.991   7.949  17.972  0.00  0.00    +0.000 A 
ATOM     27  C   UNL     1       3.943   7.160  17.316  0.00  0.00    +0.000 A 
ATOM     28  C   UNL     1       4.262   5.902  17.813  0.00  0.00    +0.000 A 
ATOM     29  C   UNL     1       3.619   5.443  18.956  0.00  0.00    +0.000 A 
ATOM     30 CL   UNL     1       3.999   3.883  19.579  0.00  0.00    +0.000 Cl
ATOM     31  C   UNL     1       2.667   6.236  19.606  0.00  0.00    +0.000 A 
ENDBRANCH  22  25
ENDBRANCH   1  17
TORSDOF 4
ENDMDL
