MODEL 1
REMARK VINA RESULT:      -8.9      0.000      0.000
REMARK  Name = 
REMARK  4 active torsions:
REMARK  status: ('A' for Active; 'I' for Inactive)
REMARK    1  A    between atoms: C_2  and  C_4
REMARK    2  A    between atoms: N_6  and  C_7
REMARK    3  A    between atoms: C_23  and  N_24
REMARK    4  A    between atoms: C_25  and  C_27
REMARK                            x       y       z     vdW  Elec       q    Type
REMARK                         _______ _______ _______ _____ _____    ______ ____
ROOT
ATOM      1  C   UNL     1       2.427   4.009  19.551  0.00  0.00    +0.000 A 
ATOM      2  N   UNL     1       2.024   5.213  19.992  0.00  0.00    +0.000 NA
ATOM      3  N   UNL     1       2.808   6.120  19.325  0.00  0.00    +0.000 N 
ATOM      4  C   UNL     1       3.895   5.487  18.750  0.00  0.00    +0.000 A 
ATOM      5  C   UNL     1       3.607   4.141  18.795  0.00  0.00    +0.000 A 
ATOM      6  C   UNL     1       4.456   3.142  18.115  0.00  0.00    +0.000 C 
ATOM      7  O   UNL     1       5.235   3.698  17.026  0.00  0.00    +0.000 OA
ATOM      8  C   UNL     1       5.691   4.989  17.188  0.00  0.00    +0.000 A 
ATOM      9  C   UNL     1       6.786   5.339  16.406  0.00  0.00    +0.000 A 
ATOM     10  C   UNL     1       7.317   6.626  16.484  0.00  0.00    +0.000 A 
ATOM     11  C   UNL     1       6.772   7.573  17.354  0.00  0.00    +0.000 A 
ATOM     12  C   UNL     1       5.676   7.208  18.157  0.00  0.00    +0.000 A 
ATOM     13  C   UNL     1       5.088   5.943  18.037  0.00  0.00    +0.000 A 
ENDROOT
BRANCH   3  14
ATOM     14  C   UNL     1       2.301   7.444  19.190  0.00  0.00    +0.000 A 
ATOM     15  C   UNL     1       2.211   8.070  17.926  0.00  0.00    +0.000 A 
ATOM     16  C   UNL     1       1.557   9.298  17.779  0.00  0.00    +0.000 A 
ATOM     17  C   UNL     1       0.941   9.827  18.889  0.00  0.00    +0.000 A 
ATOM     18  C   UNL     1       1.026   9.226  20.123  0.00  0.00    +0.000 A 
ATOM     19  C   UNL     1       1.725   8.057  20.317  0.00  0.00    +0.000 A 
ATOM     20  O   UNL     1       0.280   9.871  21.061  0.00  0.00    +0.000 OA
ATOM     21  C   UNL     1      -0.479  10.750  20.205  0.00  0.00    +0.000 C 
ATOM     22  O   UNL     1       0.124  10.915  18.905  0.00  0.00    +0.000 OA
ENDBRANCH   3  14
BRANCH   1  24
ATOM     23  N   UNL     1       0.765   2.893  20.850  0.00  0.00    +0.000 N 
ATOM     24  C   UNL     1       1.673   2.782  19.836  0.00  0.00    +0.000 C 
ATOM     25  O   UNL     1       1.804   1.739  19.202  0.00  0.00    +0.000 OA
ATOM     26  H   UNL     1       0.140   2.127  21.045  0.00  0.00    +0.000 HD
ATOM     27  H   UNL     1       0.638   3.795  21.298  0.00  0.00    +0.000 HD
ENDBRANCH   1  24
BRANCH  11  28
ATOM     28  N   UNL     1       7.242   8.903  17.452  0.00  0.00    +0.000 N 
ATOM     29  C   UNL     1       8.298   9.365  18.217  0.00  0.00    +0.000 C 
ATOM     30  O   UNL     1       8.968   8.696  18.998  0.00  0.00    +0.000 OA
ATOM     31  H   UNL     1       6.782   9.582  16.854  0.00  0.00    +0.000 HD
BRANCH  29  32
ATOM     32  C   UNL     1       8.610  10.823  18.130  0.00  0.00    +0.000 A 
ATOM     33  C   UNL     1       7.802  11.573  17.252  0.00  0.00    +0.000 A 
ATOM     34  C   UNL     1       7.989  12.948  17.098  0.00  0.00    +0.000 A 
ATOM     35  C   UNL     1       8.981  13.595  17.826  0.00  0.00    +0.000 A 
ATOM     36  C   UNL     1       9.781  12.870  18.709  0.00  0.00    +0.000 A 
ATOM     37  C   UNL     1       9.599  11.487  18.867  0.00  0.00    +0.000 A 
ATOM     38 CL   UNL     1      10.617  10.704  20.025  0.00  0.00    +0.000 Cl
ENDBRANCH  29  32
ENDBRANCH  11  28
TORSDOF 4
ENDMDL
MODEL 2
REMARK VINA RESULT:      -8.1      4.764      8.897
REMARK  Name = 
REMARK  4 active torsions:
REMARK  status: ('A' for Active; 'I' for Inactive)
REMARK    1  A    between atoms: C_2  and  C_4
REMARK    2  A    between atoms: N_6  and  C_7
REMARK    3  A    between atoms: C_23  and  N_24
REMARK    4  A    between atoms: C_25  and  C_27
REMARK                            x       y       z     vdW  Elec       q    Type
REMARK                         _______ _______ _______ _____ _____    ______ ____
ROOT
ATOM      1  C   UNL     1      -2.588  13.484  20.859  0.00  0.00    +0.000 A 
ATOM      2  N   UNL     1      -2.634  13.141  19.561  0.00  0.00    +0.000 NA
ATOM      3  N   UNL     1      -2.006  11.923  19.489  0.00  0.00    +0.000 N 
ATOM      4  C   UNL     1      -1.289  11.681  20.647  0.00  0.00    +0.000 A 
ATOM      5  C   UNL     1      -1.736  12.611  21.561  0.00  0.00    +0.000 A 
ATOM      6  C   UNL     1      -1.329  12.562  22.980  0.00  0.00    +0.000 C 
ATOM      7  O   UNL     1      -0.902  11.244  23.410  0.00  0.00    +0.000 OA
ATOM      8  C   UNL     1      -0.236  10.476  22.478  0.00  0.00    +0.000 A 
ATOM      9  C   UNL     1       0.559   9.462  22.999  0.00  0.00    +0.000 A 
ATOM     10  C   UNL     1       1.266   8.618  22.141  0.00  0.00    +0.000 A 
ATOM     11  C   UNL     1       1.199   8.788  20.756  0.00  0.00    +0.000 A 
ATOM     12  C   UNL     1       0.407   9.828  20.235  0.00  0.00    +0.000 A 
ATOM     13  C   UNL     1      -0.363  10.636  21.081  0.00  0.00    +0.000 A 
ENDROOT
BRANCH   3  14
ATOM     14  C   UNL     1      -2.330  11.087  18.384  0.00  0.00    +0.000 A 
ATOM     15  C   UNL     1      -3.023   9.868  18.562  0.00  0.00    +0.000 A 
ATOM     16  C   UNL     1      -3.487   9.139  17.462  0.00  0.00    +0.000 A 
ATOM     17  C   UNL     1      -3.314   9.692  16.215  0.00  0.00    +0.000 A 
ATOM     18  C   UNL     1      -2.638  10.875  16.031  0.00  0.00    +0.000 A 
ATOM     19  C   UNL     1      -2.104  11.579  17.085  0.00  0.00    +0.000 A 
ATOM     20  O   UNL     1      -2.653  11.279  14.731  0.00  0.00    +0.000 OA
ATOM     21  C   UNL     1      -3.639  10.367  14.205  0.00  0.00    +0.000 C 
ATOM     22  O   UNL     1      -3.840   9.218  15.053  0.00  0.00    +0.000 OA
ENDBRANCH   3  14
BRANCH   1  24
ATOM     23  N   UNL     1      -3.023  15.830  20.899  0.00  0.00    +0.000 N 
ATOM     24  C   UNL     1      -3.367  14.606  21.398  0.00  0.00    +0.000 C 
ATOM     25  O   UNL     1      -4.284  14.476  22.204  0.00  0.00    +0.000 OA
ATOM     26  H   UNL     1      -3.571  16.640  21.143  0.00  0.00    +0.000 HD
ATOM     27  H   UNL     1      -2.309  15.883  20.180  0.00  0.00    +0.000 HD
ENDBRANCH   1  24
BRANCH  11  28
ATOM     28  N   UNL     1       1.862   7.944  19.836  0.00  0.00    +0.000 N 
ATOM     29  C   UNL     1       2.004   6.570  19.911  0.00  0.00    +0.000 C 
ATOM     30  O   UNL     1       1.627   5.856  20.836  0.00  0.00    +0.000 OA
ATOM     31  H   UNL     1       2.230   8.395  19.005  0.00  0.00    +0.000 HD
BRANCH  29  32
ATOM     32  C   UNL     1       2.736   5.903  18.792  0.00  0.00    +0.000 A 
ATOM     33  C   UNL     1       3.789   6.644  18.219  0.00  0.00    +0.000 A 
ATOM     34  C   UNL     1       4.555   6.120  17.177  0.00  0.00    +0.000 A 
ATOM     35  C   UNL     1       4.285   4.843  16.697  0.00  0.00    +0.000 A 
ATOM     36  C   UNL     1       3.255   4.091  17.262  0.00  0.00    +0.000 A 
ATOM     37  C   UNL     1       2.481   4.614  18.309  0.00  0.00    +0.000 A 
ATOM     38 CL   UNL     1       1.264   3.571  18.962  0.00  0.00    +0.000 Cl
ENDBRANCH  29  32
ENDBRANCH  11  28
TORSDOF 4
ENDMDL
MODEL 3
REMARK VINA RESULT:      -8.0      1.033      1.304
REMARK  Name = 
REMARK  4 active torsions:
REMARK  status: ('A' for Active; 'I' for Inactive)
REMARK    1  A    between atoms: C_2  and  C_4
REMARK    2  A    between atoms: N_6  and  C_7
REMARK    3  A    between atoms: C_23  and  N_24
REMARK    4  A    between atoms: C_25  and  C_27
REMARK                            x       y       z     vdW  Elec       q    Type
REMARK                         _______ _______ _______ _____ _____    ______ ____
ROOT
ATOM      1  C   UNL     1       2.060   4.181  19.471  0.00  0.00    +0.000 A 
ATOM      2  N   UNL     1       1.806   5.416  19.933  0.00  0.00    +0.000 NA
ATOM      3  N   UNL     1       2.684   6.236  19.270  0.00  0.00    +0.000 N 
ATOM      4  C   UNL     1       3.683   5.488  18.672  0.00  0.00    +0.000 A 
ATOM      5  C   UNL     1       3.239   4.184  18.703  0.00  0.00    +0.000 A 
ATOM      6  C   UNL     1       3.958   3.103  17.999  0.00  0.00    +0.000 C 
ATOM      7  O   UNL     1       4.785   3.580  16.907  0.00  0.00    +0.000 OA
ATOM      8  C   UNL     1       5.391   4.807  17.081  0.00  0.00    +0.000 A 
ATOM      9  C   UNL     1       6.511   5.037  16.291  0.00  0.00    +0.000 A 
ATOM     10  C   UNL     1       7.191   6.252  16.380  0.00  0.00    +0.000 A 
ATOM     11  C   UNL     1       6.770   7.243  17.270  0.00  0.00    +0.000 A 
ATOM     12  C   UNL     1       5.647   6.997  18.082  0.00  0.00    +0.000 A 
ATOM     13  C   UNL     1       4.914   5.811  17.952  0.00  0.00    +0.000 A 
ENDROOT
BRANCH   3  14
ATOM     14  C   UNL     1       2.335   7.611  19.159  0.00  0.00    +0.000 A 
ATOM     15  C   UNL     1       2.416   8.293  17.923  0.00  0.00    +0.000 A 
ATOM     16  C   UNL     1       1.911   9.590  17.785  0.00  0.00    +0.000 A 
ATOM     17  C   UNL     1       1.267  10.140  18.868  0.00  0.00    +0.000 A 
ATOM     18  C   UNL     1       1.186   9.486  20.075  0.00  0.00    +0.000 A 
ATOM     19  C   UNL     1       1.737   8.240  20.266  0.00  0.00    +0.000 A 
ATOM     20  O   UNL     1       0.439  10.173  20.982  0.00  0.00    +0.000 OA
ATOM     21  C   UNL     1      -0.148  11.163  20.113  0.00  0.00    +0.000 C 
ATOM     22  O   UNL     1       0.573  11.310  18.873  0.00  0.00    +0.000 OA
ENDBRANCH   3  14
BRANCH   1  24
ATOM     23  N   UNL     1       1.055   2.721  21.070  0.00  0.00    +0.000 N 
ATOM     24  C   UNL     1       1.170   3.046  19.749  0.00  0.00    +0.000 C 
ATOM     25  O   UNL     1       0.540   2.447  18.882  0.00  0.00    +0.000 OA
ATOM     26  H   UNL     1       0.391   2.018  21.354  0.00  0.00    +0.000 HD
ATOM     27  H   UNL     1       1.537   3.290  21.758  0.00  0.00    +0.000 HD
ENDBRANCH   1  24
BRANCH  11  28
ATOM     28  N   UNL     1       7.394   8.507  17.380  0.00  0.00    +0.000 N 
ATOM     29  C   UNL     1       8.392   8.874  18.265  0.00  0.00    +0.000 C 
ATOM     30  O   UNL     1       8.860   8.172  19.156  0.00  0.00    +0.000 OA
ATOM     31  H   UNL     1       7.110   9.203  16.699  0.00  0.00    +0.000 HD
BRANCH  29  32
ATOM     32  C   UNL     1       8.901  10.276  18.165  0.00  0.00    +0.000 A 
ATOM     33  C   UNL     1      10.261  10.460  18.483  0.00  0.00    +0.000 A 
ATOM     34  C   UNL     1      10.854  11.721  18.412  0.00  0.00    +0.000 A 
ATOM     35  C   UNL     1      10.097  12.818  18.013  0.00  0.00    +0.000 A 
ATOM     36  C   UNL     1       8.752  12.650  17.682  0.00  0.00    +0.000 A 
ATOM     37  C   UNL     1       8.151  11.384  17.753  0.00  0.00    +0.000 A 
ATOM     38 CL   UNL     1       6.491  11.292  17.272  0.00  0.00    +0.000 Cl
ENDBRANCH  29  32
ENDBRANCH  11  28
TORSDOF 4
ENDMDL
MODEL 4
REMARK VINA RESULT:      -7.8      5.770      9.714
REMARK  Name = 
REMARK  4 active torsions:
REMARK  status: ('A' for Active; 'I' for Inactive)
REMARK    1  A    between atoms: C_2  and  C_4
REMARK    2  A    between atoms: N_6  and  C_7
REMARK    3  A    between atoms: C_23  and  N_24
REMARK    4  A    between atoms: C_25  and  C_27
REMARK                            x       y       z     vdW  Elec       q    Type
REMARK                         _______ _______ _______ _____ _____    ______ ____
ROOT
ATOM      1  C   UNL     1      -3.844  13.138  23.503  0.00  0.00    +0.000 A 
ATOM      2  N   UNL     1      -3.261  12.196  22.743  0.00  0.00    +0.000 NA
ATOM      3  N   UNL     1      -1.959  12.604  22.602  0.00  0.00    +0.000 N 
ATOM      4  C   UNL     1      -1.827  13.931  22.971  0.00  0.00    +0.000 A 
ATOM      5  C   UNL     1      -2.988  14.246  23.643  0.00  0.00    +0.000 A 
ATOM      6  C   UNL     1      -3.151  15.534  24.347  0.00  0.00    +0.000 C 
ATOM      7  O   UNL     1      -1.892  16.153  24.712  0.00  0.00    +0.000 OA
ATOM      8  C   UNL     1      -0.841  15.979  23.835  0.00  0.00    +0.000 A 
ATOM      9  C   UNL     1       0.176  16.921  23.929  0.00  0.00    +0.000 A 
ATOM     10  C   UNL     1       1.292  16.830  23.096  0.00  0.00    +0.000 A 
ATOM     11  C   UNL     1       1.396  15.806  22.150  0.00  0.00    +0.000 A 
ATOM     12  C   UNL     1       0.354  14.866  22.047  0.00  0.00    +0.000 A 
ATOM     13  C   UNL     1      -0.737  14.905  22.925  0.00  0.00    +0.000 A 
ENDROOT
BRANCH   3  14
ATOM     14  C   UNL     1      -0.992  11.605  22.297  0.00  0.00    +0.000 A 
ATOM     15  C   UNL     1      -0.828  10.466  23.117  0.00  0.00    +0.000 A 
ATOM     16  C   UNL     1      -0.001   9.409  22.721  0.00  0.00    +0.000 A 
ATOM     17  C   UNL     1       0.577   9.488  21.476  0.00  0.00    +0.000 A 
ATOM     18  C   UNL     1       0.426  10.593  20.673  0.00  0.00    +0.000 A 
ATOM     19  C   UNL     1      -0.320  11.680  21.063  0.00  0.00    +0.000 A 
ATOM     20  O   UNL     1       1.013  10.428  19.455  0.00  0.00    +0.000 OA
ATOM     21  C   UNL     1       1.289   9.012  19.509  0.00  0.00    +0.000 C 
ATOM     22  O   UNL     1       1.270   8.495  20.855  0.00  0.00    +0.000 OA
ENDBRANCH   3  14
BRANCH   1  24
ATOM     23  N   UNL     1      -5.257  11.949  25.015  0.00  0.00    +0.000 N 
ATOM     24  C   UNL     1      -5.177  12.951  24.091  0.00  0.00    +0.000 C 
ATOM     25  O   UNL     1      -6.147  13.652  23.817  0.00  0.00    +0.000 OA
ATOM     26  H   UNL     1      -6.110  11.818  25.535  0.00  0.00    +0.000 HD
ATOM     27  H   UNL     1      -4.413  11.443  25.264  0.00  0.00    +0.000 HD
ENDBRANCH   1  24
BRANCH  11  28
ATOM     28  N   UNL     1       2.517  15.638  21.304  0.00  0.00    +0.000 N 
ATOM     29  C   UNL     1       2.695  16.163  20.037  0.00  0.00    +0.000 C 
ATOM     30  O   UNL     1       1.871  16.817  19.405  0.00  0.00    +0.000 OA
ATOM     31  H   UNL     1       3.293  15.115  21.694  0.00  0.00    +0.000 HD
BRANCH  29  32
ATOM     32  C   UNL     1       3.987  15.853  19.353  0.00  0.00    +0.000 A 
ATOM     33  C   UNL     1       5.040  16.759  19.587  0.00  0.00    +0.000 A 
ATOM     34  C   UNL     1       6.298  16.566  19.014  0.00  0.00    +0.000 A 
ATOM     35  C   UNL     1       6.524  15.458  18.204  0.00  0.00    +0.000 A 
ATOM     36  C   UNL     1       5.496  14.544  17.973  0.00  0.00    +0.000 A 
ATOM     37  C   UNL     1       4.229  14.734  18.545  0.00  0.00    +0.000 A 
ATOM     38 CL   UNL     1       3.048  13.510  18.226  0.00  0.00    +0.000 Cl
ENDBRANCH  29  32
ENDBRANCH  11  28
TORSDOF 4
ENDMDL
MODEL 5
REMARK VINA RESULT:      -7.8      5.131      9.504
REMARK  Name = 
REMARK  4 active torsions:
REMARK  status: ('A' for Active; 'I' for Inactive)
REMARK    1  A    between atoms: C_2  and  C_4
REMARK    2  A    between atoms: N_6  and  C_7
REMARK    3  A    between atoms: C_23  and  N_24
REMARK    4  A    between atoms: C_25  and  C_27
REMARK                            x       y       z     vdW  Elec       q    Type
REMARK                         _______ _______ _______ _____ _____    ______ ____
ROOT
ATOM      1  C   UNL     1       2.168   8.582  18.378  0.00  0.00    +0.000 A 
ATOM      2  N   UNL     1       1.936   9.735  17.729  0.00  0.00    +0.000 NA
ATOM      3  N   UNL     1       1.360  10.561  18.661  0.00  0.00    +0.000 N 
ATOM      4  C   UNL     1       0.932   9.831  19.755  0.00  0.00    +0.000 A 
ATOM      5  C   UNL     1       1.534   8.597  19.635  0.00  0.00    +0.000 A 
ATOM      6  C   UNL     1       1.458   7.589  20.711  0.00  0.00    +0.000 C 
ATOM      7  O   UNL     1       1.195   8.161  22.017  0.00  0.00    +0.000 OA
ATOM      8  C   UNL     1       0.370   9.266  22.052  0.00  0.00    +0.000 A 
ATOM      9  C   UNL     1      -0.244   9.513  23.274  0.00  0.00    +0.000 A 
ATOM     10  C   UNL     1      -1.089  10.614  23.421  0.00  0.00    +0.000 A 
ATOM     11  C   UNL     1      -1.342  11.469  22.346  0.00  0.00    +0.000 A 
ATOM     12  C   UNL     1      -0.733  11.203  21.106  0.00  0.00    +0.000 A 
ATOM     13  C   UNL     1       0.173  10.144  20.964  0.00  0.00    +0.000 A 
ENDROOT
BRANCH   3  14
ATOM     14  C   UNL     1       1.463  11.964  18.440  0.00  0.00    +0.000 A 
ATOM     15  C   UNL     1       0.352  12.819  18.620  0.00  0.00    +0.000 A 
ATOM     16  C   UNL     1       0.501  14.209  18.569  0.00  0.00    +0.000 A 
ATOM     17  C   UNL     1       1.774  14.706  18.418  0.00  0.00    +0.000 A 
ATOM     18  C   UNL     1       2.860  13.882  18.239  0.00  0.00    +0.000 A 
ATOM     19  C   UNL     1       2.737  12.513  18.209  0.00  0.00    +0.000 A 
ATOM     20  O   UNL     1       4.030  14.577  18.191  0.00  0.00    +0.000 OA
ATOM     21  C   UNL     1       3.564  15.867  18.637  0.00  0.00    +0.000 C 
ATOM     22  O   UNL     1       2.135  16.015  18.513  0.00  0.00    +0.000 OA
ENDBRANCH   3  14
BRANCH   1  24
ATOM     23  N   UNL     1       2.445   6.270  17.853  0.00  0.00    +0.000 N 
ATOM     24  C   UNL     1       3.000   7.517  17.803  0.00  0.00    +0.000 C 
ATOM     25  O   UNL     1       4.093   7.713  17.281  0.00  0.00    +0.000 OA
ATOM     26  H   UNL     1       2.906   5.500  17.394  0.00  0.00    +0.000 HD
ATOM     27  H   UNL     1       1.508   6.166  18.228  0.00  0.00    +0.000 HD
ENDBRANCH   1  24
BRANCH  11  28
ATOM     28  N   UNL     1      -2.159  12.620  22.442  0.00  0.00    +0.000 N 
ATOM     29  C   UNL     1      -3.309  12.771  23.196  0.00  0.00    +0.000 C 
ATOM     30  O   UNL     1      -3.852  11.896  23.864  0.00  0.00    +0.000 OA
ATOM     31  H   UNL     1      -1.833  13.438  21.939  0.00  0.00    +0.000 HD
BRANCH  29  32
ATOM     32  C   UNL     1      -3.983  14.103  23.141  0.00  0.00    +0.000 A 
ATOM     33  C   UNL     1      -4.840  14.314  22.043  0.00  0.00    +0.000 A 
ATOM     34  C   UNL     1      -5.536  15.514  21.892  0.00  0.00    +0.000 A 
ATOM     35  C   UNL     1      -5.393  16.519  22.843  0.00  0.00    +0.000 A 
ATOM     36  C   UNL     1      -4.559  16.321  23.943  0.00  0.00    +0.000 A 
ATOM     37  C   UNL     1      -3.855  15.117  24.099  0.00  0.00    +0.000 A 
ATOM     38 CL   UNL     1      -2.890  14.968  25.528  0.00  0.00    +0.000 Cl
ENDBRANCH  29  32
ENDBRANCH  11  28
TORSDOF 4
ENDMDL
MODEL 6
REMARK VINA RESULT:      -7.8      1.405      1.691
REMARK  Name = 
REMARK  4 active torsions:
REMARK  status: ('A' for Active; 'I' for Inactive)
REMARK    1  A    between atoms: C_2  and  C_4
REMARK    2  A    between atoms: N_6  and  C_7
REMARK    3  A    between atoms: C_23  and  N_24
REMARK    4  A    between atoms: C_25  and  C_27
REMARK                            x       y       z     vdW  Elec       q    Type
REMARK                         _______ _______ _______ _____ _____    ______ ____
ROOT
ATOM      1  C   UNL     1       2.097   3.678  18.654  0.00  0.00    +0.000 A 
ATOM      2  N   UNL     1       1.813   4.831  19.281  0.00  0.00    +0.000 NA
ATOM      3  N   UNL     1       2.829   5.687  18.937  0.00  0.00    +0.000 N 
ATOM      4  C   UNL     1       3.889   4.983  18.394  0.00  0.00    +0.000 A 
ATOM      5  C   UNL     1       3.396   3.728  18.112  0.00  0.00    +0.000 A 
ATOM      6  C   UNL     1       4.186   2.735  17.358  0.00  0.00    +0.000 C 
ATOM      7  O   UNL     1       5.216   3.330  16.529  0.00  0.00    +0.000 OA
ATOM      8  C   UNL     1       5.829   4.463  17.023  0.00  0.00    +0.000 A 
ATOM      9  C   UNL     1       7.082   4.744  16.491  0.00  0.00    +0.000 A 
ATOM     10  C   UNL     1       7.782   5.874  16.913  0.00  0.00    +0.000 A 
ATOM     11  C   UNL     1       7.247   6.726  17.883  0.00  0.00    +0.000 A 
ATOM     12  C   UNL     1       5.987   6.426  18.432  0.00  0.00    +0.000 A 
ATOM     13  C   UNL     1       5.242   5.335  17.966  0.00  0.00    +0.000 A 
ENDROOT
BRANCH   3  14
ATOM     14  C   UNL     1       2.561   7.082  19.018  0.00  0.00    +0.000 A 
ATOM     15  C   UNL     1       2.686   7.922  17.888  0.00  0.00    +0.000 A 
ATOM     16  C   UNL     1       2.259   9.253  17.932  0.00  0.00    +0.000 A 
ATOM     17  C   UNL     1       1.644   9.685  19.084  0.00  0.00    +0.000 A 
ATOM     18  C   UNL     1       1.521   8.877  20.189  0.00  0.00    +0.000 A 
ATOM     19  C   UNL     1       1.997   7.586  20.204  0.00  0.00    +0.000 A 
ATOM     20  O   UNL     1       0.811   9.474  21.186  0.00  0.00    +0.000 OA
ATOM     21  C   UNL     1       0.286  10.607  20.465  0.00  0.00    +0.000 C 
ATOM     22  O   UNL     1       1.019  10.882  19.253  0.00  0.00    +0.000 OA
ENDBRANCH   3  14
BRANCH   1  24
ATOM     23  N   UNL     1       1.606   1.363  18.960  0.00  0.00    +0.000 N 
ATOM     24  C   UNL     1       1.127   2.579  18.565  0.00  0.00    +0.000 C 
ATOM     25  O   UNL     1      -0.037   2.725  18.202  0.00  0.00    +0.000 OA
ATOM     26  H   UNL     1       0.978   0.576  19.021  0.00  0.00    +0.000 HD
ATOM     27  H   UNL     1       2.552   1.302  19.322  0.00  0.00    +0.000 HD
ENDBRANCH   1  24
BRANCH  11  28
ATOM     28  N   UNL     1       7.891   7.905  18.324  0.00  0.00    +0.000 N 
ATOM     29  C   UNL     1       7.771   9.175  17.790  0.00  0.00    +0.000 C 
ATOM     30  O   UNL     1       7.127   9.479  16.790  0.00  0.00    +0.000 OA
ATOM     31  H   UNL     1       8.465   7.812  19.156  0.00  0.00    +0.000 HD
BRANCH  29  32
ATOM     32  C   UNL     1       8.547  10.265  18.456  0.00  0.00    +0.000 A 
ATOM     33  C   UNL     1       9.420   9.858  19.485  0.00  0.00    +0.000 A 
ATOM     34  C   UNL     1      10.208  10.784  20.170  0.00  0.00    +0.000 A 
ATOM     35  C   UNL     1      10.142  12.131  19.831  0.00  0.00    +0.000 A 
ATOM     36  C   UNL     1       9.293  12.549  18.806  0.00  0.00    +0.000 A 
ATOM     37  C   UNL     1       8.497  11.622  18.114  0.00  0.00    +0.000 A 
ATOM     38 CL   UNL     1       7.521  12.251  16.831  0.00  0.00    +0.000 Cl
ENDBRANCH  29  32
ENDBRANCH  11  28
TORSDOF 4
ENDMDL
MODEL 7
REMARK VINA RESULT:      -7.7      6.592     10.121
REMARK  Name = 
REMARK  4 active torsions:
REMARK  status: ('A' for Active; 'I' for Inactive)
REMARK    1  A    between atoms: C_2  and  C_4
REMARK    2  A    between atoms: N_6  and  C_7
REMARK    3  A    between atoms: C_23  and  N_24
REMARK    4  A    between atoms: C_25  and  C_27
REMARK                            x       y       z     vdW  Elec       q    Type
REMARK                         _______ _______ _______ _____ _____    ______ ____
ROOT
ATOM      1  C   UNL     1      -4.891  13.435  23.256  0.00  0.00    +0.000 A 
ATOM      2  N   UNL     1      -4.337  12.516  22.448  0.00  0.00    +0.000 NA
ATOM      3  N   UNL     1      -3.028  12.903  22.308  0.00  0.00    +0.000 N 
ATOM      4  C   UNL     1      -2.864  14.210  22.734  0.00  0.00    +0.000 A 
ATOM      5  C   UNL     1      -4.010  14.518  23.434  0.00  0.00    +0.000 A 
ATOM      6  C   UNL     1      -4.139  15.776  24.197  0.00  0.00    +0.000 C 
ATOM      7  O   UNL     1      -2.863  16.352  24.572  0.00  0.00    +0.000 OA
ATOM      8  C   UNL     1      -1.826  16.197  23.676  0.00  0.00    +0.000 A 
ATOM      9  C   UNL     1      -0.789  17.113  23.798  0.00  0.00    +0.000 A 
ATOM     10  C   UNL     1       0.315  17.036  22.948  0.00  0.00    +0.000 A 
ATOM     11  C   UNL     1       0.387  16.054  21.956  0.00  0.00    +0.000 A 
ATOM     12  C   UNL     1      -0.675  15.141  21.825  0.00  0.00    +0.000 A 
ATOM     13  C   UNL     1      -1.755  15.163  22.717  0.00  0.00    +0.000 A 
ENDROOT
BRANCH   3  14
ATOM     14  C   UNL     1      -2.086  11.900  21.946  0.00  0.00    +0.000 A 
ATOM     15  C   UNL     1      -1.593  11.796  20.626  0.00  0.00    +0.000 A 
ATOM     16  C   UNL     1      -0.544  10.923  20.318  0.00  0.00    +0.000 A 
ATOM     17  C   UNL     1       0.036  10.235  21.358  0.00  0.00    +0.000 A 
ATOM     18  C   UNL     1      -0.438  10.328  22.645  0.00  0.00    +0.000 A 
ATOM     19  C   UNL     1      -1.515  11.120  22.969  0.00  0.00    +0.000 A 
ATOM     20  O   UNL     1       0.330   9.631  23.527  0.00  0.00    +0.000 OA
ATOM     21  C   UNL     1       1.465   9.343  22.685  0.00  0.00    +0.000 C 
ATOM     22  O   UNL     1       1.163   9.477  21.282  0.00  0.00    +0.000 OA
ENDBRANCH   3  14
BRANCH   1  24
ATOM     23  N   UNL     1      -6.460  11.992  24.330  0.00  0.00    +0.000 N 
ATOM     24  C   UNL     1      -6.220  13.249  23.852  0.00  0.00    +0.000 C 
ATOM     25  O   UNL     1      -7.052  14.146  23.957  0.00  0.00    +0.000 OA
ATOM     26  H   UNL     1      -7.309  11.807  24.839  0.00  0.00    +0.000 HD
ATOM     27  H   UNL     1      -5.717  11.302  24.288  0.00  0.00    +0.000 HD
ENDBRANCH   1  24
BRANCH  11  28
ATOM     28  N   UNL     1       1.494  15.902  21.090  0.00  0.00    +0.000 N 
ATOM     29  C   UNL     1       2.626  15.136  21.303  0.00  0.00    +0.000 C 
ATOM     30  O   UNL     1       2.887  14.506  22.323  0.00  0.00    +0.000 OA
ATOM     31  H   UNL     1       1.422  16.369  20.192  0.00  0.00    +0.000 HD
BRANCH  29  32
ATOM     32  C   UNL     1       3.650  15.127  20.216  0.00  0.00    +0.000 A 
ATOM     33  C   UNL     1       4.852  15.807  20.497  0.00  0.00    +0.000 A 
ATOM     34  C   UNL     1       5.889  15.855  19.564  0.00  0.00    +0.000 A 
ATOM     35  C   UNL     1       5.743  15.215  18.337  0.00  0.00    +0.000 A 
ATOM     36  C   UNL     1       4.565  14.527  18.048  0.00  0.00    +0.000 A 
ATOM     37  C   UNL     1       3.518  14.477  18.982  0.00  0.00    +0.000 A 
ATOM     38 CL   UNL     1       2.126  13.554  18.531  0.00  0.00    +0.000 Cl
ENDBRANCH  29  32
ENDBRANCH  11  28
TORSDOF 4
ENDMDL
MODEL 8
REMARK VINA RESULT:      -7.7      5.003      9.211
REMARK  Name = 
REMARK  4 active torsions:
REMARK  status: ('A' for Active; 'I' for Inactive)
REMARK    1  A    between atoms: C_2  and  C_4
REMARK    2  A    between atoms: N_6  and  C_7
REMARK    3  A    between atoms: C_23  and  N_24
REMARK    4  A    between atoms: C_25  and  C_27
REMARK                            x       y       z     vdW  Elec       q    Type
REMARK                         _______ _______ _______ _____ _____    ______ ____
ROOT
ATOM      1  C   UNL     1       2.160   8.609  18.384  0.00  0.00    +0.000 A 
ATOM      2  N   UNL     1       1.938   9.765  17.737  0.00  0.00    +0.000 NA
ATOM      3  N   UNL     1       1.360  10.591  18.667  0.00  0.00    +0.000 N 
ATOM      4  C   UNL     1       0.921   9.859  19.756  0.00  0.00    +0.000 A 
ATOM      5  C   UNL     1       1.517   8.622  19.636  0.00  0.00    +0.000 A 
ATOM      6  C   UNL     1       1.429   7.611  20.708  0.00  0.00    +0.000 C 
ATOM      7  O   UNL     1       1.160   8.181  22.014  0.00  0.00    +0.000 OA
ATOM      8  C   UNL     1       0.340   9.290  22.047  0.00  0.00    +0.000 A 
ATOM      9  C   UNL     1      -0.282   9.536  23.266  0.00  0.00    +0.000 A 
ATOM     10  C   UNL     1      -1.123  10.640  23.411  0.00  0.00    +0.000 A 
ATOM     11  C   UNL     1      -1.364  11.500  22.336  0.00  0.00    +0.000 A 
ATOM     12  C   UNL     1      -0.748  11.235  21.100  0.00  0.00    +0.000 A 
ATOM     13  C   UNL     1       0.154  10.172  20.961  0.00  0.00    +0.000 A 
ENDROOT
BRANCH   3  14
ATOM     14  C   UNL     1       1.470  11.994  18.452  0.00  0.00    +0.000 A 
ATOM     15  C   UNL     1       0.367  12.856  18.643  0.00  0.00    +0.000 A 
ATOM     16  C   UNL     1       0.525  14.246  18.598  0.00  0.00    +0.000 A 
ATOM     17  C   UNL     1       1.801  14.734  18.440  0.00  0.00    +0.000 A 
ATOM     18  C   UNL     1       2.880  13.903  18.249  0.00  0.00    +0.000 A 
ATOM     19  C   UNL     1       2.747  12.535  18.215  0.00  0.00    +0.000 A 
ATOM     20  O   UNL     1       4.054  14.590  18.196  0.00  0.00    +0.000 OA
ATOM     21  C   UNL     1       3.601  15.882  18.652  0.00  0.00    +0.000 C 
ATOM     22  O   UNL     1       2.172  16.040  18.538  0.00  0.00    +0.000 OA
ENDBRANCH   3  14
BRANCH   1  24
ATOM     23  N   UNL     1       2.436   6.295  17.866  0.00  0.00    +0.000 N 
ATOM     24  C   UNL     1       2.991   7.542  17.811  0.00  0.00    +0.000 C 
ATOM     25  O   UNL     1       4.083   7.736  17.285  0.00  0.00    +0.000 OA
ATOM     26  H   UNL     1       2.897   5.524  17.410  0.00  0.00    +0.000 HD
ATOM     27  H   UNL     1       1.499   6.192  18.243  0.00  0.00    +0.000 HD
ENDBRANCH   1  24
BRANCH  11  28
ATOM     28  N   UNL     1      -2.176  12.654  22.431  0.00  0.00    +0.000 N 
ATOM     29  C   UNL     1      -1.860  13.852  23.047  0.00  0.00    +0.000 C 
ATOM     30  O   UNL     1      -0.835  14.089  23.678  0.00  0.00    +0.000 OA
ATOM     31  H   UNL     1      -3.067  12.611  21.948  0.00  0.00    +0.000 HD
BRANCH  29  32
ATOM     32  C   UNL     1      -2.890  14.933  22.991  0.00  0.00    +0.000 A 
ATOM     33  C   UNL     1      -3.773  15.000  24.087  0.00  0.00    +0.000 A 
ATOM     34  C   UNL     1      -4.767  15.977  24.153  0.00  0.00    +0.000 A 
ATOM     35  C   UNL     1      -4.889  16.908  23.127  0.00  0.00    +0.000 A 
ATOM     36  C   UNL     1      -4.016  16.863  22.040  0.00  0.00    +0.000 A 
ATOM     37  C   UNL     1      -3.015  15.882  21.968  0.00  0.00    +0.000 A 
ATOM     38 CL   UNL     1      -1.960  15.957  20.598  0.00  0.00    +0.000 Cl
ENDBRANCH  29  32
ENDBRANCH  11  28
TORSDOF 4
ENDMDL
MODEL 9
REMARK VINA RESULT:      -7.7      4.349      7.804
REMARK  Name = 
REMARK  4 active torsions:
REMARK  status: ('A' for Active; 'I' for Inactive)
REMARK    1  A    between atoms: C_2  and  C_4
REMARK    2  A    between atoms: N_6  and  C_7
REMARK    3  A    between atoms: C_23  and  N_24
REMARK    4  A    between atoms: C_25  and  C_27
REMARK                            x       y       z     vdW  Elec       q    Type
REMARK                         _______ _______ _______ _____ _____    ______ ____
ROOT
ATOM      1  C   UNL     1      -2.143  11.682  18.443  0.00  0.00    +0.000 A 
ATOM      2  N   UNL     1      -1.225  10.733  18.193  0.00  0.00    +0.000 NA
ATOM      3  N   UNL     1      -0.162  11.038  19.005  0.00  0.00    +0.000 N 
ATOM      4  C   UNL     1      -0.280  12.330  19.488  0.00  0.00    +0.000 A 
ATOM      5  C   UNL     1      -1.579  12.707  19.226  0.00  0.00    +0.000 A 
ATOM      6  C   UNL     1      -2.141  13.967  19.750  0.00  0.00    +0.000 C 
ATOM      7  O   UNL     1      -1.448  14.461  20.924  0.00  0.00    +0.000 OA
ATOM      8  C   UNL     1      -0.087  14.244  20.975  0.00  0.00    +0.000 A 
ATOM      9  C   UNL     1       0.621  15.092  21.817  0.00  0.00    +0.000 A 
ATOM     10  C   UNL     1       2.003  14.949  21.951  0.00  0.00    +0.000 A 
ATOM     11  C   UNL     1       2.693  13.969  21.234  0.00  0.00    +0.000 A 
ATOM     12  C   UNL     1       1.973  13.125  20.369  0.00  0.00    +0.000 A 
ATOM     13  C   UNL     1       0.578  13.211  20.279  0.00  0.00    +0.000 A 
ENDROOT
BRANCH   3  14
ATOM     14  C   UNL     1       0.726   9.979  19.341  0.00  0.00    +0.000 A 
ATOM     15  C   UNL     1       0.667   9.342  20.602  0.00  0.00    +0.000 A 
ATOM     16  C   UNL     1       1.423   8.194  20.862  0.00  0.00    +0.000 A 
ATOM     17  C   UNL     1       2.158   7.669  19.825  0.00  0.00    +0.000 A 
ATOM     18  C   UNL     1       2.224   8.283  18.597  0.00  0.00    +0.000 A 
ATOM     19  C   UNL     1       1.552   9.453  18.331  0.00  0.00    +0.000 A 
ATOM     20  O   UNL     1       2.939   7.554  17.696  0.00  0.00    +0.000 OA
ATOM     21  C   UNL     1       3.058   6.315  18.426  0.00  0.00    +0.000 C 
ATOM     22  O   UNL     1       2.817   6.478  19.838  0.00  0.00    +0.000 OA
ENDBRANCH   3  14
BRANCH   1  24
ATOM     23  N   UNL     1      -3.668  11.738  16.608  0.00  0.00    +0.000 N 
ATOM     24  C   UNL     1      -3.524  11.578  17.957  0.00  0.00    +0.000 C 
ATOM     25  O   UNL     1      -4.485  11.331  18.680  0.00  0.00    +0.000 OA
ATOM     26  H   UNL     1      -4.569  11.586  16.182  0.00  0.00    +0.000 HD
ATOM     27  H   UNL     1      -2.838  11.868  16.039  0.00  0.00    +0.000 HD
ENDBRANCH   1  24
BRANCH  11  28
ATOM     28  N   UNL     1       4.085  13.751  21.355  0.00  0.00    +0.000 N 
ATOM     29  C   UNL     1       4.874  13.974  22.469  0.00  0.00    +0.000 C 
ATOM     30  O   UNL     1       4.501  14.466  23.530  0.00  0.00    +0.000 OA
ATOM     31  H   UNL     1       4.541  13.338  20.549  0.00  0.00    +0.000 HD
BRANCH  29  32
ATOM     32  C   UNL     1       6.326  13.642  22.347  0.00  0.00    +0.000 A 
ATOM     33  C   UNL     1       7.092  14.516  21.550  0.00  0.00    +0.000 A 
ATOM     34  C   UNL     1       8.461  14.317  21.374  0.00  0.00    +0.000 A 
ATOM     35  C   UNL     1       9.089  13.244  21.998  0.00  0.00    +0.000 A 
ATOM     36  C   UNL     1       8.348  12.376  22.800  0.00  0.00    +0.000 A 
ATOM     37  C   UNL     1       6.970  12.571  22.980  0.00  0.00    +0.000 A 
ATOM     38 CL   UNL     1       6.166  11.460  24.035  0.00  0.00    +0.000 Cl
ENDBRANCH  29  32
ENDBRANCH  11  28
TORSDOF 4
ENDMDL
