MODEL 1
REMARK VINA RESULT:      -9.1      0.000      0.000
REMARK  Name = 
REMARK  2 active torsions:
REMARK  status: ('A' for Active; 'I' for Inactive)
REMARK    1  A    between atoms: C_4  and  C_5
REMARK    2  A    between atoms: C_16  and  C_17
REMARK                            x       y       z     vdW  Elec       q    Type
REMARK                         _______ _______ _______ _____ _____    ______ ____
ROOT
ATOM      1  O   UNL     1       6.967   4.533  18.485  0.00  0.00    +0.000 OA
ATOM      2  C   UNL     1       5.809   4.272  18.188  0.00  0.00    +0.000 C 
ATOM      3  N   UNL     1       4.900   3.932  19.148  0.00  0.00    +0.000 N 
ATOM      4  C   UNL     1       3.488   3.801  18.899  0.00  0.00    +0.000 C 
ATOM      5  C   UNL     1       3.087   3.691  17.419  0.00  0.00    +0.000 C 
ATOM      6  N   UNL     1       4.075   4.103  16.417  0.00  0.00    +0.000 NA
ATOM      7  C   UNL     1       5.305   4.329  16.738  0.00  0.00    +0.000 C 
ATOM      8  H   UNL     1       5.223   4.034  20.101  0.00  0.00    +0.000 HD
ENDROOT
BRANCH   4   9
ATOM      9  C   UNL     1       2.777   4.903  19.633  0.00  0.00    +0.000 A 
ATOM     10  C   UNL     1       2.192   4.838  20.885  0.00  0.00    +0.000 A 
ATOM     11  N   UNL     1       1.667   6.067  21.183  0.00  0.00    +0.000 N 
ATOM     12  C   UNL     1       1.889   6.943  20.148  0.00  0.00    +0.000 A 
ATOM     13  C   UNL     1       1.532   8.293  20.017  0.00  0.00    +0.000 A 
ATOM     14  C   UNL     1       1.887   8.946  18.834  0.00  0.00    +0.000 A 
ATOM     15  C   UNL     1       2.572   8.277  17.824  0.00  0.00    +0.000 A 
ATOM     16  C   UNL     1       2.926   6.931  17.973  0.00  0.00    +0.000 A 
ATOM     17  C   UNL     1       2.579   6.245  19.158  0.00  0.00    +0.000 A 
ATOM     18  H   UNL     1       1.183   6.302  22.039  0.00  0.00    +0.000 HD
ENDBRANCH   4   9
BRANCH   7  19
ATOM     19  C   UNL     1       6.212   4.644  15.632  0.00  0.00    +0.000 A 
ATOM     20  C   UNL     1       7.316   5.476  15.708  0.00  0.00    +0.000 A 
ATOM     21  N   UNL     1       7.905   5.540  14.476  0.00  0.00    +0.000 N 
ATOM     22  C   UNL     1       7.207   4.773  13.576  0.00  0.00    +0.000 A 
ATOM     23  C   UNL     1       7.424   4.569  12.207  0.00  0.00    +0.000 A 
ATOM     24  C   UNL     1       6.533   3.734  11.527  0.00  0.00    +0.000 A 
ATOM     25  C   UNL     1       5.479   3.117  12.192  0.00  0.00    +0.000 A 
ATOM     26  C   UNL     1       5.283   3.326  13.562  0.00  0.00    +0.000 A 
ATOM     27  C   UNL     1       6.155   4.176  14.274  0.00  0.00    +0.000 A 
ATOM     28  H   UNL     1       8.725   6.087  14.250  0.00  0.00    +0.000 HD
ENDBRANCH   7  19
TORSDOF 2
ENDMDL
MODEL 2
REMARK VINA RESULT:      -8.9      4.541      8.452
REMARK  Name = 
REMARK  2 active torsions:
REMARK  status: ('A' for Active; 'I' for Inactive)
REMARK    1  A    between atoms: C_4  and  C_5
REMARK    2  A    between atoms: C_16  and  C_17
REMARK                            x       y       z     vdW  Elec       q    Type
REMARK                         _______ _______ _______ _____ _____    ______ ____
ROOT
ATOM      1  O   UNL     1       0.598   8.722  21.651  0.00  0.00    +0.000 OA
ATOM      2  C   UNL     1       1.164   8.568  20.577  0.00  0.00    +0.000 C 
ATOM      3  N   UNL     1       2.124   7.610  20.425  0.00  0.00    +0.000 N 
ATOM      4  C   UNL     1       2.691   7.243  19.153  0.00  0.00    +0.000 C 
ATOM      5  C   UNL     1       2.441   8.240  18.009  0.00  0.00    +0.000 C 
ATOM      6  N   UNL     1       1.374   9.228  18.191  0.00  0.00    +0.000 NA
ATOM      7  C   UNL     1       0.819   9.414  19.343  0.00  0.00    +0.000 C 
ATOM      8  H   UNL     1       2.233   6.982  21.210  0.00  0.00    +0.000 HD
ENDROOT
BRANCH   4   9
ATOM      9  C   UNL     1       2.258   5.840  18.832  0.00  0.00    +0.000 A 
ATOM     10  C   UNL     1       1.924   5.326  17.592  0.00  0.00    +0.000 A 
ATOM     11  N   UNL     1       1.602   4.004  17.743  0.00  0.00    +0.000 N 
ATOM     12  C   UNL     1       1.714   3.634  19.062  0.00  0.00    +0.000 A 
ATOM     13  C   UNL     1       1.487   2.391  19.672  0.00  0.00    +0.000 A 
ATOM     14  C   UNL     1       1.674   2.303  21.054  0.00  0.00    +0.000 A 
ATOM     15  C   UNL     1       2.075   3.412  21.794  0.00  0.00    +0.000 A 
ATOM     16  C   UNL     1       2.303   4.643  21.169  0.00  0.00    +0.000 A 
ATOM     17  C   UNL     1       2.119   4.762  19.773  0.00  0.00    +0.000 A 
ATOM     18  H   UNL     1       1.321   3.383  16.996  0.00  0.00    +0.000 HD
ENDBRANCH   4   9
BRANCH   7  19
ATOM     19  C   UNL     1      -0.168  10.493  19.415  0.00  0.00    +0.000 A 
ATOM     20  C   UNL     1      -0.033  11.660  20.147  0.00  0.00    +0.000 A 
ATOM     21  N   UNL     1      -1.160  12.417  19.982  0.00  0.00    +0.000 N 
ATOM     22  C   UNL     1      -2.049  11.771  19.159  0.00  0.00    +0.000 A 
ATOM     23  C   UNL     1      -3.331  12.150  18.743  0.00  0.00    +0.000 A 
ATOM     24  C   UNL     1      -4.025  11.277  17.901  0.00  0.00    +0.000 A 
ATOM     25  C   UNL     1      -3.453  10.080  17.482  0.00  0.00    +0.000 A 
ATOM     26  C   UNL     1      -2.167   9.721  17.901  0.00  0.00    +0.000 A 
ATOM     27  C   UNL     1      -1.447  10.573  18.764  0.00  0.00    +0.000 A 
ATOM     28  H   UNL     1      -1.328  13.315  20.416  0.00  0.00    +0.000 HD
ENDBRANCH   7  19
TORSDOF 2
ENDMDL
MODEL 3
REMARK VINA RESULT:      -8.8      4.063      8.302
REMARK  Name = 
REMARK  2 active torsions:
REMARK  status: ('A' for Active; 'I' for Inactive)
REMARK    1  A    between atoms: C_4  and  C_5
REMARK    2  A    between atoms: C_16  and  C_17
REMARK                            x       y       z     vdW  Elec       q    Type
REMARK                         _______ _______ _______ _____ _____    ______ ____
ROOT
ATOM      1  O   UNL     1       0.586   9.062  22.029  0.00  0.00    +0.000 OA
ATOM      2  C   UNL     1       1.119   8.675  20.998  0.00  0.00    +0.000 C 
ATOM      3  N   UNL     1       2.010   7.641  21.017  0.00  0.00    +0.000 N 
ATOM      4  C   UNL     1       2.525   7.010  19.830  0.00  0.00    +0.000 C 
ATOM      5  C   UNL     1       2.322   7.797  18.525  0.00  0.00    +0.000 C 
ATOM      6  N   UNL     1       1.328   8.874  18.530  0.00  0.00    +0.000 NA
ATOM      7  C   UNL     1       0.810   9.305  19.632  0.00  0.00    +0.000 C 
ATOM      8  H   UNL     1       2.091   7.160  21.903  0.00  0.00    +0.000 HD
ENDROOT
BRANCH   4   9
ATOM      9  C   UNL     1       1.992   5.606  19.774  0.00  0.00    +0.000 A 
ATOM     10  C   UNL     1       0.979   5.059  20.540  0.00  0.00    +0.000 A 
ATOM     11  N   UNL     1       0.800   3.757  20.159  0.00  0.00    +0.000 N 
ATOM     12  C   UNL     1       1.680   3.429  19.156  0.00  0.00    +0.000 A 
ATOM     13  C   UNL     1       1.854   2.219  18.468  0.00  0.00    +0.000 A 
ATOM     14  C   UNL     1       2.845   2.168  17.485  0.00  0.00    +0.000 A 
ATOM     15  C   UNL     1       3.629   3.282  17.200  0.00  0.00    +0.000 A 
ATOM     16  C   UNL     1       3.440   4.484  17.892  0.00  0.00    +0.000 A 
ATOM     17  C   UNL     1       2.446   4.564  18.893  0.00  0.00    +0.000 A 
ATOM     18  H   UNL     1       0.120   3.122  20.555  0.00  0.00    +0.000 HD
ENDBRANCH   4   9
BRANCH   7  19
ATOM     19  C   UNL     1      -0.101  10.446  19.512  0.00  0.00    +0.000 A 
ATOM     20  C   UNL     1       0.085  11.689  20.092  0.00  0.00    +0.000 A 
ATOM     21  N   UNL     1      -0.977  12.489  19.772  0.00  0.00    +0.000 N 
ATOM     22  C   UNL     1      -1.873  11.797  18.995  0.00  0.00    +0.000 A 
ATOM     23  C   UNL     1      -3.106  12.200  18.467  0.00  0.00    +0.000 A 
ATOM     24  C   UNL     1      -3.824  11.270  17.712  0.00  0.00    +0.000 A 
ATOM     25  C   UNL     1      -3.321   9.993  17.481  0.00  0.00    +0.000 A 
ATOM     26  C   UNL     1      -2.084   9.610  18.010  0.00  0.00    +0.000 A 
ATOM     27  C   UNL     1      -1.342  10.522  18.791  0.00  0.00    +0.000 A 
ATOM     28  H   UNL     1      -1.098  13.445  20.076  0.00  0.00    +0.000 HD
ENDBRANCH   7  19
TORSDOF 2
ENDMDL
MODEL 4
REMARK VINA RESULT:      -8.8      4.100      8.204
REMARK  Name = 
REMARK  2 active torsions:
REMARK  status: ('A' for Active; 'I' for Inactive)
REMARK    1  A    between atoms: C_4  and  C_5
REMARK    2  A    between atoms: C_16  and  C_17
REMARK                            x       y       z     vdW  Elec       q    Type
REMARK                         _______ _______ _______ _____ _____    ______ ____
ROOT
ATOM      1  O   UNL     1       0.628   9.233  21.481  0.00  0.00    +0.000 OA
ATOM      2  C   UNL     1       1.255   8.715  20.567  0.00  0.00    +0.000 C 
ATOM      3  N   UNL     1       2.063   7.639  20.796  0.00  0.00    +0.000 N 
ATOM      4  C   UNL     1       2.675   6.864  19.749  0.00  0.00    +0.000 C 
ATOM      5  C   UNL     1       2.687   7.524  18.361  0.00  0.00    +0.000 C 
ATOM      6  N   UNL     1       1.776   8.651  18.138  0.00  0.00    +0.000 NA
ATOM      7  C   UNL     1       1.158   9.219  19.120  0.00  0.00    +0.000 C 
ATOM      8  H   UNL     1       2.002   7.246  21.726  0.00  0.00    +0.000 HD
ENDROOT
BRANCH   4   9
ATOM      9  C   UNL     1       2.058   5.493  19.757  0.00  0.00    +0.000 A 
ATOM     10  C   UNL     1       0.947   5.074  20.466  0.00  0.00    +0.000 A 
ATOM     11  N   UNL     1       0.717   3.756  20.176  0.00  0.00    +0.000 N 
ATOM     12  C   UNL     1       1.660   3.293  19.290  0.00  0.00    +0.000 A 
ATOM     13  C   UNL     1       1.814   2.020  18.720  0.00  0.00    +0.000 A 
ATOM     14  C   UNL     1       2.883   1.827  17.842  0.00  0.00    +0.000 A 
ATOM     15  C   UNL     1       3.760   2.865  17.544  0.00  0.00    +0.000 A 
ATOM     16  C   UNL     1       3.590   4.131  18.116  0.00  0.00    +0.000 A 
ATOM     17  C   UNL     1       2.519   4.355  19.009  0.00  0.00    +0.000 A 
ATOM     18  H   UNL     1      -0.035   3.198  20.556  0.00  0.00    +0.000 HD
ENDBRANCH   4   9
BRANCH   7  19
ATOM     19  C   UNL     1       0.349  10.392  18.778  0.00  0.00    +0.000 A 
ATOM     20  C   UNL     1      -0.879  10.364  18.138  0.00  0.00    +0.000 A 
ATOM     21  N   UNL     1      -1.320  11.647  17.976  0.00  0.00    +0.000 N 
ATOM     22  C   UNL     1      -0.404  12.532  18.487  0.00  0.00    +0.000 A 
ATOM     23  C   UNL     1      -0.420  13.932  18.511  0.00  0.00    +0.000 A 
ATOM     24  C   UNL     1       0.671  14.584  19.094  0.00  0.00    +0.000 A 
ATOM     25  C   UNL     1       1.726  13.863  19.643  0.00  0.00    +0.000 A 
ATOM     26  C   UNL     1       1.722  12.464  19.617  0.00  0.00    +0.000 A 
ATOM     27  C   UNL     1       0.643  11.777  19.022  0.00  0.00    +0.000 A 
ATOM     28  H   UNL     1      -2.187  11.913  17.528  0.00  0.00    +0.000 HD
ENDBRANCH   7  19
TORSDOF 2
ENDMDL
MODEL 5
REMARK VINA RESULT:      -8.7      4.529      8.273
REMARK  Name = 
REMARK  2 active torsions:
REMARK  status: ('A' for Active; 'I' for Inactive)
REMARK    1  A    between atoms: C_4  and  C_5
REMARK    2  A    between atoms: C_16  and  C_17
REMARK                            x       y       z     vdW  Elec       q    Type
REMARK                         _______ _______ _______ _____ _____    ______ ____
ROOT
ATOM      1  O   UNL     1       0.649   9.027  21.028  0.00  0.00    +0.000 OA
ATOM      2  C   UNL     1       1.342   8.689  20.077  0.00  0.00    +0.000 C 
ATOM      3  N   UNL     1       2.182   7.617  20.171  0.00  0.00    +0.000 N 
ATOM      4  C   UNL     1       2.877   7.047  19.047  0.00  0.00    +0.000 C 
ATOM      5  C   UNL     1       2.930   7.929  17.789  0.00  0.00    +0.000 C 
ATOM      6  N   UNL     1       1.984   9.046  17.704  0.00  0.00    +0.000 NA
ATOM      7  C   UNL     1       1.295   9.423  18.729  0.00  0.00    +0.000 C 
ATOM      8  H   UNL     1       2.092   7.073  21.019  0.00  0.00    +0.000 HD
ENDROOT
BRANCH   4   9
ATOM      9  C   UNL     1       2.318   5.674  18.795  0.00  0.00    +0.000 A 
ATOM     10  C   UNL     1       1.884   5.151  17.590  0.00  0.00    +0.000 A 
ATOM     11  N   UNL     1       1.465   3.865  17.801  0.00  0.00    +0.000 N 
ATOM     12  C   UNL     1       1.611   3.528  19.125  0.00  0.00    +0.000 A 
ATOM     13  C   UNL     1       1.314   2.328  19.788  0.00  0.00    +0.000 A 
ATOM     14  C   UNL     1       1.562   2.267  21.162  0.00  0.00    +0.000 A 
ATOM     15  C   UNL     1       2.085   3.362  21.844  0.00  0.00    +0.000 A 
ATOM     16  C   UNL     1       2.380   4.550  21.167  0.00  0.00    +0.000 A 
ATOM     17  C   UNL     1       2.139   4.641  19.778  0.00  0.00    +0.000 A 
ATOM     18  H   UNL     1       1.100   3.247  17.089  0.00  0.00    +0.000 HD
ENDBRANCH   4   9
BRANCH   7  19
ATOM     19  C   UNL     1       0.456  10.609  18.540  0.00  0.00    +0.000 A 
ATOM     20  C   UNL     1      -0.834  10.609  18.037  0.00  0.00    +0.000 A 
ATOM     21  N   UNL     1      -1.289  11.898  17.992  0.00  0.00    +0.000 N 
ATOM     22  C   UNL     1      -0.321  12.758  18.447  0.00  0.00    +0.000 A 
ATOM     23  C   UNL     1      -0.331  14.155  18.547  0.00  0.00    +0.000 A 
ATOM     24  C   UNL     1       0.817  14.780  19.042  0.00  0.00    +0.000 A 
ATOM     25  C   UNL     1       1.925  14.035  19.434  0.00  0.00    +0.000 A 
ATOM     26  C   UNL     1       1.915  12.639  19.334  0.00  0.00    +0.000 A 
ATOM     27  C   UNL     1       0.777  11.980  18.824  0.00  0.00    +0.000 A 
ATOM     28  H   UNL     1      -2.198  12.183  17.655  0.00  0.00    +0.000 HD
ENDBRANCH   7  19
TORSDOF 2
ENDMDL
MODEL 6
REMARK VINA RESULT:      -8.6      4.134      6.936
REMARK  Name = 
REMARK  2 active torsions:
REMARK  status: ('A' for Active; 'I' for Inactive)
REMARK    1  A    between atoms: C_4  and  C_5
REMARK    2  A    between atoms: C_16  and  C_17
REMARK                            x       y       z     vdW  Elec       q    Type
REMARK                         _______ _______ _______ _____ _____    ______ ____
ROOT
ATOM      1  O   UNL     1       2.935   8.219  16.952  0.00  0.00    +0.000 OA
ATOM      2  C   UNL     1       2.337   8.583  17.956  0.00  0.00    +0.000 C 
ATOM      3  N   UNL     1       1.717   9.798  17.999  0.00  0.00    +0.000 N 
ATOM      4  C   UNL     1       0.841  10.209  19.065  0.00  0.00    +0.000 C 
ATOM      5  C   UNL     1       0.925   9.368  20.349  0.00  0.00    +0.000 C 
ATOM      6  N   UNL     1       1.562   8.051  20.256  0.00  0.00    +0.000 NA
ATOM      7  C   UNL     1       2.231   7.700  19.208  0.00  0.00    +0.000 C 
ATOM      8  H   UNL     1       1.687  10.296  17.120  0.00  0.00    +0.000 HD
ENDROOT
BRANCH   4   9
ATOM      9  C   UNL     1      -0.553  10.321  18.512  0.00  0.00    +0.000 A 
ATOM     10  C   UNL     1      -1.076   9.666  17.411  0.00  0.00    +0.000 A 
ATOM     11  N   UNL     1      -2.384  10.043  17.263  0.00  0.00    +0.000 N 
ATOM     12  C   UNL     1      -2.735  10.938  18.245  0.00  0.00    +0.000 A 
ATOM     13  C   UNL     1      -3.959  11.581  18.483  0.00  0.00    +0.000 A 
ATOM     14  C   UNL     1      -4.031  12.460  19.566  0.00  0.00    +0.000 A 
ATOM     15  C   UNL     1      -2.924  12.685  20.379  0.00  0.00    +0.000 A 
ATOM     16  C   UNL     1      -1.712  12.031  20.132  0.00  0.00    +0.000 A 
ATOM     17  C   UNL     1      -1.610  11.138  19.042  0.00  0.00    +0.000 A 
ATOM     18  H   UNL     1      -3.007   9.713  16.538  0.00  0.00    +0.000 HD
ENDBRANCH   4   9
BRANCH   7  19
ATOM     19  C   UNL     1       2.896   6.396  19.276  0.00  0.00    +0.000 A 
ATOM     20  C   UNL     1       4.188   6.130  18.857  0.00  0.00    +0.000 A 
ATOM     21  N   UNL     1       4.453   4.804  19.063  0.00  0.00    +0.000 N 
ATOM     22  C   UNL     1       3.356   4.179  19.602  0.00  0.00    +0.000 A 
ATOM     23  C   UNL     1       3.162   2.835  19.943  0.00  0.00    +0.000 A 
ATOM     24  C   UNL     1       1.920   2.471  20.469  0.00  0.00    +0.000 A 
ATOM     25  C   UNL     1       0.918   3.418  20.661  0.00  0.00    +0.000 A 
ATOM     26  C   UNL     1       1.133   4.759  20.322  0.00  0.00    +0.000 A 
ATOM     27  C   UNL     1       2.371   5.155  19.773  0.00  0.00    +0.000 A 
ATOM     28  H   UNL     1       5.323   4.342  18.834  0.00  0.00    +0.000 HD
ENDBRANCH   7  19
TORSDOF 2
ENDMDL
MODEL 7
REMARK VINA RESULT:      -8.5      4.404      8.241
REMARK  Name = 
REMARK  2 active torsions:
REMARK  status: ('A' for Active; 'I' for Inactive)
REMARK    1  A    between atoms: C_4  and  C_5
REMARK    2  A    between atoms: C_16  and  C_17
REMARK                            x       y       z     vdW  Elec       q    Type
REMARK                         _______ _______ _______ _____ _____    ______ ____
ROOT
ATOM      1  O   UNL     1       0.922   8.231  21.521  0.00  0.00    +0.000 OA
ATOM      2  C   UNL     1       1.499   8.153  20.445  0.00  0.00    +0.000 C 
ATOM      3  N   UNL     1       2.412   7.165  20.211  0.00  0.00    +0.000 N 
ATOM      4  C   UNL     1       2.982   6.896  18.917  0.00  0.00    +0.000 C 
ATOM      5  C   UNL     1       2.806   8.012  17.874  0.00  0.00    +0.000 C 
ATOM      6  N   UNL     1       1.789   9.033  18.140  0.00  0.00    +0.000 NA
ATOM      7  C   UNL     1       1.223   9.134  19.296  0.00  0.00    +0.000 C 
ATOM      8  H   UNL     1       2.473   6.457  20.931  0.00  0.00    +0.000 HD
ENDROOT
BRANCH   4   9
ATOM      9  C   UNL     1       2.483   5.556  18.452  0.00  0.00    +0.000 A 
ATOM     10  C   UNL     1       1.374   5.298  17.667  0.00  0.00    +0.000 A 
ATOM     11  N   UNL     1       1.289   3.946  17.467  0.00  0.00    +0.000 N 
ATOM     12  C   UNL     1       2.320   3.304  18.110  0.00  0.00    +0.000 A 
ATOM     13  C   UNL     1       2.628   1.937  18.179  0.00  0.00    +0.000 A 
ATOM     14  C   UNL     1       3.750   1.561  18.921  0.00  0.00    +0.000 A 
ATOM     15  C   UNL     1       4.533   2.513  19.566  0.00  0.00    +0.000 A 
ATOM     16  C   UNL     1       4.216   3.874  19.483  0.00  0.00    +0.000 A 
ATOM     17  C   UNL     1       3.085   4.283  18.742  0.00  0.00    +0.000 A 
ATOM     18  H   UNL     1       0.573   3.481  16.926  0.00  0.00    +0.000 HD
ENDBRANCH   4   9
BRANCH   7  19
ATOM     19  C   UNL     1       0.291  10.252  19.462  0.00  0.00    +0.000 A 
ATOM     20  C   UNL     1       0.472  11.332  20.309  0.00  0.00    +0.000 A 
ATOM     21  N   UNL     1      -0.610  12.161  20.204  0.00  0.00    +0.000 N 
ATOM     22  C   UNL     1      -1.515  11.648  19.308  0.00  0.00    +0.000 A 
ATOM     23  C   UNL     1      -2.767  12.135  18.914  0.00  0.00    +0.000 A 
ATOM     24  C   UNL     1      -3.490  11.388  17.980  0.00  0.00    +0.000 A 
ATOM     25  C   UNL     1      -2.973  10.209  17.451  0.00  0.00    +0.000 A 
ATOM     26  C   UNL     1      -1.716   9.742  17.851  0.00  0.00    +0.000 A 
ATOM     27  C   UNL     1      -0.968  10.465  18.804  0.00  0.00    +0.000 A 
ATOM     28  H   UNL     1      -0.739  13.019  20.723  0.00  0.00    +0.000 HD
ENDBRANCH   7  19
TORSDOF 2
ENDMDL
MODEL 8
REMARK VINA RESULT:      -8.5      2.721      8.175
REMARK  Name = 
REMARK  2 active torsions:
REMARK  status: ('A' for Active; 'I' for Inactive)
REMARK    1  A    between atoms: C_4  and  C_5
REMARK    2  A    between atoms: C_16  and  C_17
REMARK                            x       y       z     vdW  Elec       q    Type
REMARK                         _______ _______ _______ _____ _____    ______ ____
ROOT
ATOM      1  O   UNL     1       2.265   9.202  18.171  0.00  0.00    +0.000 OA
ATOM      2  C   UNL     1       2.202   8.058  18.599  0.00  0.00    +0.000 C 
ATOM      3  N   UNL     1       2.654   7.007  17.854  0.00  0.00    +0.000 N 
ATOM      4  C   UNL     1       2.789   5.667  18.363  0.00  0.00    +0.000 C 
ATOM      5  C   UNL     1       2.046   5.385  19.680  0.00  0.00    +0.000 C 
ATOM      6  N   UNL     1       1.612   6.538  20.474  0.00  0.00    +0.000 NA
ATOM      7  C   UNL     1       1.639   7.736  19.991  0.00  0.00    +0.000 C 
ATOM      8  H   UNL     1       3.141   7.260  17.005  0.00  0.00    +0.000 HD
ENDROOT
BRANCH   4   9
ATOM      9  C   UNL     1       4.253   5.329  18.416  0.00  0.00    +0.000 A 
ATOM     10  C   UNL     1       5.032   5.141  19.543  0.00  0.00    +0.000 A 
ATOM     11  N   UNL     1       6.306   4.835  19.144  0.00  0.00    +0.000 N 
ATOM     12  C   UNL     1       6.384   4.822  17.772  0.00  0.00    +0.000 A 
ATOM     13  C   UNL     1       7.478   4.561  16.933  0.00  0.00    +0.000 A 
ATOM     14  C   UNL     1       7.268   4.625  15.554  0.00  0.00    +0.000 A 
ATOM     15  C   UNL     1       6.016   4.936  15.034  0.00  0.00    +0.000 A 
ATOM     16  C   UNL     1       4.933   5.188  15.884  0.00  0.00    +0.000 A 
ATOM     17  C   UNL     1       5.116   5.132  17.284  0.00  0.00    +0.000 A 
ATOM     18  H   UNL     1       7.082   4.646  19.764  0.00  0.00    +0.000 HD
ENDBRANCH   4   9
BRANCH   7  19
ATOM     19  C   UNL     1       1.092   8.788  20.851  0.00  0.00    +0.000 A 
ATOM     20  C   UNL     1       1.398   8.974  22.188  0.00  0.00    +0.000 A 
ATOM     21  N   UNL     1       0.686  10.043  22.658  0.00  0.00    +0.000 N 
ATOM     22  C   UNL     1      -0.097  10.567  21.660  0.00  0.00    +0.000 A 
ATOM     23  C   UNL     1      -1.005  11.633  21.693  0.00  0.00    +0.000 A 
ATOM     24  C   UNL     1      -1.684  11.944  20.511  0.00  0.00    +0.000 A 
ATOM     25  C   UNL     1      -1.453  11.226  19.342  0.00  0.00    +0.000 A 
ATOM     26  C   UNL     1      -0.536  10.169  19.326  0.00  0.00    +0.000 A 
ATOM     27  C   UNL     1       0.154   9.820  20.506  0.00  0.00    +0.000 A 
ATOM     28  H   UNL     1       0.713  10.389  23.608  0.00  0.00    +0.000 HD
ENDBRANCH   7  19
TORSDOF 2
ENDMDL
MODEL 9
REMARK VINA RESULT:      -8.5      3.951      8.364
REMARK  Name = 
REMARK  2 active torsions:
REMARK  status: ('A' for Active; 'I' for Inactive)
REMARK    1  A    between atoms: C_4  and  C_5
REMARK    2  A    between atoms: C_16  and  C_17
REMARK                            x       y       z     vdW  Elec       q    Type
REMARK                         _______ _______ _______ _____ _____    ______ ____
ROOT
ATOM      1  O   UNL     1      -0.009   8.753  21.411  0.00  0.00    +0.000 OA
ATOM      2  C   UNL     1       0.734   8.769  20.438  0.00  0.00    +0.000 C 
ATOM      3  N   UNL     1       1.882   8.031  20.423  0.00  0.00    +0.000 N 
ATOM      4  C   UNL     1       2.699   7.850  19.252  0.00  0.00    +0.000 C 
ATOM      5  C   UNL     1       2.428   8.832  18.101  0.00  0.00    +0.000 C 
ATOM      6  N   UNL     1       1.165   9.577  18.128  0.00  0.00    +0.000 NA
ATOM      7  C   UNL     1       0.415   9.590  19.180  0.00  0.00    +0.000 C 
ATOM      8  H   UNL     1       1.996   7.399  21.204  0.00  0.00    +0.000 HD
ENDROOT
BRANCH   4   9
ATOM      9  C   UNL     1       2.618   6.406  18.840  0.00  0.00    +0.000 A 
ATOM     10  C   UNL     1       1.709   5.457  19.275  0.00  0.00    +0.000 A 
ATOM     11  N   UNL     1       1.980   4.275  18.641  0.00  0.00    +0.000 N 
ATOM     12  C   UNL     1       3.055   4.422  17.797  0.00  0.00    +0.000 A 
ATOM     13  C   UNL     1       3.676   3.487  16.955  0.00  0.00    +0.000 A 
ATOM     14  C   UNL     1       4.770   3.918  16.202  0.00  0.00    +0.000 A 
ATOM     15  C   UNL     1       5.224   5.231  16.286  0.00  0.00    +0.000 A 
ATOM     16  C   UNL     1       4.590   6.154  17.126  0.00  0.00    +0.000 A 
ATOM     17  C   UNL     1       3.482   5.745  17.901  0.00  0.00    +0.000 A 
ATOM     18  H   UNL     1       1.467   3.413  18.770  0.00  0.00    +0.000 HD
ENDBRANCH   4   9
BRANCH   7  19
ATOM     19  C   UNL     1      -0.772  10.445  19.113  0.00  0.00    +0.000 A 
ATOM     20  C   UNL     1      -1.134  11.395  20.053  0.00  0.00    +0.000 A 
ATOM     21  N   UNL     1      -2.305  11.980  19.659  0.00  0.00    +0.000 N 
ATOM     22  C   UNL     1      -2.736  11.431  18.477  0.00  0.00    +0.000 A 
ATOM     23  C   UNL     1      -3.890  11.696  17.728  0.00  0.00    +0.000 A 
ATOM     24  C   UNL     1      -4.082  10.965  16.552  0.00  0.00    +0.000 A 
ATOM     25  C   UNL     1      -3.150  10.020  16.136  0.00  0.00    +0.000 A 
ATOM     26  C   UNL     1      -1.999   9.775  16.893  0.00  0.00    +0.000 A 
ATOM     27  C   UNL     1      -1.783  10.484  18.093  0.00  0.00    +0.000 A 
ATOM     28  H   UNL     1      -2.797  12.700  20.171  0.00  0.00    +0.000 HD
ENDBRANCH   7  19
TORSDOF 2
ENDMDL
