MODEL 1
REMARK VINA RESULT:      -8.5      0.000      0.000
REMARK  Name = 
REMARK  9 active torsions:
REMARK  status: ('A' for Active; 'I' for Inactive)
REMARK    1  A    between atoms: C_1  and  O_2
REMARK    2  A    between atoms: O_2  and  C_3
REMARK    3  A    between atoms: C_3  and  C_5
REMARK    4  A    between atoms: C_8  and  N_9
REMARK    5  A    between atoms: N_9  and  C_10
REMARK    6  A    between atoms: C_10  and  C_11
REMARK    7  A    between atoms: N_15  and  C_16
REMARK    8  A    between atoms: C_16  and  C_17
REMARK    9  A    between atoms: C_25  and  C_26
REMARK                            x       y       z     vdW  Elec       q    Type
REMARK                         _______ _______ _______ _____ _____    ______ ____
ROOT
ATOM      1  C   UNL     1       2.494   4.236  19.056  0.00  0.00    +0.000 A 
ATOM      2  C   UNL     1       1.417   4.383  19.947  0.00  0.00    +0.000 A 
ATOM      3  C   UNL     1       1.224   5.576  20.648  0.00  0.00    +0.000 A 
ATOM      4  C   UNL     1       2.115   6.644  20.516  0.00  0.00    +0.000 A 
ATOM      5  C   UNL     1       3.197   6.477  19.633  0.00  0.00    +0.000 A 
ATOM      6  C   UNL     1       3.430   5.284  18.888  0.00  0.00    +0.000 A 
ENDROOT
BRANCH   6   7
ATOM      7  C   UNL     1       4.618   5.210  17.988  0.00  0.00    +0.000 A 
ATOM      8  C   UNL     1       4.584   5.680  16.661  0.00  0.00    +0.000 A 
ATOM      9  C   UNL     1       5.718   5.654  15.840  0.00  0.00    +0.000 A 
ATOM     10  C   UNL     1       6.907   5.107  16.310  0.00  0.00    +0.000 A 
ATOM     11  C   UNL     1       6.961   4.590  17.600  0.00  0.00    +0.000 A 
ATOM     12  C   UNL     1       5.834   4.652  18.429  0.00  0.00    +0.000 A 
ENDBRANCH   6   7
BRANCH   1  13
ATOM     13  C   UNL     1       2.511   2.992  18.233  0.00  0.00    +0.000 C 
ATOM     14  O   UNL     1       2.151   2.926  17.069  0.00  0.00    +0.000 OA
BRANCH  13  16
ATOM     15  C   UNL     1       3.908   1.123  18.282  0.00  0.00    +0.000 C 
ATOM     16  O   UNL     1       2.981   1.961  18.978  0.00  0.00    +0.000 OA
ENDBRANCH  13  16
ENDBRANCH   1  13
BRANCH   4  17
ATOM     17  N   UNL     1       1.792   7.860  21.143  0.00  0.00    +0.000 N 
ATOM     18  H   UNL     1       2.632   8.328  21.484  0.00  0.00    +0.000 HD
BRANCH  17  19
ATOM     19  C   UNL     1       0.929   8.806  20.447  0.00  0.00    +0.000 C 
BRANCH  19  20
ATOM     20  C   UNL     1       0.280   9.804  21.346  0.00  0.00    +0.000 A 
ATOM     21  C   UNL     1      -0.005   9.704  22.696  0.00  0.00    +0.000 A 
ATOM     22  N   UNL     1      -0.551  10.858  23.180  0.00  0.00    +0.000 NA
ATOM     23  C   UNL     1      -0.601  11.671  22.152  0.00  0.00    +0.000 A 
ATOM     24  N   UNL     1      -0.122  11.081  21.010  0.00  0.00    +0.000 N 
BRANCH  24  25
ATOM     25  C   UNL     1      -0.162  11.717  19.703  0.00  0.00    +0.000 C 
BRANCH  25  26
ATOM     26  C   UNL     1      -1.331  11.246  18.874  0.00  0.00    +0.000 A 
ATOM     27  C   UNL     1      -1.184  10.221  17.925  0.00  0.00    +0.000 A 
ATOM     28  C   UNL     1      -2.276   9.797  17.162  0.00  0.00    +0.000 A 
ATOM     29  C   UNL     1      -3.529  10.383  17.345  0.00  0.00    +0.000 A 
ATOM     30  C   UNL     1      -3.681  11.396  18.287  0.00  0.00    +0.000 A 
ATOM     31 BR   UNL     1      -5.378  12.188  18.554  0.00  0.00    +0.000 Br
ATOM     32  C   UNL     1      -2.594  11.832  19.045  0.00  0.00    +0.000 A 
ENDBRANCH  25  26
ENDBRANCH  24  25
ENDBRANCH  19  20
ENDBRANCH  17  19
ENDBRANCH   4  17
TORSDOF 8
ENDMDL
MODEL 2
REMARK VINA RESULT:      -8.5      1.910      3.573
REMARK  Name = 
REMARK  9 active torsions:
REMARK  status: ('A' for Active; 'I' for Inactive)
REMARK    1  A    between atoms: C_1  and  O_2
REMARK    2  A    between atoms: O_2  and  C_3
REMARK    3  A    between atoms: C_3  and  C_5
REMARK    4  A    between atoms: C_8  and  N_9
REMARK    5  A    between atoms: N_9  and  C_10
REMARK    6  A    between atoms: C_10  and  C_11
REMARK    7  A    between atoms: N_15  and  C_16
REMARK    8  A    between atoms: C_16  and  C_17
REMARK    9  A    between atoms: C_25  and  C_26
REMARK                            x       y       z     vdW  Elec       q    Type
REMARK                         _______ _______ _______ _____ _____    ______ ____
ROOT
ATOM      1  C   UNL     1       4.025   5.588  17.775  0.00  0.00    +0.000 A 
ATOM      2  C   UNL     1       4.513   6.662  17.009  0.00  0.00    +0.000 A 
ATOM      3  C   UNL     1       3.899   7.915  17.061  0.00  0.00    +0.000 A 
ATOM      4  C   UNL     1       2.762   8.132  17.842  0.00  0.00    +0.000 A 
ATOM      5  C   UNL     1       2.276   7.045  18.592  0.00  0.00    +0.000 A 
ATOM      6  C   UNL     1       2.873   5.750  18.581  0.00  0.00    +0.000 A 
ENDROOT
BRANCH   6   7
ATOM      7  C   UNL     1       2.268   4.664  19.405  0.00  0.00    +0.000 A 
ATOM      8  C   UNL     1       1.386   3.710  18.859  0.00  0.00    +0.000 A 
ATOM      9  C   UNL     1       0.864   2.663  19.628  0.00  0.00    +0.000 A 
ATOM     10  C   UNL     1       1.169   2.572  20.982  0.00  0.00    +0.000 A 
ATOM     11  C   UNL     1       1.999   3.526  21.563  0.00  0.00    +0.000 A 
ATOM     12  C   UNL     1       2.548   4.549  20.781  0.00  0.00    +0.000 A 
ENDBRANCH   6   7
BRANCH   1  13
ATOM     13  C   UNL     1       4.851   4.346  17.780  0.00  0.00    +0.000 C 
ATOM     14  O   UNL     1       4.904   3.544  16.862  0.00  0.00    +0.000 OA
BRANCH  13  16
ATOM     15  C   UNL     1       6.615   5.167  19.070  0.00  0.00    +0.000 C 
ATOM     16  O   UNL     1       5.522   4.251  18.955  0.00  0.00    +0.000 OA
ENDBRANCH  13  16
ENDBRANCH   1  13
BRANCH   4  17
ATOM     17  N   UNL     1       2.273   9.445  17.956  0.00  0.00    +0.000 N 
ATOM     18  H   UNL     1       2.568  10.013  17.162  0.00  0.00    +0.000 HD
BRANCH  17  19
ATOM     19  C   UNL     1       0.856   9.650  18.231  0.00  0.00    +0.000 C 
BRANCH  19  20
ATOM     20  C   UNL     1       0.584  10.285  19.553  0.00  0.00    +0.000 A 
ATOM     21  C   UNL     1       0.882   9.819  20.820  0.00  0.00    +0.000 A 
ATOM     22  N   UNL     1       0.526  10.720  21.782  0.00  0.00    +0.000 NA
ATOM     23  C   UNL     1       0.021  11.738  21.128  0.00  0.00    +0.000 A 
ATOM     24  N   UNL     1       0.019  11.525  19.773  0.00  0.00    +0.000 N 
BRANCH  24  25
ATOM     25  C   UNL     1      -0.583  12.443  18.819  0.00  0.00    +0.000 C 
BRANCH  25  26
ATOM     26  C   UNL     1      -1.917  11.950  18.317  0.00  0.00    +0.000 A 
ATOM     27  C   UNL     1      -3.075  12.053  19.103  0.00  0.00    +0.000 A 
ATOM     28  C   UNL     1      -4.304  11.588  18.625  0.00  0.00    +0.000 A 
ATOM     29  C   UNL     1      -4.393  11.024  17.353  0.00  0.00    +0.000 A 
ATOM     30  C   UNL     1      -3.250  10.923  16.566  0.00  0.00    +0.000 A 
ATOM     31 BR   UNL     1      -3.360  10.173  14.834  0.00  0.00    +0.000 Br
ATOM     32  C   UNL     1      -2.018  11.374  17.041  0.00  0.00    +0.000 A 
ENDBRANCH  25  26
ENDBRANCH  24  25
ENDBRANCH  19  20
ENDBRANCH  17  19
ENDBRANCH   4  17
TORSDOF 8
ENDMDL
MODEL 3
REMARK VINA RESULT:      -8.4      2.267      3.941
REMARK  Name = 
REMARK  9 active torsions:
REMARK  status: ('A' for Active; 'I' for Inactive)
REMARK    1  A    between atoms: C_1  and  O_2
REMARK    2  A    between atoms: O_2  and  C_3
REMARK    3  A    between atoms: C_3  and  C_5
REMARK    4  A    between atoms: C_8  and  N_9
REMARK    5  A    between atoms: N_9  and  C_10
REMARK    6  A    between atoms: C_10  and  C_11
REMARK    7  A    between atoms: N_15  and  C_16
REMARK    8  A    between atoms: C_16  and  C_17
REMARK    9  A    between atoms: C_25  and  C_26
REMARK                            x       y       z     vdW  Elec       q    Type
REMARK                         _______ _______ _______ _____ _____    ______ ____
ROOT
ATOM      1  C   UNL     1       4.096   5.704  17.948  0.00  0.00    +0.000 A 
ATOM      2  C   UNL     1       4.551   6.786  17.173  0.00  0.00    +0.000 A 
ATOM      3  C   UNL     1       3.813   7.969  17.091  0.00  0.00    +0.000 A 
ATOM      4  C   UNL     1       2.585   8.101  17.743  0.00  0.00    +0.000 A 
ATOM      5  C   UNL     1       2.135   7.006  18.502  0.00  0.00    +0.000 A 
ATOM      6  C   UNL     1       2.857   5.782  18.625  0.00  0.00    +0.000 A 
ENDROOT
BRANCH   6   7
ATOM      7  C   UNL     1       2.281   4.678  19.447  0.00  0.00    +0.000 A 
ATOM      8  C   UNL     1       1.438   3.693  18.896  0.00  0.00    +0.000 A 
ATOM      9  C   UNL     1       0.944   2.631  19.663  0.00  0.00    +0.000 A 
ATOM     10  C   UNL     1       1.239   2.555  21.020  0.00  0.00    +0.000 A 
ATOM     11  C   UNL     1       2.029   3.538  21.606  0.00  0.00    +0.000 A 
ATOM     12  C   UNL     1       2.550   4.578  20.827  0.00  0.00    +0.000 A 
ENDBRANCH   6   7
BRANCH   1  13
ATOM     13  C   UNL     1       5.038   4.557  18.106  0.00  0.00    +0.000 C 
ATOM     14  O   UNL     1       5.842   4.441  19.016  0.00  0.00    +0.000 OA
BRANCH  13  16
ATOM     15  C   UNL     1       5.897   3.722  16.103  0.00  0.00    +0.000 C 
ATOM     16  O   UNL     1       4.860   3.680  17.087  0.00  0.00    +0.000 OA
ENDBRANCH  13  16
ENDBRANCH   1  13
BRANCH   4  17
ATOM     17  N   UNL     1       1.958   9.360  17.732  0.00  0.00    +0.000 N 
ATOM     18  H   UNL     1       1.190   9.377  17.062  0.00  0.00    +0.000 HD
BRANCH  17  19
ATOM     19  C   UNL     1       1.545   9.954  18.997  0.00  0.00    +0.000 C 
BRANCH  19  20
ATOM     20  C   UNL     1       1.116  11.378  18.883  0.00  0.00    +0.000 A 
ATOM     21  C   UNL     1       1.863  12.487  18.529  0.00  0.00    +0.000 A 
ATOM     22  N   UNL     1       1.094  13.614  18.478  0.00  0.00    +0.000 NA
ATOM     23  C   UNL     1      -0.117  13.217  18.787  0.00  0.00    +0.000 A 
ATOM     24  N   UNL     1      -0.162  11.872  19.054  0.00  0.00    +0.000 N 
BRANCH  24  25
ATOM     25  C   UNL     1      -1.355  11.190  19.528  0.00  0.00    +0.000 C 
BRANCH  25  26
ATOM     26  C   UNL     1      -2.486  11.260  18.531  0.00  0.00    +0.000 A 
ATOM     27  C   UNL     1      -3.712  11.857  18.862  0.00  0.00    +0.000 A 
ATOM     28  C   UNL     1      -4.752  11.912  17.928  0.00  0.00    +0.000 A 
ATOM     29  C   UNL     1      -4.575  11.379  16.651  0.00  0.00    +0.000 A 
ATOM     30  C   UNL     1      -3.360  10.790  16.316  0.00  0.00    +0.000 A 
ATOM     31 BR   UNL     1      -3.104  10.078  14.583  0.00  0.00    +0.000 Br
ATOM     32  C   UNL     1      -2.322  10.722  17.245  0.00  0.00    +0.000 A 
ENDBRANCH  25  26
ENDBRANCH  24  25
ENDBRANCH  19  20
ENDBRANCH  17  19
ENDBRANCH   4  17
TORSDOF 8
ENDMDL
MODEL 4
REMARK VINA RESULT:      -8.4      3.955      8.705
REMARK  Name = 
REMARK  9 active torsions:
REMARK  status: ('A' for Active; 'I' for Inactive)
REMARK    1  A    between atoms: C_1  and  O_2
REMARK    2  A    between atoms: O_2  and  C_3
REMARK    3  A    between atoms: C_3  and  C_5
REMARK    4  A    between atoms: C_8  and  N_9
REMARK    5  A    between atoms: N_9  and  C_10
REMARK    6  A    between atoms: C_10  and  C_11
REMARK    7  A    between atoms: N_15  and  C_16
REMARK    8  A    between atoms: C_16  and  C_17
REMARK    9  A    between atoms: C_25  and  C_26
REMARK                            x       y       z     vdW  Elec       q    Type
REMARK                         _______ _______ _______ _____ _____    ______ ____
ROOT
ATOM      1  C   UNL     1       1.214   8.720  20.651  0.00  0.00    +0.000 A 
ATOM      2  C   UNL     1       1.735   7.426  20.829  0.00  0.00    +0.000 A 
ATOM      3  C   UNL     1       2.309   6.732  19.761  0.00  0.00    +0.000 A 
ATOM      4  C   UNL     1       2.349   7.284  18.479  0.00  0.00    +0.000 A 
ATOM      5  C   UNL     1       1.811   8.573  18.312  0.00  0.00    +0.000 A 
ATOM      6  C   UNL     1       1.225   9.325  19.372  0.00  0.00    +0.000 A 
ENDROOT
BRANCH   6   7
ATOM      7  C   UNL     1       0.671  10.680  19.082  0.00  0.00    +0.000 A 
ATOM      8  C   UNL     1       1.427  11.854  19.264  0.00  0.00    +0.000 A 
ATOM      9  C   UNL     1       0.918  13.117  18.940  0.00  0.00    +0.000 A 
ATOM     10  C   UNL     1      -0.386  13.245  18.472  0.00  0.00    +0.000 A 
ATOM     11  C   UNL     1      -1.175  12.109  18.325  0.00  0.00    +0.000 A 
ATOM     12  C   UNL     1      -0.649  10.845  18.617  0.00  0.00    +0.000 A 
ENDBRANCH   6   7
BRANCH   1  13
ATOM     13  C   UNL     1       0.783   9.438  21.886  0.00  0.00    +0.000 C 
ATOM     14  O   UNL     1       1.523   9.738  22.808  0.00  0.00    +0.000 OA
BRANCH  13  16
ATOM     15  C   UNL     1      -1.013  10.588  22.836  0.00  0.00    +0.000 C 
ATOM     16  O   UNL     1      -0.547   9.697  21.819  0.00  0.00    +0.000 OA
ENDBRANCH  13  16
ENDBRANCH   1  13
BRANCH   4  17
ATOM     17  N   UNL     1       3.058   6.593  17.479  0.00  0.00    +0.000 N 
ATOM     18  H   UNL     1       2.531   6.575  16.607  0.00  0.00    +0.000 HD
BRANCH  17  19
ATOM     19  C   UNL     1       4.449   6.948  17.228  0.00  0.00    +0.000 C 
BRANCH  19  20
ATOM     20  C   UNL     1       5.216   5.897  16.498  0.00  0.00    +0.000 A 
ATOM     21  C   UNL     1       5.594   5.861  15.167  0.00  0.00    +0.000 A 
ATOM     22  N   UNL     1       6.343   4.754  14.889  0.00  0.00    +0.000 NA
ATOM     23  C   UNL     1       6.440   4.110  16.027  0.00  0.00    +0.000 A 
ATOM     24  N   UNL     1       5.766   4.751  17.036  0.00  0.00    +0.000 N 
BRANCH  24  25
ATOM     25  C   UNL     1       5.618   4.201  18.374  0.00  0.00    +0.000 C 
BRANCH  25  26
ATOM     26  C   UNL     1       4.289   3.512  18.564  0.00  0.00    +0.000 A 
ATOM     27  C   UNL     1       3.623   2.906  17.487  0.00  0.00    +0.000 A 
ATOM     28  C   UNL     1       2.391   2.273  17.677  0.00  0.00    +0.000 A 
ATOM     29  C   UNL     1       1.814   2.230  18.947  0.00  0.00    +0.000 A 
ATOM     30  C   UNL     1       2.472   2.825  20.019  0.00  0.00    +0.000 A 
ATOM     31 BR   UNL     1       1.708   2.759  21.748  0.00  0.00    +0.000 Br
ATOM     32  C   UNL     1       3.696   3.467  19.835  0.00  0.00    +0.000 A 
ENDBRANCH  25  26
ENDBRANCH  24  25
ENDBRANCH  19  20
ENDBRANCH  17  19
ENDBRANCH   4  17
TORSDOF 8
ENDMDL
MODEL 5
REMARK VINA RESULT:      -8.4      1.730      3.482
REMARK  Name = 
REMARK  9 active torsions:
REMARK  status: ('A' for Active; 'I' for Inactive)
REMARK    1  A    between atoms: C_1  and  O_2
REMARK    2  A    between atoms: O_2  and  C_3
REMARK    3  A    between atoms: C_3  and  C_5
REMARK    4  A    between atoms: C_8  and  N_9
REMARK    5  A    between atoms: N_9  and  C_10
REMARK    6  A    between atoms: C_10  and  C_11
REMARK    7  A    between atoms: N_15  and  C_16
REMARK    8  A    between atoms: C_16  and  C_17
REMARK    9  A    between atoms: C_25  and  C_26
REMARK                            x       y       z     vdW  Elec       q    Type
REMARK                         _______ _______ _______ _____ _____    ______ ____
ROOT
ATOM      1  C   UNL     1       4.137   5.669  17.891  0.00  0.00    +0.000 A 
ATOM      2  C   UNL     1       4.604   6.753  17.127  0.00  0.00    +0.000 A 
ATOM      3  C   UNL     1       3.924   7.973  17.125  0.00  0.00    +0.000 A 
ATOM      4  C   UNL     1       2.742   8.143  17.848  0.00  0.00    +0.000 A 
ATOM      5  C   UNL     1       2.278   7.045  18.595  0.00  0.00    +0.000 A 
ATOM      6  C   UNL     1       2.941   5.784  18.638  0.00  0.00    +0.000 A 
ENDROOT
BRANCH   6   7
ATOM      7  C   UNL     1       2.354   4.682  19.455  0.00  0.00    +0.000 A 
ATOM      8  C   UNL     1       2.650   4.522  20.822  0.00  0.00    +0.000 A 
ATOM      9  C   UNL     1       2.053   3.516  21.593  0.00  0.00    +0.000 A 
ATOM     10  C   UNL     1       1.183   2.607  21.001  0.00  0.00    +0.000 A 
ATOM     11  C   UNL     1       0.907   2.708  19.642  0.00  0.00    +0.000 A 
ATOM     12  C   UNL     1       1.477   3.738  18.884  0.00  0.00    +0.000 A 
ENDBRANCH   6   7
BRANCH   1  13
ATOM     13  C   UNL     1       5.026   4.472  17.960  0.00  0.00    +0.000 C 
ATOM     14  O   UNL     1       5.825   4.252  18.855  0.00  0.00    +0.000 OA
BRANCH  13  16
ATOM     15  C   UNL     1       5.854   3.734  15.907  0.00  0.00    +0.000 C 
ATOM     16  O   UNL     1       4.807   3.682  16.879  0.00  0.00    +0.000 OA
ENDBRANCH  13  16
ENDBRANCH   1  13
BRANCH   4  17
ATOM     17  N   UNL     1       2.180   9.431  17.912  0.00  0.00    +0.000 N 
ATOM     18  H   UNL     1       2.387   9.960  17.066  0.00  0.00    +0.000 HD
BRANCH  17  19
ATOM     19  C   UNL     1       0.774   9.570  18.270  0.00  0.00    +0.000 C 
BRANCH  19  20
ATOM     20  C   UNL     1       0.551  10.244  19.583  0.00  0.00    +0.000 A 
ATOM     21  C   UNL     1       0.868   9.801  20.854  0.00  0.00    +0.000 A 
ATOM     22  N   UNL     1       0.559  10.734  21.802  0.00  0.00    +0.000 NA
ATOM     23  C   UNL     1       0.064  11.749  21.135  0.00  0.00    +0.000 A 
ATOM     24  N   UNL     1       0.023  11.503  19.786  0.00  0.00    +0.000 N 
BRANCH  24  25
ATOM     25  C   UNL     1      -0.579  12.413  18.824  0.00  0.00    +0.000 C 
BRANCH  25  26
ATOM     26  C   UNL     1      -1.983  12.004  18.453  0.00  0.00    +0.000 A 
ATOM     27  C   UNL     1      -2.253  11.349  17.241  0.00  0.00    +0.000 A 
ATOM     28  C   UNL     1      -3.560  10.979  16.909  0.00  0.00    +0.000 A 
ATOM     29  C   UNL     1      -4.610  11.250  17.787  0.00  0.00    +0.000 A 
ATOM     30  C   UNL     1      -4.347  11.895  18.992  0.00  0.00    +0.000 A 
ATOM     31 BR   UNL     1      -5.759  12.254  20.197  0.00  0.00    +0.000 Br
ATOM     32  C   UNL     1      -3.047  12.277  19.325  0.00  0.00    +0.000 A 
ENDBRANCH  25  26
ENDBRANCH  24  25
ENDBRANCH  19  20
ENDBRANCH  17  19
ENDBRANCH   4  17
TORSDOF 8
ENDMDL
MODEL 6
REMARK VINA RESULT:      -8.4      1.958      2.627
REMARK  Name = 
REMARK  9 active torsions:
REMARK  status: ('A' for Active; 'I' for Inactive)
REMARK    1  A    between atoms: C_1  and  O_2
REMARK    2  A    between atoms: O_2  and  C_3
REMARK    3  A    between atoms: C_3  and  C_5
REMARK    4  A    between atoms: C_8  and  N_9
REMARK    5  A    between atoms: N_9  and  C_10
REMARK    6  A    between atoms: C_10  and  C_11
REMARK    7  A    between atoms: N_15  and  C_16
REMARK    8  A    between atoms: C_16  and  C_17
REMARK    9  A    between atoms: C_25  and  C_26
REMARK                            x       y       z     vdW  Elec       q    Type
REMARK                         _______ _______ _______ _____ _____    ______ ____
ROOT
ATOM      1  C   UNL     1       3.216   4.507  19.617  0.00  0.00    +0.000 A 
ATOM      2  C   UNL     1       2.197   4.930  20.490  0.00  0.00    +0.000 A 
ATOM      3  C   UNL     1       1.719   6.242  20.451  0.00  0.00    +0.000 A 
ATOM      4  C   UNL     1       2.262   7.183  19.574  0.00  0.00    +0.000 A 
ATOM      5  C   UNL     1       3.291   6.750  18.718  0.00  0.00    +0.000 A 
ATOM      6  C   UNL     1       3.805   5.420  18.712  0.00  0.00    +0.000 A 
ENDROOT
BRANCH   6   7
ATOM      7  C   UNL     1       4.907   5.071  17.769  0.00  0.00    +0.000 A 
ATOM      8  C   UNL     1       6.254   5.017  18.177  0.00  0.00    +0.000 A 
ATOM      9  C   UNL     1       7.276   4.638  17.297  0.00  0.00    +0.000 A 
ATOM     10  C   UNL     1       6.983   4.353  15.969  0.00  0.00    +0.000 A 
ATOM     11  C   UNL     1       5.669   4.443  15.522  0.00  0.00    +0.000 A 
ATOM     12  C   UNL     1       4.646   4.787  16.414  0.00  0.00    +0.000 A 
ENDBRANCH   6   7
BRANCH   1  13
ATOM     13  C   UNL     1       3.532   3.049  19.622  0.00  0.00    +0.000 C 
ATOM     14  O   UNL     1       4.253   2.498  20.438  0.00  0.00    +0.000 OA
BRANCH  13  16
ATOM     15  C   UNL     1       1.580   1.994  18.898  0.00  0.00    +0.000 C 
ATOM     16  O   UNL     1       2.901   2.444  18.585  0.00  0.00    +0.000 OA
ENDBRANCH  13  16
ENDBRANCH   1  13
BRANCH   4  17
ATOM     17  N   UNL     1       1.648   8.445  19.490  0.00  0.00    +0.000 N 
ATOM     18  H   UNL     1       1.853   9.005  20.317  0.00  0.00    +0.000 HD
BRANCH  17  19
ATOM     19  C   UNL     1       1.828   9.238  18.280  0.00  0.00    +0.000 C 
BRANCH  19  20
ATOM     20  C   UNL     1       1.470  10.677  18.443  0.00  0.00    +0.000 A 
ATOM     21  C   UNL     1       2.258  11.797  18.253  0.00  0.00    +0.000 A 
ATOM     22  N   UNL     1       1.548  12.948  18.444  0.00  0.00    +0.000 NA
ATOM     23  C   UNL     1       0.333  12.556  18.742  0.00  0.00    +0.000 A 
ATOM     24  N   UNL     1       0.229  11.188  18.768  0.00  0.00    +0.000 N 
BRANCH  24  25
ATOM     25  C   UNL     1      -0.976  10.484  19.175  0.00  0.00    +0.000 C 
BRANCH  25  26
ATOM     26  C   UNL     1      -2.146  10.788  18.272  0.00  0.00    +0.000 A 
ATOM     27  C   UNL     1      -3.242  11.538  18.727  0.00  0.00    +0.000 A 
ATOM     28  C   UNL     1      -4.321  11.808  17.879  0.00  0.00    +0.000 A 
ATOM     29  C   UNL     1      -4.313  11.342  16.565  0.00  0.00    +0.000 A 
ATOM     30  C   UNL     1      -3.227  10.602  16.106  0.00  0.00    +0.000 A 
ATOM     31 BR   UNL     1      -3.198   9.978  14.321  0.00  0.00    +0.000 Br
ATOM     32  C   UNL     1      -2.152  10.319  16.949  0.00  0.00    +0.000 A 
ENDBRANCH  25  26
ENDBRANCH  24  25
ENDBRANCH  19  20
ENDBRANCH  17  19
ENDBRANCH   4  17
TORSDOF 8
ENDMDL
MODEL 7
REMARK VINA RESULT:      -8.3      1.849      2.403
REMARK  Name = 
REMARK  9 active torsions:
REMARK  status: ('A' for Active; 'I' for Inactive)
REMARK    1  A    between atoms: C_1  and  O_2
REMARK    2  A    between atoms: O_2  and  C_3
REMARK    3  A    between atoms: C_3  and  C_5
REMARK    4  A    between atoms: C_8  and  N_9
REMARK    5  A    between atoms: N_9  and  C_10
REMARK    6  A    between atoms: C_10  and  C_11
REMARK    7  A    between atoms: N_15  and  C_16
REMARK    8  A    between atoms: C_16  and  C_17
REMARK    9  A    between atoms: C_25  and  C_26
REMARK                            x       y       z     vdW  Elec       q    Type
REMARK                         _______ _______ _______ _____ _____    ______ ____
ROOT
ATOM      1  C   UNL     1       3.761   5.064  19.236  0.00  0.00    +0.000 A 
ATOM      2  C   UNL     1       2.841   5.488  20.212  0.00  0.00    +0.000 A 
ATOM      3  C   UNL     1       2.131   6.681  20.057  0.00  0.00    +0.000 A 
ATOM      4  C   UNL     1       2.340   7.508  18.952  0.00  0.00    +0.000 A 
ATOM      5  C   UNL     1       3.275   7.080  17.991  0.00  0.00    +0.000 A 
ATOM      6  C   UNL     1       4.015   5.866  18.099  0.00  0.00    +0.000 A 
ENDROOT
BRANCH   6   7
ATOM      7  C   UNL     1       4.992   5.513  17.027  0.00  0.00    +0.000 A 
ATOM      8  C   UNL     1       6.333   5.940  17.064  0.00  0.00    +0.000 A 
ATOM      9  C   UNL     1       7.255   5.561  16.081  0.00  0.00    +0.000 A 
ATOM     10  C   UNL     1       6.846   4.785  15.003  0.00  0.00    +0.000 A 
ATOM     11  C   UNL     1       5.517   4.386  14.911  0.00  0.00    +0.000 A 
ATOM     12  C   UNL     1       4.607   4.737  15.915  0.00  0.00    +0.000 A 
ENDBRANCH   6   7
BRANCH   1  13
ATOM     13  C   UNL     1       4.335   3.699  19.413  0.00  0.00    +0.000 C 
ATOM     14  O   UNL     1       5.525   3.457  19.533  0.00  0.00    +0.000 OA
BRANCH  13  16
ATOM     15  C   UNL     1       3.267   2.003  18.217  0.00  0.00    +0.000 C 
ATOM     16  O   UNL     1       3.335   2.782  19.414  0.00  0.00    +0.000 OA
ENDBRANCH  13  16
ENDBRANCH   1  13
BRANCH   4  17
ATOM     17  N   UNL     1       1.500   8.624  18.787  0.00  0.00    +0.000 N 
ATOM     18  H   UNL     1       1.159   8.958  19.688  0.00  0.00    +0.000 HD
BRANCH  17  19
ATOM     19  C   UNL     1       1.961   9.740  17.971  0.00  0.00    +0.000 C 
BRANCH  19  20
ATOM     20  C   UNL     1       1.464  11.069  18.431  0.00  0.00    +0.000 A 
ATOM     21  C   UNL     1       2.131  12.280  18.476  0.00  0.00    +0.000 A 
ATOM     22  N   UNL     1       1.314  13.287  18.904  0.00  0.00    +0.000 NA
ATOM     23  C   UNL     1       0.151  12.718  19.116  0.00  0.00    +0.000 A 
ATOM     24  N   UNL     1       0.186  11.371  18.857  0.00  0.00    +0.000 N 
BRANCH  24  25
ATOM     25  C   UNL     1      -0.933  10.478  19.112  0.00  0.00    +0.000 C 
BRANCH  25  26
ATOM     26  C   UNL     1      -1.964  10.528  18.012  0.00  0.00    +0.000 A 
ATOM     27  C   UNL     1      -1.773   9.843  16.802  0.00  0.00    +0.000 A 
ATOM     28  C   UNL     1      -2.737   9.902  15.790  0.00  0.00    +0.000 A 
ATOM     29  C   UNL     1      -3.907  10.638  15.980  0.00  0.00    +0.000 A 
ATOM     30  C   UNL     1      -4.104  11.316  17.179  0.00  0.00    +0.000 A 
ATOM     31 BR   UNL     1      -5.693  12.304  17.453  0.00  0.00    +0.000 Br
ATOM     32  C   UNL     1      -3.143  11.270  18.188  0.00  0.00    +0.000 A 
ENDBRANCH  25  26
ENDBRANCH  24  25
ENDBRANCH  19  20
ENDBRANCH  17  19
ENDBRANCH   4  17
TORSDOF 8
ENDMDL
MODEL 8
REMARK VINA RESULT:      -8.3      0.982      1.566
REMARK  Name = 
REMARK  9 active torsions:
REMARK  status: ('A' for Active; 'I' for Inactive)
REMARK    1  A    between atoms: C_1  and  O_2
REMARK    2  A    between atoms: O_2  and  C_3
REMARK    3  A    between atoms: C_3  and  C_5
REMARK    4  A    between atoms: C_8  and  N_9
REMARK    5  A    between atoms: N_9  and  C_10
REMARK    6  A    between atoms: C_10  and  C_11
REMARK    7  A    between atoms: N_15  and  C_16
REMARK    8  A    between atoms: C_16  and  C_17
REMARK    9  A    between atoms: C_25  and  C_26
REMARK                            x       y       z     vdW  Elec       q    Type
REMARK                         _______ _______ _______ _____ _____    ______ ____
ROOT
ATOM      1  C   UNL     1       2.547   3.895  18.814  0.00  0.00    +0.000 A 
ATOM      2  C   UNL     1       1.442   3.855  19.684  0.00  0.00    +0.000 A 
ATOM      3  C   UNL     1       1.153   4.933  20.524  0.00  0.00    +0.000 A 
ATOM      4  C   UNL     1       1.969   6.065  20.554  0.00  0.00    +0.000 A 
ATOM      5  C   UNL     1       3.079   6.085  19.690  0.00  0.00    +0.000 A 
ATOM      6  C   UNL     1       3.410   5.015  18.808  0.00  0.00    +0.000 A 
ENDROOT
BRANCH   6   7
ATOM      7  C   UNL     1       4.619   5.136  17.941  0.00  0.00    +0.000 A 
ATOM      8  C   UNL     1       5.883   4.666  18.348  0.00  0.00    +0.000 A 
ATOM      9  C   UNL     1       7.001   4.736  17.507  0.00  0.00    +0.000 A 
ATOM     10  C   UNL     1       6.895   5.328  16.253  0.00  0.00    +0.000 A 
ATOM     11  C   UNL     1       5.672   5.845  15.840  0.00  0.00    +0.000 A 
ATOM     12  C   UNL     1       4.549   5.740  16.670  0.00  0.00    +0.000 A 
ENDBRANCH   6   7
BRANCH   1  13
ATOM     13  C   UNL     1       2.667   2.770  17.841  0.00  0.00    +0.000 C 
ATOM     14  O   UNL     1       2.491   2.872  16.638  0.00  0.00    +0.000 OA
BRANCH  13  16
ATOM     15  C   UNL     1       4.102   1.785  19.396  0.00  0.00    +0.000 C 
ATOM     16  O   UNL     1       2.997   1.632  18.501  0.00  0.00    +0.000 OA
ENDBRANCH  13  16
ENDBRANCH   1  13
BRANCH   4  17
ATOM     17  N   UNL     1       1.550   7.168  21.320  0.00  0.00    +0.000 N 
ATOM     18  H   UNL     1       2.143   7.288  22.140  0.00  0.00    +0.000 HD
BRANCH  17  19
ATOM     19  C   UNL     1       1.333   8.447  20.656  0.00  0.00    +0.000 C 
BRANCH  19  20
ATOM     20  C   UNL     1       0.597   9.442  21.489  0.00  0.00    +0.000 A 
ATOM     21  C   UNL     1       0.217   9.355  22.816  0.00  0.00    +0.000 A 
ATOM     22  N   UNL     1      -0.389  10.503  23.240  0.00  0.00    +0.000 NA
ATOM     23  C   UNL     1      -0.382  11.299  22.198  0.00  0.00    +0.000 A 
ATOM     24  N   UNL     1       0.193  10.704  21.104  0.00  0.00    +0.000 N 
BRANCH  24  25
ATOM     25  C   UNL     1       0.234  11.320  19.787  0.00  0.00    +0.000 C 
BRANCH  25  26
ATOM     26  C   UNL     1      -1.126  11.366  19.136  0.00  0.00    +0.000 A 
ATOM     27  C   UNL     1      -2.187  12.079  19.716  0.00  0.00    +0.000 A 
ATOM     28  C   UNL     1      -3.443  12.109  19.102  0.00  0.00    +0.000 A 
ATOM     29  C   UNL     1      -3.651  11.437  17.898  0.00  0.00    +0.000 A 
ATOM     30  C   UNL     1      -2.601  10.733  17.315  0.00  0.00    +0.000 A 
ATOM     31 BR   UNL     1      -2.867   9.830  15.675  0.00  0.00    +0.000 Br
ATOM     32  C   UNL     1      -1.349  10.689  17.927  0.00  0.00    +0.000 A 
ENDBRANCH  25  26
ENDBRANCH  24  25
ENDBRANCH  19  20
ENDBRANCH  17  19
ENDBRANCH   4  17
TORSDOF 8
ENDMDL
MODEL 9
REMARK VINA RESULT:      -8.3      1.750      3.435
REMARK  Name = 
REMARK  9 active torsions:
REMARK  status: ('A' for Active; 'I' for Inactive)
REMARK    1  A    between atoms: C_1  and  O_2
REMARK    2  A    between atoms: O_2  and  C_3
REMARK    3  A    between atoms: C_3  and  C_5
REMARK    4  A    between atoms: C_8  and  N_9
REMARK    5  A    between atoms: N_9  and  C_10
REMARK    6  A    between atoms: C_10  and  C_11
REMARK    7  A    between atoms: N_15  and  C_16
REMARK    8  A    between atoms: C_16  and  C_17
REMARK    9  A    between atoms: C_25  and  C_26
REMARK                            x       y       z     vdW  Elec       q    Type
REMARK                         _______ _______ _______ _____ _____    ______ ____
ROOT
ATOM      1  C   UNL     1       4.090   5.699  17.903  0.00  0.00    +0.000 A 
ATOM      2  C   UNL     1       4.565   6.775  17.132  0.00  0.00    +0.000 A 
ATOM      3  C   UNL     1       3.891   7.998  17.118  0.00  0.00    +0.000 A 
ATOM      4  C   UNL     1       2.707   8.179  17.836  0.00  0.00    +0.000 A 
ATOM      5  C   UNL     1       2.235   7.089  18.590  0.00  0.00    +0.000 A 
ATOM      6  C   UNL     1       2.893   5.825  18.645  0.00  0.00    +0.000 A 
ENDROOT
BRANCH   6   7
ATOM      7  C   UNL     1       2.298   4.732  19.468  0.00  0.00    +0.000 A 
ATOM      8  C   UNL     1       1.395   3.795  18.931  0.00  0.00    +0.000 A 
ATOM      9  C   UNL     1       0.882   2.741  19.697  0.00  0.00    +0.000 A 
ATOM     10  C   UNL     1       1.220   2.627  21.041  0.00  0.00    +0.000 A 
ATOM     11  C   UNL     1       2.072   3.564  21.616  0.00  0.00    +0.000 A 
ATOM     12  C   UNL     1       2.611   4.595  20.835  0.00  0.00    +0.000 A 
ENDBRANCH   6   7
BRANCH   1  13
ATOM     13  C   UNL     1       4.973   4.498  17.983  0.00  0.00    +0.000 C 
ATOM     14  O   UNL     1       4.691   3.399  17.535  0.00  0.00    +0.000 OA
BRANCH  13  16
ATOM     15  C   UNL     1       7.297   4.656  17.833  0.00  0.00    +0.000 C 
ATOM     16  O   UNL     1       6.121   4.822  18.630  0.00  0.00    +0.000 OA
ENDBRANCH  13  16
ENDBRANCH   1  13
BRANCH   4  17
ATOM     17  N   UNL     1       2.151   9.470  17.889  0.00  0.00    +0.000 N 
ATOM     18  H   UNL     1       2.351   9.987  17.033  0.00  0.00    +0.000 HD
BRANCH  17  19
ATOM     19  C   UNL     1       0.749   9.620  18.259  0.00  0.00    +0.000 C 
BRANCH  19  20
ATOM     20  C   UNL     1       0.543  10.280  19.581  0.00  0.00    +0.000 A 
ATOM     21  C   UNL     1       0.874   9.822  20.844  0.00  0.00    +0.000 A 
ATOM     22  N   UNL     1       0.578  10.746  21.805  0.00  0.00    +0.000 NA
ATOM     23  C   UNL     1       0.077  11.769  21.155  0.00  0.00    +0.000 A 
ATOM     24  N   UNL     1       0.020  11.538  19.804  0.00  0.00    +0.000 N 
BRANCH  24  25
ATOM     25  C   UNL     1      -0.591  12.460  18.860  0.00  0.00    +0.000 C 
BRANCH  25  26
ATOM     26  C   UNL     1      -1.990  12.044  18.481  0.00  0.00    +0.000 A 
ATOM     27  C   UNL     1      -2.256  11.418  17.252  0.00  0.00    +0.000 A 
ATOM     28  C   UNL     1      -3.559  11.041  16.913  0.00  0.00    +0.000 A 
ATOM     29  C   UNL     1      -4.610  11.275  17.800  0.00  0.00    +0.000 A 
ATOM     30  C   UNL     1      -4.352  11.891  19.021  0.00  0.00    +0.000 A 
ATOM     31 BR   UNL     1      -5.766  12.200  20.239  0.00  0.00    +0.000 Br
ATOM     32  C   UNL     1      -3.056  12.280  19.362  0.00  0.00    +0.000 A 
ENDBRANCH  25  26
ENDBRANCH  24  25
ENDBRANCH  19  20
ENDBRANCH  17  19
ENDBRANCH   4  17
TORSDOF 8
ENDMDL
