MODEL 1
REMARK VINA RESULT:      -6.2      0.000      0.000
REMARK  Name = 
REMARK  2 active torsions:
REMARK  status: ('A' for Active; 'I' for Inactive)
REMARK    1  A    between atoms: C_2  and  C_17
REMARK    2  A    between atoms: C_17  and  C_18
REMARK                            x       y       z     vdW  Elec       q    Type
REMARK                         _______ _______ _______ _____ _____    ______ ____
ROOT
ATOM      1  O   UNL     1       7.405  17.754  18.382  0.00  0.00    +0.000 OA
ATOM      2  C   UNL     1       7.291  16.543  18.565  0.00  0.00    +0.000 C 
ATOM      3  N   UNL     1       8.327  15.655  18.371  0.00  0.00    +0.000 N 
ATOM      4  C   UNL     1       9.683  16.096  18.144  0.00  0.00    +0.000 C 
ATOM      5  C   UNL     1      10.561  14.898  18.519  0.00  0.00    +0.000 C 
ATOM      6  C   UNL     1       9.600  13.695  18.760  0.00  0.00    +0.000 C 
ATOM      7  C   UNL     1      10.087  12.485  17.935  0.00  0.00    +0.000 C 
ATOM      8  C   UNL     1       9.214  11.260  18.172  0.00  0.00    +0.000 C 
ATOM      9  C   UNL     1       9.308  10.823  19.626  0.00  0.00    +0.000 C 
ATOM     10  C   UNL     1       9.188  11.963  20.609  0.00  0.00    +0.000 A 
ATOM     11  C   UNL     1       8.895  11.644  21.947  0.00  0.00    +0.000 A 
ATOM     12  C   UNL     1       8.808  12.638  22.917  0.00  0.00    +0.000 A 
ATOM     13  C   UNL     1       9.050  13.959  22.567  0.00  0.00    +0.000 A 
ATOM     14  C   UNL     1       9.362  14.287  21.246  0.00  0.00    +0.000 A 
ATOM     15  C   UNL     1       9.418  13.307  20.238  0.00  0.00    +0.000 A 
ATOM     16  C   UNL     1       8.242  14.217  18.233  0.00  0.00    +0.000 C 
ENDROOT
BRANCH   2  17
ATOM     17  C   UNL     1       5.999  15.998  19.145  0.00  0.00    +0.000 C 
ATOM     18  C   UNL     1       4.694  16.419  18.464  0.00  0.00    +0.000 C 
ATOM     19  C   UNL     1       5.213  15.048  18.221  0.00  0.00    +0.000 C 
BRANCH  17  20
ATOM     20  C   UNL     1       5.973  15.615  20.628  0.00  0.00    +0.000 A 
ATOM     21  C   UNL     1       6.370  16.514  21.638  0.00  0.00    +0.000 A 
ATOM     22  C   UNL     1       6.239  16.201  22.994  0.00  0.00    +0.000 A 
ATOM     23  C   UNL     1       5.726  14.966  23.369  0.00  0.00    +0.000 A 
ATOM     24 CL   UNL     1       5.537  14.590  25.037  0.00  0.00    +0.000 Cl
ATOM     25  C   UNL     1       5.354  14.040  22.400  0.00  0.00    +0.000 A 
ATOM     26  C   UNL     1       5.476  14.366  21.043  0.00  0.00    +0.000 A 
ENDBRANCH  17  20
ENDBRANCH   2  17
TORSDOF 2
ENDMDL
MODEL 2
REMARK VINA RESULT:      -5.7      5.782      7.935
REMARK  Name = 
REMARK  2 active torsions:
REMARK  status: ('A' for Active; 'I' for Inactive)
REMARK    1  A    between atoms: C_2  and  C_17
REMARK    2  A    between atoms: C_17  and  C_18
REMARK                            x       y       z     vdW  Elec       q    Type
REMARK                         _______ _______ _______ _____ _____    ______ ____
ROOT
ATOM      1  O   UNL     1      -0.020  15.109  18.646  0.00  0.00    +0.000 OA
ATOM      2  C   UNL     1       0.520  14.222  19.304  0.00  0.00    +0.000 C 
ATOM      3  N   UNL     1      -0.186  13.218  19.931  0.00  0.00    +0.000 N 
ATOM      4  C   UNL     1      -1.593  13.005  19.692  0.00  0.00    +0.000 C 
ATOM      5  C   UNL     1      -1.854  11.553  20.104  0.00  0.00    +0.000 C 
ATOM      6  C   UNL     1      -0.552  11.041  20.792  0.00  0.00    +0.000 C 
ATOM      7  C   UNL     1      -0.913  10.413  22.155  0.00  0.00    +0.000 C 
ATOM      8  C   UNL     1       0.317   9.847  22.852  0.00  0.00    +0.000 C 
ATOM      9  C   UNL     1       0.910   8.714  22.028  0.00  0.00    +0.000 C 
ATOM     10  C   UNL     1       1.029   9.033  20.558  0.00  0.00    +0.000 A 
ATOM     11  C   UNL     1       1.882   8.227  19.781  0.00  0.00    +0.000 A 
ATOM     12  C   UNL     1       2.011   8.436  18.412  0.00  0.00    +0.000 A 
ATOM     13  C   UNL     1       1.263   9.429  17.796  0.00  0.00    +0.000 A 
ATOM     14  C   UNL     1       0.398  10.223  18.553  0.00  0.00    +0.000 A 
ATOM     15  C   UNL     1       0.276  10.059  19.945  0.00  0.00    +0.000 A 
ATOM     16  C   UNL     1       0.281  12.332  20.977  0.00  0.00    +0.000 C 
ENDROOT
BRANCH   2  17
ATOM     17  C   UNL     1       2.036  14.141  19.339  0.00  0.00    +0.000 C 
ATOM     18  C   UNL     1       2.692  12.982  18.584  0.00  0.00    +0.000 C 
ATOM     19  C   UNL     1       2.735  14.339  17.980  0.00  0.00    +0.000 C 
BRANCH  17  20
ATOM     20  C   UNL     1       2.770  14.761  20.532  0.00  0.00    +0.000 A 
ATOM     21  C   UNL     1       2.457  16.047  21.015  0.00  0.00    +0.000 A 
ATOM     22  C   UNL     1       3.049  16.564  22.170  0.00  0.00    +0.000 A 
ATOM     23  C   UNL     1       3.990  15.807  22.859  0.00  0.00    +0.000 A 
ATOM     24 CL   UNL     1       4.699  16.429  24.297  0.00  0.00    +0.000 Cl
ATOM     25  C   UNL     1       4.349  14.546  22.393  0.00  0.00    +0.000 A 
ATOM     26  C   UNL     1       3.741  14.030  21.242  0.00  0.00    +0.000 A 
ENDBRANCH  17  20
ENDBRANCH   2  17
TORSDOF 2
ENDMDL
MODEL 3
REMARK VINA RESULT:      -5.7      1.857      4.869
REMARK  Name = 
REMARK  2 active torsions:
REMARK  status: ('A' for Active; 'I' for Inactive)
REMARK    1  A    between atoms: C_2  and  C_17
REMARK    2  A    between atoms: C_17  and  C_18
REMARK                            x       y       z     vdW  Elec       q    Type
REMARK                         _______ _______ _______ _____ _____    ______ ____
ROOT
ATOM      1  O   UNL     1       9.009  11.547  18.451  0.00  0.00    +0.000 OA
ATOM      2  C   UNL     1       9.138  12.618  19.041  0.00  0.00    +0.000 C 
ATOM      3  N   UNL     1       8.475  13.766  18.663  0.00  0.00    +0.000 N 
ATOM      4  C   UNL     1       7.419  13.753  17.679  0.00  0.00    +0.000 C 
ATOM      5  C   UNL     1       6.614  15.030  17.940  0.00  0.00    +0.000 C 
ATOM      6  C   UNL     1       7.417  15.861  18.987  0.00  0.00    +0.000 C 
ATOM      7  C   UNL     1       7.588  17.304  18.464  0.00  0.00    +0.000 C 
ATOM      8  C   UNL     1       8.322  18.178  19.471  0.00  0.00    +0.000 C 
ATOM      9  C   UNL     1       7.506  18.305  20.749  0.00  0.00    +0.000 C 
ATOM     10  C   UNL     1       6.951  16.991  21.243  0.00  0.00    +0.000 A 
ATOM     11  C   UNL     1       6.507  16.930  22.577  0.00  0.00    +0.000 A 
ATOM     12  C   UNL     1       5.947  15.765  23.091  0.00  0.00    +0.000 A 
ATOM     13  C   UNL     1       5.790  14.659  22.269  0.00  0.00    +0.000 A 
ATOM     14  C   UNL     1       6.208  14.713  20.937  0.00  0.00    +0.000 A 
ATOM     15  C   UNL     1       6.812  15.865  20.401  0.00  0.00    +0.000 A 
ATOM     16  C   UNL     1       8.778  15.128  19.050  0.00  0.00    +0.000 C 
ENDROOT
BRANCH   2  17
ATOM     17  C   UNL     1       9.962  12.670  20.314  0.00  0.00    +0.000 C 
ATOM     18  C   UNL     1      11.354  12.034  20.274  0.00  0.00    +0.000 C 
ATOM     19  C   UNL     1      11.247  13.516  20.231  0.00  0.00    +0.000 C 
BRANCH  17  20
ATOM     20  C   UNL     1       9.224  12.758  21.655  0.00  0.00    +0.000 A 
ATOM     21  C   UNL     1       8.406  11.712  22.126  0.00  0.00    +0.000 A 
ATOM     22  C   UNL     1       7.826  11.748  23.396  0.00  0.00    +0.000 A 
ATOM     23  C   UNL     1       8.035  12.848  24.218  0.00  0.00    +0.000 A 
ATOM     24 CL   UNL     1       7.345  12.882  25.794  0.00  0.00    +0.000 Cl
ATOM     25  C   UNL     1       8.809  13.916  23.774  0.00  0.00    +0.000 A 
ATOM     26  C   UNL     1       9.399  13.866  22.504  0.00  0.00    +0.000 A 
ENDBRANCH  17  20
ENDBRANCH   2  17
TORSDOF 2
ENDMDL
MODEL 4
REMARK VINA RESULT:      -5.6     11.903     14.744
REMARK  Name = 
REMARK  2 active torsions:
REMARK  status: ('A' for Active; 'I' for Inactive)
REMARK    1  A    between atoms: C_2  and  C_17
REMARK    2  A    between atoms: C_17  and  C_18
REMARK                            x       y       z     vdW  Elec       q    Type
REMARK                         _______ _______ _______ _____ _____    ______ ____
ROOT
ATOM      1  O   UNL     1      -7.665  11.091  20.136  0.00  0.00    +0.000 OA
ATOM      2  C   UNL     1      -7.069  12.130  20.417  0.00  0.00    +0.000 C 
ATOM      3  N   UNL     1      -7.186  12.754  21.641  0.00  0.00    +0.000 N 
ATOM      4  C   UNL     1      -7.847  12.127  22.761  0.00  0.00    +0.000 C 
ATOM      5  C   UNL     1      -7.303  12.847  24.000  0.00  0.00    +0.000 C 
ATOM      6  C   UNL     1      -6.465  14.056  23.484  0.00  0.00    +0.000 C 
ATOM      7  C   UNL     1      -6.929  15.338  24.209  0.00  0.00    +0.000 C 
ATOM      8  C   UNL     1      -6.108  16.547  23.783  0.00  0.00    +0.000 C 
ATOM      9  C   UNL     1      -4.652  16.360  24.183  0.00  0.00    +0.000 C 
ATOM     10  C   UNL     1      -4.104  14.994  23.846  0.00  0.00    +0.000 A 
ATOM     11  C   UNL     1      -2.706  14.837  23.831  0.00  0.00    +0.000 A 
ATOM     12  C   UNL     1      -2.129  13.598  23.569  0.00  0.00    +0.000 A 
ATOM     13  C   UNL     1      -2.942  12.494  23.355  0.00  0.00    +0.000 A 
ATOM     14  C   UNL     1      -4.332  12.633  23.388  0.00  0.00    +0.000 A 
ATOM     15  C   UNL     1      -4.942  13.881  23.613  0.00  0.00    +0.000 A 
ATOM     16  C   UNL     1      -6.815  14.112  21.978  0.00  0.00    +0.000 C 
ENDROOT
BRANCH   2  17
ATOM     17  C   UNL     1      -6.065  12.700  19.432  0.00  0.00    +0.000 C 
ATOM     18  C   UNL     1      -4.587  12.648  19.831  0.00  0.00    +0.000 C 
ATOM     19  C   UNL     1      -5.087  11.675  18.825  0.00  0.00    +0.000 C 
BRANCH  17  20
ATOM     20  C   UNL     1      -6.535  13.789  18.462  0.00  0.00    +0.000 A 
ATOM     21  C   UNL     1      -6.379  15.160  18.748  0.00  0.00    +0.000 A 
ATOM     22  C   UNL     1      -6.705  16.147  17.815  0.00  0.00    +0.000 A 
ATOM     23  C   UNL     1      -7.219  15.781  16.576  0.00  0.00    +0.000 A 
ATOM     24 CL   UNL     1      -7.594  16.994  15.415  0.00  0.00    +0.000 Cl
ATOM     25  C   UNL     1      -7.418  14.439  16.271  0.00  0.00    +0.000 A 
ATOM     26  C   UNL     1      -7.076  13.454  17.207  0.00  0.00    +0.000 A 
ENDBRANCH  17  20
ENDBRANCH   2  17
TORSDOF 2
ENDMDL
MODEL 5
REMARK VINA RESULT:      -5.5      8.269     11.028
REMARK  Name = 
REMARK  2 active torsions:
REMARK  status: ('A' for Active; 'I' for Inactive)
REMARK    1  A    between atoms: C_2  and  C_17
REMARK    2  A    between atoms: C_17  and  C_18
REMARK                            x       y       z     vdW  Elec       q    Type
REMARK                         _______ _______ _______ _____ _____    ______ ____
ROOT
ATOM      1  O   UNL     1       2.023  11.958  21.279  0.00  0.00    +0.000 OA
ATOM      2  C   UNL     1       0.850  11.589  21.240  0.00  0.00    +0.000 C 
ATOM      3  N   UNL     1      -0.193  12.437  20.937  0.00  0.00    +0.000 N 
ATOM      4  C   UNL     1       0.025  13.772  20.433  0.00  0.00    +0.000 C 
ATOM      5  C   UNL     1      -1.282  14.154  19.731  0.00  0.00    +0.000 C 
ATOM      6  C   UNL     1      -2.314  13.033  20.065  0.00  0.00    +0.000 C 
ATOM      7  C   UNL     1      -3.610  13.682  20.597  0.00  0.00    +0.000 C 
ATOM      8  C   UNL     1      -4.677  12.636  20.892  0.00  0.00    +0.000 C 
ATOM      9  C   UNL     1      -5.079  11.922  19.611  0.00  0.00    +0.000 C 
ATOM     10  C   UNL     1      -3.904  11.497  18.762  0.00  0.00    +0.000 A 
ATOM     11  C   UNL     1      -4.133  10.529  17.768  0.00  0.00    +0.000 A 
ATOM     12  C   UNL     1      -3.109  10.117  16.921  0.00  0.00    +0.000 A 
ATOM     13  C   UNL     1      -1.852  10.696  17.034  0.00  0.00    +0.000 A 
ATOM     14  C   UNL     1      -1.617  11.673  18.004  0.00  0.00    +0.000 A 
ATOM     15  C   UNL     1      -2.625  12.080  18.898  0.00  0.00    +0.000 A 
ATOM     16  C   UNL     1      -1.605  12.219  21.173  0.00  0.00    +0.000 C 
ENDROOT
BRANCH   2  17
ATOM     17  C   UNL     1       0.530  10.115  21.412  0.00  0.00    +0.000 C 
ATOM     18  C   UNL     1       0.199   9.631  22.827  0.00  0.00    +0.000 C 
ATOM     19  C   UNL     1      -0.912   9.804  21.856  0.00  0.00    +0.000 C 
BRANCH  17  20
ATOM     20  C   UNL     1       1.118   9.121  20.406  0.00  0.00    +0.000 A 
ATOM     21  C   UNL     1       1.254   9.436  19.039  0.00  0.00    +0.000 A 
ATOM     22  C   UNL     1       1.892   8.572  18.145  0.00  0.00    +0.000 A 
ATOM     23  C   UNL     1       2.391   7.357  18.599  0.00  0.00    +0.000 A 
ATOM     24 CL   UNL     1       3.203   6.305  17.508  0.00  0.00    +0.000 Cl
ATOM     25  C   UNL     1       2.246   6.997  19.936  0.00  0.00    +0.000 A 
ATOM     26  C   UNL     1       1.617   7.875  20.828  0.00  0.00    +0.000 A 
ENDBRANCH  17  20
ENDBRANCH   2  17
TORSDOF 2
ENDMDL
MODEL 6
REMARK VINA RESULT:      -5.5      7.455      9.776
REMARK  Name = 
REMARK  2 active torsions:
REMARK  status: ('A' for Active; 'I' for Inactive)
REMARK    1  A    between atoms: C_2  and  C_17
REMARK    2  A    between atoms: C_17  and  C_18
REMARK                            x       y       z     vdW  Elec       q    Type
REMARK                         _______ _______ _______ _____ _____    ______ ____
ROOT
ATOM      1  O   UNL     1       2.599  13.068  21.199  0.00  0.00    +0.000 OA
ATOM      2  C   UNL     1       1.628  13.205  20.457  0.00  0.00    +0.000 C 
ATOM      3  N   UNL     1       0.898  12.141  19.973  0.00  0.00    +0.000 N 
ATOM      4  C   UNL     1       1.083  10.798  20.466  0.00  0.00    +0.000 C 
ATOM      5  C   UNL     1      -0.213  10.060  20.114  0.00  0.00    +0.000 C 
ATOM      6  C   UNL     1      -1.040  11.018  19.203  0.00  0.00    +0.000 C 
ATOM      7  C   UNL     1      -1.473  10.257  17.931  0.00  0.00    +0.000 C 
ATOM      8  C   UNL     1      -2.330  11.129  17.024  0.00  0.00    +0.000 C 
ATOM      9  C   UNL     1      -3.624  11.506  17.730  0.00  0.00    +0.000 C 
ATOM     10  C   UNL     1      -3.424  11.968  19.153  0.00  0.00    +0.000 A 
ATOM     11  C   UNL     1      -4.475  12.675  19.764  0.00  0.00    +0.000 A 
ATOM     12  C   UNL     1      -4.379  13.098  21.086  0.00  0.00    +0.000 A 
ATOM     13  C   UNL     1      -3.245  12.788  21.824  0.00  0.00    +0.000 A 
ATOM     14  C   UNL     1      -2.202  12.070  21.235  0.00  0.00    +0.000 A 
ATOM     15  C   UNL     1      -2.257  11.662  19.889  0.00  0.00    +0.000 A 
ATOM     16  C   UNL     1      -0.032  12.141  18.864  0.00  0.00    +0.000 C 
ENDROOT
BRANCH   2  17
ATOM     17  C   UNL     1       1.122  14.603  20.147  0.00  0.00    +0.000 C 
ATOM     18  C   UNL     1       2.155  15.634  19.682  0.00  0.00    +0.000 C 
ATOM     19  C   UNL     1       1.245  15.033  18.673  0.00  0.00    +0.000 C 
BRANCH  17  20
ATOM     20  C   UNL     1      -0.148  15.089  20.852  0.00  0.00    +0.000 A 
ATOM     21  C   UNL     1      -0.245  15.146  22.257  0.00  0.00    +0.000 A 
ATOM     22  C   UNL     1      -1.361  15.695  22.895  0.00  0.00    +0.000 A 
ATOM     23  C   UNL     1      -2.419  16.180  22.136  0.00  0.00    +0.000 A 
ATOM     24 CL   UNL     1      -3.781  16.882  22.917  0.00  0.00    +0.000 Cl
ATOM     25  C   UNL     1      -2.372  16.110  20.747  0.00  0.00    +0.000 A 
ATOM     26  C   UNL     1      -1.245  15.571  20.115  0.00  0.00    +0.000 A 
ENDBRANCH  17  20
ENDBRANCH   2  17
TORSDOF 2
ENDMDL
MODEL 7
REMARK VINA RESULT:      -5.5     10.564     13.501
REMARK  Name = 
REMARK  2 active torsions:
REMARK  status: ('A' for Active; 'I' for Inactive)
REMARK    1  A    between atoms: C_2  and  C_17
REMARK    2  A    between atoms: C_17  and  C_18
REMARK                            x       y       z     vdW  Elec       q    Type
REMARK                         _______ _______ _______ _____ _____    ______ ____
ROOT
ATOM      1  O   UNL     1      -1.687  15.193  21.018  0.00  0.00    +0.000 OA
ATOM      2  C   UNL     1      -2.449  14.371  21.524  0.00  0.00    +0.000 C 
ATOM      3  N   UNL     1      -3.725  14.687  21.938  0.00  0.00    +0.000 N 
ATOM      4  C   UNL     1      -4.344  15.951  21.619  0.00  0.00    +0.000 C 
ATOM      5  C   UNL     1      -5.850  15.706  21.756  0.00  0.00    +0.000 C 
ATOM      6  C   UNL     1      -6.018  14.288  22.382  0.00  0.00    +0.000 C 
ATOM      7  C   UNL     1      -6.964  14.381  23.599  0.00  0.00    +0.000 C 
ATOM      8  C   UNL     1      -7.208  13.014  24.222  0.00  0.00    +0.000 C 
ATOM      9  C   UNL     1      -7.915  12.104  23.228  0.00  0.00    +0.000 C 
ATOM     10  C   UNL     1      -7.315  12.140  21.843  0.00  0.00    +0.000 A 
ATOM     11  C   UNL     1      -7.641  11.093  20.963  0.00  0.00    +0.000 A 
ATOM     12  C   UNL     1      -7.159  11.080  19.658  0.00  0.00    +0.000 A 
ATOM     13  C   UNL     1      -6.375  12.132  19.206  0.00  0.00    +0.000 A 
ATOM     14  C   UNL     1      -6.060  13.188  20.065  0.00  0.00    +0.000 A 
ATOM     15  C   UNL     1      -6.503  13.208  21.400  0.00  0.00    +0.000 A 
ATOM     16  C   UNL     1      -4.580  13.924  22.823  0.00  0.00    +0.000 C 
ENDROOT
BRANCH   2  17
ATOM     17  C   UNL     1      -2.030  12.914  21.592  0.00  0.00    +0.000 C 
ATOM     18  C   UNL     1      -1.157  12.491  22.777  0.00  0.00    +0.000 C 
ATOM     19  C   UNL     1      -2.596  12.123  22.787  0.00  0.00    +0.000 C 
BRANCH  17  20
ATOM     20  C   UNL     1      -1.941  12.120  20.284  0.00  0.00    +0.000 A 
ATOM     21  C   UNL     1      -0.936  11.158  20.063  0.00  0.00    +0.000 A 
ATOM     22  C   UNL     1      -0.924  10.358  18.917  0.00  0.00    +0.000 A 
ATOM     23  C   UNL     1      -1.911  10.521  17.953  0.00  0.00    +0.000 A 
ATOM     24 CL   UNL     1      -1.915   9.519  16.555  0.00  0.00    +0.000 Cl
ATOM     25  C   UNL     1      -2.901  11.485  18.121  0.00  0.00    +0.000 A 
ATOM     26  C   UNL     1      -2.914  12.274  19.279  0.00  0.00    +0.000 A 
ENDBRANCH  17  20
ENDBRANCH   2  17
TORSDOF 2
ENDMDL
MODEL 8
REMARK VINA RESULT:      -5.5      8.932     11.791
REMARK  Name = 
REMARK  2 active torsions:
REMARK  status: ('A' for Active; 'I' for Inactive)
REMARK    1  A    between atoms: C_2  and  C_17
REMARK    2  A    between atoms: C_17  and  C_18
REMARK                            x       y       z     vdW  Elec       q    Type
REMARK                         _______ _______ _______ _____ _____    ______ ____
ROOT
ATOM      1  O   UNL     1      -0.275  14.016  18.764  0.00  0.00    +0.000 OA
ATOM      2  C   UNL     1      -1.000  13.378  19.526  0.00  0.00    +0.000 C 
ATOM      3  N   UNL     1      -1.566  13.927  20.656  0.00  0.00    +0.000 N 
ATOM      4  C   UNL     1      -1.529  15.345  20.922  0.00  0.00    +0.000 C 
ATOM      5  C   UNL     1      -2.676  15.599  21.905  0.00  0.00    +0.000 C 
ATOM      6  C   UNL     1      -3.213  14.201  22.337  0.00  0.00    +0.000 C 
ATOM      7  C   UNL     1      -3.273  14.136  23.879  0.00  0.00    +0.000 C 
ATOM      8  C   UNL     1      -3.842  12.808  24.360  0.00  0.00    +0.000 C 
ATOM      9  C   UNL     1      -5.281  12.654  23.892  0.00  0.00    +0.000 C 
ATOM     10  C   UNL     1      -5.486  13.013  22.440  0.00  0.00    +0.000 A 
ATOM     11  C   UNL     1      -6.666  12.568  21.817  0.00  0.00    +0.000 A 
ATOM     12  C   UNL     1      -6.943  12.894  20.493  0.00  0.00    +0.000 A 
ATOM     13  C   UNL     1      -6.061  13.700  19.787  0.00  0.00    +0.000 A 
ATOM     14  C   UNL     1      -4.896  14.166  20.401  0.00  0.00    +0.000 A 
ATOM     15  C   UNL     1      -4.573  13.821  21.726  0.00  0.00    +0.000 A 
ATOM     16  C   UNL     1      -2.149  13.226  21.781  0.00  0.00    +0.000 C 
ENDROOT
BRANCH   2  17
ATOM     17  C   UNL     1      -1.397  11.960  19.160  0.00  0.00    +0.000 C 
ATOM     18  C   UNL     1      -2.894  11.646  19.101  0.00  0.00    +0.000 C 
ATOM     19  C   UNL     1      -2.152  11.814  17.825  0.00  0.00    +0.000 C 
BRANCH  17  20
ATOM     20  C   UNL     1      -0.411  10.827  19.465  0.00  0.00    +0.000 A 
ATOM     21  C   UNL     1      -0.422  10.140  20.695  0.00  0.00    +0.000 A 
ATOM     22  C   UNL     1       0.402   9.035  20.927  0.00  0.00    +0.000 A 
ATOM     23  C   UNL     1       1.274   8.606  19.935  0.00  0.00    +0.000 A 
ATOM     24 CL   UNL     1       2.268   7.229  20.208  0.00  0.00    +0.000 Cl
ATOM     25  C   UNL     1       1.337   9.280  18.720  0.00  0.00    +0.000 A 
ATOM     26  C   UNL     1       0.498  10.379  18.489  0.00  0.00    +0.000 A 
ENDBRANCH  17  20
ENDBRANCH   2  17
TORSDOF 2
ENDMDL
MODEL 9
REMARK VINA RESULT:      -5.4      6.664      9.451
REMARK  Name = 
REMARK  2 active torsions:
REMARK  status: ('A' for Active; 'I' for Inactive)
REMARK    1  A    between atoms: C_2  and  C_17
REMARK    2  A    between atoms: C_17  and  C_18
REMARK                            x       y       z     vdW  Elec       q    Type
REMARK                         _______ _______ _______ _____ _____    ______ ____
ROOT
ATOM      1  O   UNL     1       0.024  12.262  22.134  0.00  0.00    +0.000 OA
ATOM      2  C   UNL     1      -0.028  12.947  21.114  0.00  0.00    +0.000 C 
ATOM      3  N   UNL     1       0.124  14.316  21.122  0.00  0.00    +0.000 N 
ATOM      4  C   UNL     1       0.566  15.032  22.295  0.00  0.00    +0.000 C 
ATOM      5  C   UNL     1       1.116  16.362  21.769  0.00  0.00    +0.000 C 
ATOM      6  C   UNL     1       0.751  16.430  20.254  0.00  0.00    +0.000 C 
ATOM      7  C   UNL     1       0.060  17.778  19.960  0.00  0.00    +0.000 C 
ATOM      8  C   UNL     1      -0.273  17.924  18.482  0.00  0.00    +0.000 C 
ATOM      9  C   UNL     1       1.003  17.935  17.655  0.00  0.00    +0.000 C 
ATOM     10  C   UNL     1       1.984  16.855  18.044  0.00  0.00    +0.000 A 
ATOM     11  C   UNL     1       3.007  16.543  17.131  0.00  0.00    +0.000 A 
ATOM     12  C   UNL     1       3.971  15.587  17.436  0.00  0.00    +0.000 A 
ATOM     13  C   UNL     1       3.945  14.959  18.673  0.00  0.00    +0.000 A 
ATOM     14  C   UNL     1       2.946  15.275  19.597  0.00  0.00    +0.000 A 
ATOM     15  C   UNL     1       1.937  16.209  19.300  0.00  0.00    +0.000 A 
ATOM     16  C   UNL     1      -0.233  15.249  20.075  0.00  0.00    +0.000 C 
ENDROOT
BRANCH   2  17
ATOM     17  C   UNL     1      -0.142  12.261  19.765  0.00  0.00    +0.000 C 
ATOM     18  C   UNL     1       1.077  12.325  18.842  0.00  0.00    +0.000 C 
ATOM     19  C   UNL     1       0.795  11.055  19.559  0.00  0.00    +0.000 C 
BRANCH  17  20
ATOM     20  C   UNL     1      -1.535  12.101  19.146  0.00  0.00    +0.000 A 
ATOM     21  C   UNL     1      -1.720  11.578  17.850  0.00  0.00    +0.000 A 
ATOM     22  C   UNL     1      -2.993  11.330  17.332  0.00  0.00    +0.000 A 
ATOM     23  C   UNL     1      -4.116  11.623  18.096  0.00  0.00    +0.000 A 
ATOM     24 CL   UNL     1      -5.685  11.291  17.472  0.00  0.00    +0.000 Cl
ATOM     25  C   UNL     1      -3.974  12.171  19.367  0.00  0.00    +0.000 A 
ATOM     26  C   UNL     1      -2.693  12.405  19.884  0.00  0.00    +0.000 A 
ENDBRANCH  17  20
ENDBRANCH   2  17
TORSDOF 2
ENDMDL
