MODEL 1
REMARK VINA RESULT:      -7.3      0.000      0.000
REMARK  Name = 
REMARK  4 active torsions:
REMARK  status: ('A' for Active; 'I' for Inactive)
REMARK    1  A    between atoms: C_2  and  C_13
REMARK    2  A    between atoms: N_3  and  C_4
REMARK    3  A    between atoms: C_4  and  C_5
REMARK    4  A    between atoms: C_5  and  N_6
REMARK                            x       y       z     vdW  Elec       q    Type
REMARK                         _______ _______ _______ _____ _____    ______ ____
ROOT
ATOM      1  O   UNL     1       3.846   4.984  17.234  0.00  0.00    +0.000 OA
ATOM      2  C   UNL     1       4.968   4.496  17.179  0.00  0.00    +0.000 C 
ATOM      3  N   UNL     1       5.591   3.899  18.255  0.00  0.00    +0.000 N 
ATOM      4  H   UNL     1       6.563   3.624  18.193  0.00  0.00    +0.000 HD
ENDROOT
BRANCH   2   5
ATOM      5  C   UNL     1       5.737   4.552  15.916  0.00  0.00    +0.000 A 
ATOM      6  C   UNL     1       6.863   5.370  15.850  0.00  0.00    +0.000 A 
ATOM      7  N   UNL     1       7.651   5.483  14.749  0.00  0.00    +0.000 NA
ATOM      8  C   UNL     1       7.278   4.764  13.664  0.00  0.00    +0.000 A 
ATOM      9  C   UNL     1       6.160   3.949  13.638  0.00  0.00    +0.000 A 
ATOM     10  F   UNL     1       5.833   3.274  12.530  0.00  0.00    +0.000 F 
ATOM     11  C   UNL     1       5.371   3.837  14.776  0.00  0.00    +0.000 A 
ENDBRANCH   2   5
BRANCH   3  12
ATOM     12  C   UNL     1       4.942   3.808  19.553  0.00  0.00    +0.000 C 
BRANCH  12  13
ATOM     13  C   UNL     1       4.283   2.442  19.777  0.00  0.00    +0.000 C 
BRANCH  13  14
ATOM     14  N   UNL     1       2.834   2.512  19.815  0.00  0.00    +0.000 N 
ATOM     15  C   UNL     1       2.099   2.864  20.897  0.00  0.00    +0.000 C 
ATOM     16  O   UNL     1       2.504   3.148  22.013  0.00  0.00    +0.000 OA
ATOM     17  C   UNL     1       0.664   2.878  20.470  0.00  0.00    +0.000 C 
ATOM     18  O   UNL     1       0.727   2.535  19.084  0.00  0.00    +0.000 OA
ATOM     19  C   UNL     1       2.033   2.356  18.739  0.00  0.00    +0.000 C 
ATOM     20  O   UNL     1       2.396   2.097  17.602  0.00  0.00    +0.000 OA
ENDBRANCH  13  14
ENDBRANCH  12  13
ENDBRANCH   3  12
TORSDOF 4
ENDMDL
MODEL 2
REMARK VINA RESULT:      -7.2      1.540      2.300
REMARK  Name = 
REMARK  4 active torsions:
REMARK  status: ('A' for Active; 'I' for Inactive)
REMARK    1  A    between atoms: C_2  and  C_13
REMARK    2  A    between atoms: N_3  and  C_4
REMARK    3  A    between atoms: C_4  and  C_5
REMARK    4  A    between atoms: C_5  and  N_6
REMARK                            x       y       z     vdW  Elec       q    Type
REMARK                         _______ _______ _______ _____ _____    ______ ____
ROOT
ATOM      1  O   UNL     1       4.973   3.480  18.547  0.00  0.00    +0.000 OA
ATOM      2  C   UNL     1       5.010   4.546  17.944  0.00  0.00    +0.000 C 
ATOM      3  N   UNL     1       4.454   5.712  18.428  0.00  0.00    +0.000 N 
ATOM      4  H   UNL     1       4.401   6.534  17.840  0.00  0.00    +0.000 HD
ENDROOT
BRANCH   2   5
ATOM      5  C   UNL     1       5.653   4.622  16.614  0.00  0.00    +0.000 A 
ATOM      6  C   UNL     1       6.909   5.216  16.506  0.00  0.00    +0.000 A 
ATOM      7  N   UNL     1       7.597   5.323  15.339  0.00  0.00    +0.000 NA
ATOM      8  C   UNL     1       6.987   4.835  14.233  0.00  0.00    +0.000 A 
ATOM      9  C   UNL     1       5.731   4.253  14.250  0.00  0.00    +0.000 A 
ATOM     10  F   UNL     1       5.173   3.802  13.120  0.00  0.00    +0.000 F 
ATOM     11  C   UNL     1       5.046   4.143  15.454  0.00  0.00    +0.000 A 
ENDBRANCH   2   5
BRANCH   3  12
ATOM     12  C   UNL     1       3.774   5.752  19.713  0.00  0.00    +0.000 C 
BRANCH  12  13
ATOM     13  C   UNL     1       2.250   5.672  19.566  0.00  0.00    +0.000 C 
BRANCH  13  14
ATOM     14  N   UNL     1       1.756   4.308  19.532  0.00  0.00    +0.000 N 
ATOM     15  C   UNL     1       1.378   3.644  18.413  0.00  0.00    +0.000 C 
ATOM     16  O   UNL     1       1.354   4.065  17.269  0.00  0.00    +0.000 OA
ATOM     17  C   UNL     1       1.015   2.252  18.829  0.00  0.00    +0.000 C 
ATOM     18  O   UNL     1       1.263   2.251  20.236  0.00  0.00    +0.000 OA
ATOM     19  C   UNL     1       1.725   3.480  20.598  0.00  0.00    +0.000 C 
ATOM     20  O   UNL     1       2.064   3.760  21.738  0.00  0.00    +0.000 OA
ENDBRANCH  13  14
ENDBRANCH  12  13
ENDBRANCH   3  12
TORSDOF 4
ENDMDL
MODEL 3
REMARK VINA RESULT:      -7.2      2.964      3.523
REMARK  Name = 
REMARK  4 active torsions:
REMARK  status: ('A' for Active; 'I' for Inactive)
REMARK    1  A    between atoms: C_2  and  C_13
REMARK    2  A    between atoms: N_3  and  C_4
REMARK    3  A    between atoms: C_4  and  C_5
REMARK    4  A    between atoms: C_5  and  N_6
REMARK                            x       y       z     vdW  Elec       q    Type
REMARK                         _______ _______ _______ _____ _____    ______ ____
ROOT
ATOM      1  O   UNL     1       3.223   5.585  18.758  0.00  0.00    +0.000 OA
ATOM      2  C   UNL     1       4.126   5.152  18.053  0.00  0.00    +0.000 C 
ATOM      3  N   UNL     1       3.990   4.047  17.238  0.00  0.00    +0.000 N 
ATOM      4  H   UNL     1       4.798   3.655  16.772  0.00  0.00    +0.000 HD
ENDROOT
BRANCH   2   5
ATOM      5  C   UNL     1       5.454   5.803  18.069  0.00  0.00    +0.000 A 
ATOM      6  C   UNL     1       5.706   6.841  17.175  0.00  0.00    +0.000 A 
ATOM      7  N   UNL     1       6.881   7.520  17.115  0.00  0.00    +0.000 NA
ATOM      8  C   UNL     1       7.850   7.123  17.973  0.00  0.00    +0.000 A 
ATOM      9  C   UNL     1       7.691   6.085  18.875  0.00  0.00    +0.000 A 
ATOM     10  F   UNL     1       8.692   5.728  19.688  0.00  0.00    +0.000 F 
ATOM     11  C   UNL     1       6.479   5.408  18.929  0.00  0.00    +0.000 A 
ENDBRANCH   2   5
BRANCH   3  12
ATOM     12  C   UNL     1       2.739   3.311  17.159  0.00  0.00    +0.000 C 
BRANCH  12  13
ATOM     13  C   UNL     1       2.745   2.060  18.046  0.00  0.00    +0.000 C 
BRANCH  13  14
ATOM     14  N   UNL     1       2.559   2.362  19.453  0.00  0.00    +0.000 N 
ATOM     15  C   UNL     1       1.363   2.576  20.053  0.00  0.00    +0.000 C 
ATOM     16  O   UNL     1       0.260   2.587  19.532  0.00  0.00    +0.000 OA
ATOM     17  C   UNL     1       1.631   2.772  21.512  0.00  0.00    +0.000 C 
ATOM     18  O   UNL     1       3.047   2.614  21.614  0.00  0.00    +0.000 OA
ATOM     19  C   UNL     1       3.545   2.345  20.375  0.00  0.00    +0.000 C 
ATOM     20  O   UNL     1       4.727   2.118  20.162  0.00  0.00    +0.000 OA
ENDBRANCH  13  14
ENDBRANCH  12  13
ENDBRANCH   3  12
TORSDOF 4
ENDMDL
MODEL 4
REMARK VINA RESULT:      -7.2      2.883      3.500
REMARK  Name = 
REMARK  4 active torsions:
REMARK  status: ('A' for Active; 'I' for Inactive)
REMARK    1  A    between atoms: C_2  and  C_13
REMARK    2  A    between atoms: N_3  and  C_4
REMARK    3  A    between atoms: C_4  and  C_5
REMARK    4  A    between atoms: C_5  and  N_6
REMARK                            x       y       z     vdW  Elec       q    Type
REMARK                         _______ _______ _______ _____ _____    ______ ____
ROOT
ATOM      1  O   UNL     1       3.320   5.670  18.604  0.00  0.00    +0.000 OA
ATOM      2  C   UNL     1       4.290   5.118  18.098  0.00  0.00    +0.000 C 
ATOM      3  N   UNL     1       4.202   3.964  17.348  0.00  0.00    +0.000 N 
ATOM      4  H   UNL     1       5.041   3.479  17.057  0.00  0.00    +0.000 HD
ENDROOT
BRANCH   2   5
ATOM      5  C   UNL     1       5.645   5.674  18.300  0.00  0.00    +0.000 A 
ATOM      6  C   UNL     1       6.414   5.204  19.363  0.00  0.00    +0.000 A 
ATOM      7  N   UNL     1       7.676   5.631  19.631  0.00  0.00    +0.000 NA
ATOM      8  C   UNL     1       8.176   6.586  18.811  0.00  0.00    +0.000 A 
ATOM      9  C   UNL     1       7.469   7.124  17.749  0.00  0.00    +0.000 A 
ATOM     10  F   UNL     1       8.011   8.077  16.983  0.00  0.00    +0.000 F 
ATOM     11  C   UNL     1       6.184   6.669  17.484  0.00  0.00    +0.000 A 
ENDBRANCH   2   5
BRANCH   3  12
ATOM     12  C   UNL     1       2.924   3.314  17.103  0.00  0.00    +0.000 C 
BRANCH  12  13
ATOM     13  C   UNL     1       2.737   2.060  17.965  0.00  0.00    +0.000 C 
BRANCH  13  14
ATOM     14  N   UNL     1       2.540   2.364  19.371  0.00  0.00    +0.000 N 
ATOM     15  C   UNL     1       1.338   2.561  19.965  0.00  0.00    +0.000 C 
ATOM     16  O   UNL     1       0.237   2.552  19.439  0.00  0.00    +0.000 OA
ATOM     17  C   UNL     1       1.597   2.766  21.425  0.00  0.00    +0.000 C 
ATOM     18  O   UNL     1       3.016   2.630  21.533  0.00  0.00    +0.000 OA
ATOM     19  C   UNL     1       3.523   2.366  20.297  0.00  0.00    +0.000 C 
ATOM     20  O   UNL     1       4.708   2.157  20.089  0.00  0.00    +0.000 OA
ENDBRANCH  13  14
ENDBRANCH  12  13
ENDBRANCH   3  12
TORSDOF 4
ENDMDL
MODEL 5
REMARK VINA RESULT:      -7.1      1.717      2.056
REMARK  Name = 
REMARK  4 active torsions:
REMARK  status: ('A' for Active; 'I' for Inactive)
REMARK    1  A    between atoms: C_2  and  C_13
REMARK    2  A    between atoms: N_3  and  C_4
REMARK    3  A    between atoms: C_4  and  C_5
REMARK    4  A    between atoms: C_5  and  N_6
REMARK                            x       y       z     vdW  Elec       q    Type
REMARK                         _______ _______ _______ _____ _____    ______ ____
ROOT
ATOM      1  O   UNL     1       5.631   5.146  19.342  0.00  0.00    +0.000 OA
ATOM      2  C   UNL     1       4.994   5.419  18.331  0.00  0.00    +0.000 C 
ATOM      3  N   UNL     1       3.695   5.881  18.354  0.00  0.00    +0.000 N 
ATOM      4  H   UNL     1       3.171   5.973  17.493  0.00  0.00    +0.000 HD
ENDROOT
BRANCH   2   5
ATOM      5  C   UNL     1       5.606   5.231  16.998  0.00  0.00    +0.000 A 
ATOM      6  C   UNL     1       6.909   5.677  16.786  0.00  0.00    +0.000 A 
ATOM      7  N   UNL     1       7.573   5.540  15.609  0.00  0.00    +0.000 NA
ATOM      8  C   UNL     1       6.892   4.952  14.597  0.00  0.00    +0.000 A 
ATOM      9  C   UNL     1       5.587   4.504  14.717  0.00  0.00    +0.000 A 
ATOM     10  F   UNL     1       4.960   3.944  13.676  0.00  0.00    +0.000 F 
ATOM     11  C   UNL     1       4.926   4.643  15.931  0.00  0.00    +0.000 A 
ENDBRANCH   2   5
BRANCH   3  12
ATOM     12  C   UNL     1       2.982   6.081  19.606  0.00  0.00    +0.000 C 
BRANCH  12  13
ATOM     13  C   UNL     1       2.011   4.934  19.910  0.00  0.00    +0.000 C 
BRANCH  13  14
ATOM     14  N   UNL     1       2.297   3.733  19.147  0.00  0.00    +0.000 N 
ATOM     15  C   UNL     1       2.986   2.662  19.608  0.00  0.00    +0.000 C 
ATOM     16  O   UNL     1       3.505   2.526  20.704  0.00  0.00    +0.000 OA
ATOM     17  C   UNL     1       2.974   1.630  18.524  0.00  0.00    +0.000 C 
ATOM     18  O   UNL     1       2.205   2.245  17.489  0.00  0.00    +0.000 OA
ATOM     19  C   UNL     1       1.804   3.475  17.916  0.00  0.00    +0.000 C 
ATOM     20  O   UNL     1       1.092   4.215  17.255  0.00  0.00    +0.000 OA
ENDBRANCH  13  14
ENDBRANCH  12  13
ENDBRANCH   3  12
TORSDOF 4
ENDMDL
MODEL 6
REMARK VINA RESULT:      -7.1      2.898      3.352
REMARK  Name = 
REMARK  4 active torsions:
REMARK  status: ('A' for Active; 'I' for Inactive)
REMARK    1  A    between atoms: C_2  and  C_13
REMARK    2  A    between atoms: N_3  and  C_4
REMARK    3  A    between atoms: C_4  and  C_5
REMARK    4  A    between atoms: C_5  and  N_6
REMARK                            x       y       z     vdW  Elec       q    Type
REMARK                         _______ _______ _______ _____ _____    ______ ____
ROOT
ATOM      1  O   UNL     1       3.253   5.697  17.717  0.00  0.00    +0.000 OA
ATOM      2  C   UNL     1       4.299   5.072  17.588  0.00  0.00    +0.000 C 
ATOM      3  N   UNL     1       4.349   3.740  17.234  0.00  0.00    +0.000 N 
ATOM      4  H   UNL     1       5.226   3.237  17.263  0.00  0.00    +0.000 HD
ENDROOT
BRANCH   2   5
ATOM      5  C   UNL     1       5.595   5.738  17.843  0.00  0.00    +0.000 A 
ATOM      6  C   UNL     1       5.899   6.906  17.147  0.00  0.00    +0.000 A 
ATOM      7  N   UNL     1       7.050   7.608  17.316  0.00  0.00    +0.000 NA
ATOM      8  C   UNL     1       7.941   7.102  18.201  0.00  0.00    +0.000 A 
ATOM      9  C   UNL     1       7.727   5.934  18.913  0.00  0.00    +0.000 A 
ATOM     10  F   UNL     1       8.653   5.475  19.763  0.00  0.00    +0.000 F 
ATOM     11  C   UNL     1       6.540   5.234  18.736  0.00  0.00    +0.000 A 
ENDBRANCH   2   5
BRANCH   3  12
ATOM     12  C   UNL     1       3.137   2.975  16.984  0.00  0.00    +0.000 C 
BRANCH  12  13
ATOM     13  C   UNL     1       2.993   1.787  17.942  0.00  0.00    +0.000 C 
BRANCH  13  14
ATOM     14  N   UNL     1       2.574   2.182  19.275  0.00  0.00    +0.000 N 
ATOM     15  C   UNL     1       3.408   2.543  20.279  0.00  0.00    +0.000 C 
ATOM     16  O   UNL     1       4.628   2.572  20.260  0.00  0.00    +0.000 OA
ATOM     17  C   UNL     1       2.552   2.943  21.440  0.00  0.00    +0.000 C 
ATOM     18  O   UNL     1       1.222   2.786  20.941  0.00  0.00    +0.000 OA
ATOM     19  C   UNL     1       1.289   2.361  19.649  0.00  0.00    +0.000 C 
ATOM     20  O   UNL     1       0.303   2.182  18.950  0.00  0.00    +0.000 OA
ENDBRANCH  13  14
ENDBRANCH  12  13
ENDBRANCH   3  12
TORSDOF 4
ENDMDL
MODEL 7
REMARK VINA RESULT:      -7.1      2.693      3.364
REMARK  Name = 
REMARK  4 active torsions:
REMARK  status: ('A' for Active; 'I' for Inactive)
REMARK    1  A    between atoms: C_2  and  C_13
REMARK    2  A    between atoms: N_3  and  C_4
REMARK    3  A    between atoms: C_4  and  C_5
REMARK    4  A    between atoms: C_5  and  N_6
REMARK                            x       y       z     vdW  Elec       q    Type
REMARK                         _______ _______ _______ _____ _____    ______ ____
ROOT
ATOM      1  O   UNL     1       5.564   3.734  15.912  0.00  0.00    +0.000 OA
ATOM      2  C   UNL     1       5.287   4.350  16.933  0.00  0.00    +0.000 C 
ATOM      3  N   UNL     1       4.056   4.279  17.553  0.00  0.00    +0.000 N 
ATOM      4  H   UNL     1       3.835   4.900  18.321  0.00  0.00    +0.000 HD
ENDROOT
BRANCH   2   5
ATOM      5  C   UNL     1       6.288   5.248  17.551  0.00  0.00    +0.000 A 
ATOM      6  C   UNL     1       6.910   4.851  18.732  0.00  0.00    +0.000 A 
ATOM      7  N   UNL     1       7.855   5.587  19.373  0.00  0.00    +0.000 NA
ATOM      8  C   UNL     1       8.169   6.781  18.817  0.00  0.00    +0.000 A 
ATOM      9  C   UNL     1       7.579   7.261  17.660  0.00  0.00    +0.000 A 
ATOM     10  F   UNL     1       7.920   8.457  17.166  0.00  0.00    +0.000 F 
ATOM     11  C   UNL     1       6.622   6.490  17.012  0.00  0.00    +0.000 A 
ENDBRANCH   2   5
BRANCH   3  12
ATOM     12  C   UNL     1       2.986   3.449  17.023  0.00  0.00    +0.000 C 
BRANCH  12  13
ATOM     13  C   UNL     1       2.849   2.125  17.783  0.00  0.00    +0.000 C 
BRANCH  13  14
ATOM     14  N   UNL     1       2.518   2.308  19.185  0.00  0.00    +0.000 N 
ATOM     15  C   UNL     1       3.419   2.475  20.182  0.00  0.00    +0.000 C 
ATOM     16  O   UNL     1       4.636   2.471  20.096  0.00  0.00    +0.000 OA
ATOM     17  C   UNL     1       2.643   2.705  21.442  0.00  0.00    +0.000 C 
ATOM     18  O   UNL     1       1.283   2.671  21.005  0.00  0.00    +0.000 OA
ATOM     19  C   UNL     1       1.263   2.461  19.659  0.00  0.00    +0.000 C 
ATOM     20  O   UNL     1       0.235   2.429  19.001  0.00  0.00    +0.000 OA
ENDBRANCH  13  14
ENDBRANCH  12  13
ENDBRANCH   3  12
TORSDOF 4
ENDMDL
MODEL 8
REMARK VINA RESULT:      -7.0      1.474      1.552
REMARK  Name = 
REMARK  4 active torsions:
REMARK  status: ('A' for Active; 'I' for Inactive)
REMARK    1  A    between atoms: C_2  and  C_13
REMARK    2  A    between atoms: N_3  and  C_4
REMARK    3  A    between atoms: C_4  and  C_5
REMARK    4  A    between atoms: C_5  and  N_6
REMARK                            x       y       z     vdW  Elec       q    Type
REMARK                         _______ _______ _______ _____ _____    ______ ____
ROOT
ATOM      1  O   UNL     1       4.924   3.493  18.249  0.00  0.00    +0.000 OA
ATOM      2  C   UNL     1       5.084   4.573  17.694  0.00  0.00    +0.000 C 
ATOM      3  N   UNL     1       4.643   5.770  18.220  0.00  0.00    +0.000 N 
ATOM      4  H   UNL     1       4.688   6.617  17.669  0.00  0.00    +0.000 HD
ENDROOT
BRANCH   2   5
ATOM      5  C   UNL     1       5.757   4.637  16.379  0.00  0.00    +0.000 A 
ATOM      6  C   UNL     1       6.924   5.388  16.255  0.00  0.00    +0.000 A 
ATOM      7  N   UNL     1       7.632   5.501  15.101  0.00  0.00    +0.000 NA
ATOM      8  C   UNL     1       7.133   4.852  14.022  0.00  0.00    +0.000 A 
ATOM      9  C   UNL     1       5.967   4.106  14.054  0.00  0.00    +0.000 A 
ATOM     10  F   UNL     1       5.516   3.499  12.950  0.00  0.00    +0.000 F 
ATOM     11  C   UNL     1       5.262   3.993  15.245  0.00  0.00    +0.000 A 
ENDBRANCH   2   5
BRANCH   3  12
ATOM     12  C   UNL     1       3.947   5.827  19.496  0.00  0.00    +0.000 C 
BRANCH  12  13
ATOM     13  C   UNL     1       2.424   5.760  19.328  0.00  0.00    +0.000 C 
BRANCH  13  14
ATOM     14  N   UNL     1       1.904   4.408  19.416  0.00  0.00    +0.000 N 
ATOM     15  C   UNL     1       1.804   3.684  20.557  0.00  0.00    +0.000 C 
ATOM     16  O   UNL     1       2.152   4.011  21.679  0.00  0.00    +0.000 OA
ATOM     17  C   UNL     1       1.146   2.388  20.199  0.00  0.00    +0.000 C 
ATOM     18  O   UNL     1       0.892   2.519  18.799  0.00  0.00    +0.000 OA
ATOM     19  C   UNL     1       1.333   3.741  18.390  0.00  0.00    +0.000 C 
ATOM     20  O   UNL     1       1.208   4.150  17.246  0.00  0.00    +0.000 OA
ENDBRANCH  13  14
ENDBRANCH  12  13
ENDBRANCH   3  12
TORSDOF 4
ENDMDL
MODEL 9
REMARK VINA RESULT:      -6.9      2.710      3.516
REMARK  Name = 
REMARK  4 active torsions:
REMARK  status: ('A' for Active; 'I' for Inactive)
REMARK    1  A    between atoms: C_2  and  C_13
REMARK    2  A    between atoms: N_3  and  C_4
REMARK    3  A    between atoms: C_4  and  C_5
REMARK    4  A    between atoms: C_5  and  N_6
REMARK                            x       y       z     vdW  Elec       q    Type
REMARK                         _______ _______ _______ _____ _____    ______ ____
ROOT
ATOM      1  O   UNL     1       5.754   3.638  16.194  0.00  0.00    +0.000 OA
ATOM      2  C   UNL     1       5.415   4.406  17.085  0.00  0.00    +0.000 C 
ATOM      3  N   UNL     1       4.148   4.429  17.630  0.00  0.00    +0.000 N 
ATOM      4  H   UNL     1       3.882   5.163  18.273  0.00  0.00    +0.000 HD
ENDROOT
BRANCH   2   5
ATOM      5  C   UNL     1       6.380   5.395  17.615  0.00  0.00    +0.000 A 
ATOM      6  C   UNL     1       7.195   5.035  18.685  0.00  0.00    +0.000 A 
ATOM      7  N   UNL     1       8.126   5.856  19.237  0.00  0.00    +0.000 NA
ATOM      8  C   UNL     1       8.224   7.098  18.707  0.00  0.00    +0.000 A 
ATOM      9  C   UNL     1       7.434   7.544  17.661  0.00  0.00    +0.000 A 
ATOM     10  F   UNL     1       7.567   8.789  17.189  0.00  0.00    +0.000 F 
ATOM     11  C   UNL     1       6.495   6.687  17.101  0.00  0.00    +0.000 A 
ENDBRANCH   2   5
BRANCH   3  12
ATOM     12  C   UNL     1       3.109   3.519  17.171  0.00  0.00    +0.000 C 
BRANCH  12  13
ATOM     13  C   UNL     1       3.091   2.210  17.969  0.00  0.00    +0.000 C 
BRANCH  13  14
ATOM     14  N   UNL     1       2.811   2.409  19.379  0.00  0.00    +0.000 N 
ATOM     15  C   UNL     1       1.573   2.478  19.924  0.00  0.00    +0.000 C 
ATOM     16  O   UNL     1       0.500   2.419  19.347  0.00  0.00    +0.000 OA
ATOM     17  C   UNL     1       1.750   2.609  21.405  0.00  0.00    +0.000 C 
ATOM     18  O   UNL     1       3.169   2.574  21.573  0.00  0.00    +0.000 OA
ATOM     19  C   UNL     1       3.749   2.427  20.349  0.00  0.00    +0.000 C 
ATOM     20  O   UNL     1       4.955   2.321  20.187  0.00  0.00    +0.000 OA
ENDBRANCH  13  14
ENDBRANCH  12  13
ENDBRANCH   3  12
TORSDOF 4
ENDMDL
