MODEL 1
REMARK VINA RESULT:      -8.7      0.000      0.000
REMARK  Name = 
REMARK  5 active torsions:
REMARK  status: ('A' for Active; 'I' for Inactive)
REMARK    1  A    between atoms: N_1  and  C_2
REMARK    2  A    between atoms: C_5  and  C_7
REMARK    3  A    between atoms: C_10  and  C_11
REMARK    4  A    between atoms: N_18  and  C_19
REMARK    5  A    between atoms: C_19  and  C_20
REMARK                            x       y       z     vdW  Elec       q    Type
REMARK                         _______ _______ _______ _____ _____    ______ ____
ROOT
ATOM      1  C   UNL     1       3.645   5.956  17.787  0.00  0.00    +0.000 A 
ATOM      2  C   UNL     1       3.295   4.691  17.335  0.00  0.00    +0.000 A 
ATOM      3  N   UNL     1       4.332   4.057  16.706  0.00  0.00    +0.000 NA
ATOM      4  C   UNL     1       5.324   4.915  16.756  0.00  0.00    +0.000 A 
ATOM      5  C   UNL     1       6.634   4.818  16.248  0.00  0.00    +0.000 A 
ATOM      6  C   UNL     1       7.471   5.846  16.403  0.00  0.00    +0.000 A 
ATOM      7  C   UNL     1       6.997   7.059  17.146  0.00  0.00    +0.000 A 
ATOM      8  N   UNL     1       7.891   8.093  17.288  0.00  0.00    +0.000 N 
ATOM      9  N   UNL     1       5.798   7.159  17.654  0.00  0.00    +0.000 NA
ATOM     10  N   UNL     1       4.978   6.085  17.418  0.00  0.00    +0.000 N 
ATOM     11  H   UNL     1       8.778   8.043  16.804  0.00  0.00    +0.000 HD
ENDROOT
BRANCH   1  15
ATOM     12  C   UNL     1       1.363   9.018  19.795  0.00  0.00    +0.000 A 
ATOM     13  C   UNL     1       1.807   9.184  18.476  0.00  0.00    +0.000 A 
ATOM     14  C   UNL     1       2.518   8.166  17.823  0.00  0.00    +0.000 A 
ATOM     15  C   UNL     1       2.806   6.951  18.461  0.00  0.00    +0.000 A 
ATOM     16  C   UNL     1       2.360   6.781  19.771  0.00  0.00    +0.000 A 
ATOM     17  C   UNL     1       1.667   7.809  20.443  0.00  0.00    +0.000 A 
BRANCH  12  21
ATOM     18  C   UNL     1      -1.538  11.933  18.617  0.00  0.00    +0.000 C 
ATOM     19  C   UNL     1      -1.264  11.863  20.132  0.00  0.00    +0.000 C 
ATOM     20  N   UNL     1      -0.531  10.631  19.853  0.00  0.00    +0.000 N 
ATOM     21  C   UNL     1       0.619  10.158  20.430  0.00  0.00    +0.000 C 
ATOM     22  O   UNL     1       1.079  10.664  21.458  0.00  0.00    +0.000 OA
ATOM     23  C   UNL     1      -1.116  10.462  18.544  0.00  0.00    +0.000 C 
BRANCH  18  24
ATOM     24  N   UNL     1      -2.970  12.052  18.322  0.00  0.00    +0.000 NA
ATOM     25  H   UNL     1      -3.578  11.897  19.124  0.00  0.00    +0.000 HD
ATOM     26  H   UNL     1      -3.314  11.451  17.574  0.00  0.00    +0.000 HD
ENDBRANCH  18  24
ENDBRANCH  12  21
ENDBRANCH   1  15
BRANCH   8  27
ATOM     27  C   UNL     1       7.846   9.033  18.385  0.00  0.00    +0.000 C 
BRANCH  27  28
ATOM     28  C   UNL     1       8.580  10.309  18.057  0.00  0.00    +0.000 A 
ATOM     29  C   UNL     1       9.971  10.410  18.202  0.00  0.00    +0.000 A 
ATOM     30  C   UNL     1      10.634  11.607  17.919  0.00  0.00    +0.000 A 
ATOM     31  C   UNL     1       9.907  12.739  17.558  0.00  0.00    +0.000 A 
ATOM     32 CL   UNL     1      10.776  14.188  17.197  0.00  0.00    +0.000 Cl
ATOM     33  C   UNL     1       8.514  12.673  17.516  0.00  0.00    +0.000 A 
ATOM     34 CL   UNL     1       7.551  14.095  17.438  0.00  0.00    +0.000 Cl
ATOM     35  C   UNL     1       7.857  11.453  17.695  0.00  0.00    +0.000 A 
ENDBRANCH  27  28
ENDBRANCH   8  27
TORSDOF 5
ENDMDL
MODEL 2
REMARK VINA RESULT:      -8.6      4.622      9.110
REMARK  Name = 
REMARK  5 active torsions:
REMARK  status: ('A' for Active; 'I' for Inactive)
REMARK    1  A    between atoms: N_1  and  C_2
REMARK    2  A    between atoms: C_5  and  C_7
REMARK    3  A    between atoms: C_10  and  C_11
REMARK    4  A    between atoms: N_18  and  C_19
REMARK    5  A    between atoms: C_19  and  C_20
REMARK                            x       y       z     vdW  Elec       q    Type
REMARK                         _______ _______ _______ _____ _____    ______ ____
ROOT
ATOM      1  C   UNL     1       1.200  13.676  19.643  0.00  0.00    +0.000 A 
ATOM      2  C   UNL     1       0.147  14.295  20.302  0.00  0.00    +0.000 A 
ATOM      3  N   UNL     1      -0.942  13.477  20.428  0.00  0.00    +0.000 NA
ATOM      4  C   UNL     1      -0.582  12.355  19.848  0.00  0.00    +0.000 A 
ATOM      5  C   UNL     1      -1.305  11.163  19.654  0.00  0.00    +0.000 A 
ATOM      6  C   UNL     1      -0.728  10.148  19.004  0.00  0.00    +0.000 A 
ATOM      7  C   UNL     1       0.688  10.303  18.536  0.00  0.00    +0.000 A 
ATOM      8  N   UNL     1       1.247   9.235  17.877  0.00  0.00    +0.000 N 
ATOM      9  N   UNL     1       1.389  11.387  18.734  0.00  0.00    +0.000 NA
ATOM     10  N   UNL     1       0.718  12.403  19.366  0.00  0.00    +0.000 N 
ATOM     11  H   UNL     1       0.662   8.444  17.643  0.00  0.00    +0.000 HD
ENDROOT
BRANCH   1  15
ATOM     12  C   UNL     1       4.986  15.510  18.682  0.00  0.00    +0.000 A 
ATOM     13  C   UNL     1       4.696  15.069  19.980  0.00  0.00    +0.000 A 
ATOM     14  C   UNL     1       3.475  14.442  20.271  0.00  0.00    +0.000 A 
ATOM     15  C   UNL     1       2.507  14.233  19.279  0.00  0.00    +0.000 A 
ATOM     16  C   UNL     1       2.795  14.666  17.985  0.00  0.00    +0.000 A 
ATOM     17  C   UNL     1       4.009  15.319  17.690  0.00  0.00    +0.000 A 
BRANCH  12  21
ATOM     18  C   UNL     1       9.078  14.346  18.246  0.00  0.00    +0.000 C 
ATOM     19  C   UNL     1       8.784  15.821  17.917  0.00  0.00    +0.000 C 
ATOM     20  N   UNL     1       7.370  15.459  17.972  0.00  0.00    +0.000 N 
ATOM     21  C   UNL     1       6.309  16.183  18.452  0.00  0.00    +0.000 C 
ATOM     22  O   UNL     1       6.418  17.382  18.727  0.00  0.00    +0.000 OA
ATOM     23  C   UNL     1       7.626  14.043  17.864  0.00  0.00    +0.000 C 
BRANCH  18  24
ATOM     24  N   UNL     1       9.985  13.734  17.267  0.00  0.00    +0.000 NA
ATOM     25  H   UNL     1      10.971  13.796  17.513  0.00  0.00    +0.000 HD
ATOM     26  H   UNL     1       9.898  14.083  16.313  0.00  0.00    +0.000 HD
ENDBRANCH  18  24
ENDBRANCH  12  21
ENDBRANCH   1  15
BRANCH   8  27
ATOM     27  C   UNL     1       2.668   8.969  17.862  0.00  0.00    +0.000 C 
BRANCH  27  28
ATOM     28  C   UNL     1       2.972   7.538  18.228  0.00  0.00    +0.000 A 
ATOM     29  C   UNL     1       3.838   6.754  17.453  0.00  0.00    +0.000 A 
ATOM     30  C   UNL     1       4.088   5.421  17.789  0.00  0.00    +0.000 A 
ATOM     31  C   UNL     1       3.421   4.834  18.862  0.00  0.00    +0.000 A 
ATOM     32 CL   UNL     1       3.784   3.191  19.250  0.00  0.00    +0.000 Cl
ATOM     33  C   UNL     1       2.478   5.579  19.571  0.00  0.00    +0.000 A 
ATOM     34 CL   UNL     1       1.371   4.829  20.651  0.00  0.00    +0.000 Cl
ATOM     35  C   UNL     1       2.304   6.939  19.303  0.00  0.00    +0.000 A 
ENDBRANCH  27  28
ENDBRANCH   8  27
TORSDOF 5
ENDMDL
MODEL 3
REMARK VINA RESULT:      -8.5      4.723      5.752
REMARK  Name = 
REMARK  5 active torsions:
REMARK  status: ('A' for Active; 'I' for Inactive)
REMARK    1  A    between atoms: N_1  and  C_2
REMARK    2  A    between atoms: C_5  and  C_7
REMARK    3  A    between atoms: C_10  and  C_11
REMARK    4  A    between atoms: N_18  and  C_19
REMARK    5  A    between atoms: C_19  and  C_20
REMARK                            x       y       z     vdW  Elec       q    Type
REMARK                         _______ _______ _______ _____ _____    ______ ____
ROOT
ATOM      1  C   UNL     1       1.906   5.133  19.858  0.00  0.00    +0.000 A 
ATOM      2  C   UNL     1       1.117   4.475  20.792  0.00  0.00    +0.000 A 
ATOM      3  N   UNL     1       1.350   3.127  20.811  0.00  0.00    +0.000 NA
ATOM      4  C   UNL     1       2.271   2.936  19.896  0.00  0.00    +0.000 A 
ATOM      5  C   UNL     1       2.883   1.745  19.460  0.00  0.00    +0.000 A 
ATOM      6  C   UNL     1       3.791   1.799  18.482  0.00  0.00    +0.000 A 
ATOM      7  C   UNL     1       4.155   3.134  17.907  0.00  0.00    +0.000 A 
ATOM      8  N   UNL     1       5.096   3.147  16.906  0.00  0.00    +0.000 N 
ATOM      9  N   UNL     1       3.624   4.255  18.318  0.00  0.00    +0.000 NA
ATOM     10  N   UNL     1       2.668   4.120  19.291  0.00  0.00    +0.000 N 
ATOM     11  H   UNL     1       5.422   2.267  16.530  0.00  0.00    +0.000 HD
ENDROOT
BRANCH   1  15
ATOM     12  C   UNL     1       1.705   9.322  18.842  0.00  0.00    +0.000 A 
ATOM     13  C   UNL     1       1.428   8.871  20.139  0.00  0.00    +0.000 A 
ATOM     14  C   UNL     1       1.531   7.510  20.465  0.00  0.00    +0.000 A 
ATOM     15  C   UNL     1       1.916   6.558  19.511  0.00  0.00    +0.000 A 
ATOM     16  C   UNL     1       2.198   7.006  18.220  0.00  0.00    +0.000 A 
ATOM     17  C   UNL     1       2.072   8.368  17.879  0.00  0.00    +0.000 A 
BRANCH  12  21
ATOM     18  C   UNL     1      -1.478  12.147  18.407  0.00  0.00    +0.000 C 
ATOM     19  C   UNL     1      -0.068  12.763  18.489  0.00  0.00    +0.000 C 
ATOM     20  N   UNL     1       0.393  11.435  18.888  0.00  0.00    +0.000 N 
ATOM     21  C   UNL     1       1.560  10.792  18.568  0.00  0.00    +0.000 C 
ATOM     22  O   UNL     1       2.499  11.388  18.032  0.00  0.00    +0.000 OA
ATOM     23  C   UNL     1      -0.932  10.965  19.216  0.00  0.00    +0.000 C 
BRANCH  18  24
ATOM     24  N   UNL     1      -2.451  12.891  19.214  0.00  0.00    +0.000 NA
ATOM     25  H   UNL     1      -2.210  12.963  20.201  0.00  0.00    +0.000 HD
ATOM     26  H   UNL     1      -3.410  12.546  19.172  0.00  0.00    +0.000 HD
ENDBRANCH  18  24
ENDBRANCH  12  21
ENDBRANCH   1  15
BRANCH   8  27
ATOM     27  C   UNL     1       5.955   4.279  16.641  0.00  0.00    +0.000 C 
BRANCH  27  28
ATOM     28  C   UNL     1       6.351   4.352  15.188  0.00  0.00    +0.000 A 
ATOM     29  C   UNL     1       7.389   5.190  14.754  0.00  0.00    +0.000 A 
ATOM     30  C   UNL     1       7.726   5.266  13.400  0.00  0.00    +0.000 A 
ATOM     31  C   UNL     1       6.985   4.561  12.455  0.00  0.00    +0.000 A 
ATOM     32 CL   UNL     1       7.458   4.671  10.797  0.00  0.00    +0.000 Cl
ATOM     33  C   UNL     1       5.885   3.810  12.870  0.00  0.00    +0.000 A 
ATOM     34 CL   UNL     1       4.726   3.221  11.746  0.00  0.00    +0.000 Cl
ATOM     35  C   UNL     1       5.610   3.648  14.230  0.00  0.00    +0.000 A 
ENDBRANCH  27  28
ENDBRANCH   8  27
TORSDOF 5
ENDMDL
MODEL 4
REMARK VINA RESULT:      -8.4      0.705      1.322
REMARK  Name = 
REMARK  5 active torsions:
REMARK  status: ('A' for Active; 'I' for Inactive)
REMARK    1  A    between atoms: N_1  and  C_2
REMARK    2  A    between atoms: C_5  and  C_7
REMARK    3  A    between atoms: C_10  and  C_11
REMARK    4  A    between atoms: N_18  and  C_19
REMARK    5  A    between atoms: C_19  and  C_20
REMARK                            x       y       z     vdW  Elec       q    Type
REMARK                         _______ _______ _______ _____ _____    ______ ____
ROOT
ATOM      1  C   UNL     1       3.690   5.901  17.707  0.00  0.00    +0.000 A 
ATOM      2  C   UNL     1       3.341   4.675  17.158  0.00  0.00    +0.000 A 
ATOM      3  N   UNL     1       4.388   4.077  16.512  0.00  0.00    +0.000 NA
ATOM      4  C   UNL     1       5.385   4.919  16.647  0.00  0.00    +0.000 A 
ATOM      5  C   UNL     1       6.707   4.844  16.166  0.00  0.00    +0.000 A 
ATOM      6  C   UNL     1       7.549   5.851  16.413  0.00  0.00    +0.000 A 
ATOM      7  C   UNL     1       7.066   7.012  17.229  0.00  0.00    +0.000 A 
ATOM      8  N   UNL     1       7.964   8.025  17.466  0.00  0.00    +0.000 N 
ATOM      9  N   UNL     1       5.855   7.088  17.713  0.00  0.00    +0.000 NA
ATOM     10  N   UNL     1       5.032   6.042  17.381  0.00  0.00    +0.000 N 
ATOM     11  H   UNL     1       8.863   8.000  17.002  0.00  0.00    +0.000 HD
ENDROOT
BRANCH   1  15
ATOM     12  C   UNL     1       1.379   8.845  19.855  0.00  0.00    +0.000 A 
ATOM     13  C   UNL     1       1.787   9.059  18.531  0.00  0.00    +0.000 A 
ATOM     14  C   UNL     1       2.508   8.079  17.833  0.00  0.00    +0.000 A 
ATOM     15  C   UNL     1       2.842   6.855  18.429  0.00  0.00    +0.000 A 
ATOM     16  C   UNL     1       2.433   6.637  19.744  0.00  0.00    +0.000 A 
ATOM     17  C   UNL     1       1.730   7.627  20.461  0.00  0.00    +0.000 A 
BRANCH  12  21
ATOM     18  C   UNL     1      -1.477  11.843  18.783  0.00  0.00    +0.000 C 
ATOM     19  C   UNL     1      -1.246  11.677  20.297  0.00  0.00    +0.000 C 
ATOM     20  N   UNL     1      -0.509  10.461  19.962  0.00  0.00    +0.000 N 
ATOM     21  C   UNL     1       0.622   9.946  20.540  0.00  0.00    +0.000 C 
ATOM     22  O   UNL     1       1.056  10.384  21.610  0.00  0.00    +0.000 OA
ATOM     23  C   UNL     1      -1.059  10.377  18.629  0.00  0.00    +0.000 C 
BRANCH  18  24
ATOM     24  N   UNL     1      -2.901  11.988  18.457  0.00  0.00    +0.000 NA
ATOM     25  H   UNL     1      -3.272  12.924  18.604  0.00  0.00    +0.000 HD
ATOM     26  H   UNL     1      -3.528  11.345  18.940  0.00  0.00    +0.000 HD
ENDBRANCH  18  24
ENDBRANCH  12  21
ENDBRANCH   1  15
BRANCH   8  27
ATOM     27  C   UNL     1       7.900   8.886  18.625  0.00  0.00    +0.000 C 
BRANCH  27  28
ATOM     28  C   UNL     1       8.633  10.184  18.398  0.00  0.00    +0.000 A 
ATOM     29  C   UNL     1       8.126  11.169  17.538  0.00  0.00    +0.000 A 
ATOM     30  C   UNL     1       8.831  12.355  17.317  0.00  0.00    +0.000 A 
ATOM     31  C   UNL     1      10.085  12.541  17.895  0.00  0.00    +0.000 A 
ATOM     32 CL   UNL     1      10.903  14.034  17.609  0.00  0.00    +0.000 Cl
ATOM     33  C   UNL     1      10.641  11.519  18.666  0.00  0.00    +0.000 A 
ATOM     34 CL   UNL     1      12.304  11.527  19.100  0.00  0.00    +0.000 Cl
ATOM     35  C   UNL     1       9.895  10.378  18.974  0.00  0.00    +0.000 A 
ENDBRANCH  27  28
ENDBRANCH   8  27
TORSDOF 5
ENDMDL
MODEL 5
REMARK VINA RESULT:      -8.4      3.348      7.048
REMARK  Name = 
REMARK  5 active torsions:
REMARK  status: ('A' for Active; 'I' for Inactive)
REMARK    1  A    between atoms: N_1  and  C_2
REMARK    2  A    between atoms: C_5  and  C_7
REMARK    3  A    between atoms: C_10  and  C_11
REMARK    4  A    between atoms: N_18  and  C_19
REMARK    5  A    between atoms: C_19  and  C_20
REMARK                            x       y       z     vdW  Elec       q    Type
REMARK                         _______ _______ _______ _____ _____    ______ ____
ROOT
ATOM      1  C   UNL     1       0.089  10.620  18.963  0.00  0.00    +0.000 A 
ATOM      2  C   UNL     1      -1.298  10.612  19.014  0.00  0.00    +0.000 A 
ATOM      3  N   UNL     1      -1.826  11.874  19.021  0.00  0.00    +0.000 NA
ATOM      4  C   UNL     1      -0.783  12.669  18.981  0.00  0.00    +0.000 A 
ATOM      5  C   UNL     1      -0.715  14.076  18.991  0.00  0.00    +0.000 A 
ATOM      6  C   UNL     1       0.481  14.671  18.967  0.00  0.00    +0.000 A 
ATOM      7  C   UNL     1       1.711  13.817  18.893  0.00  0.00    +0.000 A 
ATOM      8  N   UNL     1       2.921  14.468  18.866  0.00  0.00    +0.000 N 
ATOM      9  N   UNL     1       1.671  12.512  18.850  0.00  0.00    +0.000 NA
ATOM     10  N   UNL     1       0.414  11.969  18.924  0.00  0.00    +0.000 N 
ATOM     11  H   UNL     1       2.941  15.470  19.001  0.00  0.00    +0.000 HD
ENDROOT
BRANCH   1  15
ATOM     12  C   UNL     1       2.648   7.146  18.909  0.00  0.00    +0.000 A 
ATOM     13  C   UNL     1       2.444   7.922  17.760  0.00  0.00    +0.000 A 
ATOM     14  C   UNL     1       1.638   9.069  17.800  0.00  0.00    +0.000 A 
ATOM     15  C   UNL     1       1.012   9.480  18.985  0.00  0.00    +0.000 A 
ATOM     16  C   UNL     1       1.217   8.714  20.131  0.00  0.00    +0.000 A 
ATOM     17  C   UNL     1       2.006   7.546  20.093  0.00  0.00    +0.000 A 
BRANCH  12  21
ATOM     18  C   UNL     1       2.183   2.906  19.229  0.00  0.00    +0.000 C 
ATOM     19  C   UNL     1       3.540   3.371  18.665  0.00  0.00    +0.000 C 
ATOM     20  N   UNL     1       2.942   4.700  18.564  0.00  0.00    +0.000 N 
ATOM     21  C   UNL     1       3.515   5.926  18.784  0.00  0.00    +0.000 C 
ATOM     22  O   UNL     1       4.737   6.054  18.907  0.00  0.00    +0.000 OA
ATOM     23  C   UNL     1       1.589   4.210  18.685  0.00  0.00    +0.000 C 
BRANCH  18  24
ATOM     24  N   UNL     1       1.639   1.766  18.482  0.00  0.00    +0.000 NA
ATOM     25  H   UNL     1       1.690   0.878  18.977  0.00  0.00    +0.000 HD
ATOM     26  H   UNL     1       2.047   1.612  17.561  0.00  0.00    +0.000 HD
ENDBRANCH  18  24
ENDBRANCH  12  21
ENDBRANCH   1  15
BRANCH   8  27
ATOM     27  C   UNL     1       4.105  13.911  18.251  0.00  0.00    +0.000 C 
BRANCH  27  28
ATOM     28  C   UNL     1       5.264  14.874  18.300  0.00  0.00    +0.000 A 
ATOM     29  C   UNL     1       6.512  14.545  17.751  0.00  0.00    +0.000 A 
ATOM     30  C   UNL     1       7.584  15.438  17.828  0.00  0.00    +0.000 A 
ATOM     31  C   UNL     1       7.445  16.639  18.519  0.00  0.00    +0.000 A 
ATOM     32 CL   UNL     1       8.793  17.717  18.565  0.00  0.00    +0.000 Cl
ATOM     33  C   UNL     1       6.238  16.924  19.159  0.00  0.00    +0.000 A 
ATOM     34 CL   UNL     1       6.113  18.191  20.314  0.00  0.00    +0.000 Cl
ATOM     35  C   UNL     1       5.134  16.084  18.995  0.00  0.00    +0.000 A 
ENDBRANCH  27  28
ENDBRANCH   8  27
TORSDOF 5
ENDMDL
MODEL 6
REMARK VINA RESULT:      -8.4      4.466      9.141
REMARK  Name = 
REMARK  5 active torsions:
REMARK  status: ('A' for Active; 'I' for Inactive)
REMARK    1  A    between atoms: N_1  and  C_2
REMARK    2  A    between atoms: C_5  and  C_7
REMARK    3  A    between atoms: C_10  and  C_11
REMARK    4  A    between atoms: N_18  and  C_19
REMARK    5  A    between atoms: C_19  and  C_20
REMARK                            x       y       z     vdW  Elec       q    Type
REMARK                         _______ _______ _______ _____ _____    ______ ____
ROOT
ATOM      1  C   UNL     1       1.303  13.868  19.938  0.00  0.00    +0.000 A 
ATOM      2  C   UNL     1       0.341  14.485  20.726  0.00  0.00    +0.000 A 
ATOM      3  N   UNL     1      -0.778  13.713  20.882  0.00  0.00    +0.000 NA
ATOM      4  C   UNL     1      -0.527  12.623  20.195  0.00  0.00    +0.000 A 
ATOM      5  C   UNL     1      -1.327  11.485  19.976  0.00  0.00    +0.000 A 
ATOM      6  C   UNL     1      -0.859  10.497  19.210  0.00  0.00    +0.000 A 
ATOM      7  C   UNL     1       0.522  10.618  18.639  0.00  0.00    +0.000 A 
ATOM      8  N   UNL     1       0.969   9.577  17.861  0.00  0.00    +0.000 N 
ATOM      9  N   UNL     1       1.295  11.648  18.855  0.00  0.00    +0.000 NA
ATOM     10  N   UNL     1       0.732  12.644  19.612  0.00  0.00    +0.000 N 
ATOM     11  H   UNL     1       0.325   8.835  17.620  0.00  0.00    +0.000 HD
ENDROOT
BRANCH   1  15
ATOM     12  C   UNL     1       5.083  15.595  18.779  0.00  0.00    +0.000 A 
ATOM     13  C   UNL     1       4.832  15.208  20.102  0.00  0.00    +0.000 A 
ATOM     14  C   UNL     1       3.611  14.615  20.459  0.00  0.00    +0.000 A 
ATOM     15  C   UNL     1       2.606  14.387  19.509  0.00  0.00    +0.000 A 
ATOM     16  C   UNL     1       2.855  14.766  18.191  0.00  0.00    +0.000 A 
ATOM     17  C   UNL     1       4.070  15.385  17.830  0.00  0.00    +0.000 A 
BRANCH  12  21
ATOM     18  C   UNL     1       9.127  14.333  18.183  0.00  0.00    +0.000 C 
ATOM     19  C   UNL     1       8.849  15.809  17.840  0.00  0.00    +0.000 C 
ATOM     20  N   UNL     1       7.432  15.479  17.965  0.00  0.00    +0.000 N 
ATOM     21  C   UNL     1       6.409  16.234  18.478  0.00  0.00    +0.000 C 
ATOM     22  O   UNL     1       6.555  17.435  18.726  0.00  0.00    +0.000 OA
ATOM     23  C   UNL     1       7.652  14.055  17.871  0.00  0.00    +0.000 C 
BRANCH  18  24
ATOM     24  N   UNL     1       9.975  13.685  17.176  0.00  0.00    +0.000 NA
ATOM     25  H   UNL     1      10.179  12.705  17.366  0.00  0.00    +0.000 HD
ATOM     26  H   UNL     1      10.869  14.141  16.998  0.00  0.00    +0.000 HD
ENDBRANCH  18  24
ENDBRANCH  12  21
ENDBRANCH   1  15
BRANCH   8  27
ATOM     27  C   UNL     1       2.367   9.244  17.710  0.00  0.00    +0.000 C 
BRANCH  27  28
ATOM     28  C   UNL     1       2.667   7.854  18.209  0.00  0.00    +0.000 A 
ATOM     29  C   UNL     1       2.156   7.389  19.430  0.00  0.00    +0.000 A 
ATOM     30  C   UNL     1       2.465   6.107  19.892  0.00  0.00    +0.000 A 
ATOM     31  C   UNL     1       3.347   5.301  19.177  0.00  0.00    +0.000 A 
ATOM     32 CL   UNL     1       3.678   3.716  19.780  0.00  0.00    +0.000 Cl
ATOM     33  C   UNL     1       3.943   5.799  18.018  0.00  0.00    +0.000 A 
ATOM     34 CL   UNL     1       5.293   5.017  17.296  0.00  0.00    +0.000 Cl
ATOM     35  C   UNL     1       3.555   7.036  17.498  0.00  0.00    +0.000 A 
ENDBRANCH  27  28
ENDBRANCH   8  27
TORSDOF 5
ENDMDL
MODEL 7
REMARK VINA RESULT:      -8.3      3.814      8.275
REMARK  Name = 
REMARK  5 active torsions:
REMARK  status: ('A' for Active; 'I' for Inactive)
REMARK    1  A    between atoms: N_1  and  C_2
REMARK    2  A    between atoms: C_5  and  C_7
REMARK    3  A    between atoms: C_10  and  C_11
REMARK    4  A    between atoms: N_18  and  C_19
REMARK    5  A    between atoms: C_19  and  C_20
REMARK                            x       y       z     vdW  Elec       q    Type
REMARK                         _______ _______ _______ _____ _____    ______ ____
ROOT
ATOM      1  C   UNL     1       6.837   6.010  17.302  0.00  0.00    +0.000 A 
ATOM      2  C   UNL     1       7.378   4.867  16.729  0.00  0.00    +0.000 A 
ATOM      3  N   UNL     1       6.429   3.916  16.470  0.00  0.00    +0.000 NA
ATOM      4  C   UNL     1       5.303   4.452  16.879  0.00  0.00    +0.000 A 
ATOM      5  C   UNL     1       3.997   3.924  16.883  0.00  0.00    +0.000 A 
ATOM      6  C   UNL     1       2.999   4.659  17.380  0.00  0.00    +0.000 A 
ATOM      7  C   UNL     1       3.299   6.039  17.883  0.00  0.00    +0.000 A 
ATOM      8  N   UNL     1       2.244   6.765  18.381  0.00  0.00    +0.000 N 
ATOM      9  N   UNL     1       4.496   6.562  17.859  0.00  0.00    +0.000 NA
ATOM     10  N   UNL     1       5.479   5.734  17.379  0.00  0.00    +0.000 N 
ATOM     11  H   UNL     1       1.345   6.312  18.487  0.00  0.00    +0.000 HD
ENDROOT
BRANCH   1  15
ATOM     12  C   UNL     1       8.737   9.567  18.836  0.00  0.00    +0.000 A 
ATOM     13  C   UNL     1       8.967   8.310  19.411  0.00  0.00    +0.000 A 
ATOM     14  C   UNL     1       8.371   7.157  18.880  0.00  0.00    +0.000 A 
ATOM     15  C   UNL     1       7.530   7.219  17.760  0.00  0.00    +0.000 A 
ATOM     16  C   UNL     1       7.303   8.468  17.183  0.00  0.00    +0.000 A 
ATOM     17  C   UNL     1       7.879   9.635  17.726  0.00  0.00    +0.000 A 
BRANCH  12  21
ATOM     18  C   UNL     1      11.958  12.231  17.927  0.00  0.00    +0.000 C 
ATOM     19  C   UNL     1      11.087  12.650  19.127  0.00  0.00    +0.000 C 
ATOM     20  N   UNL     1      10.157  11.606  18.703  0.00  0.00    +0.000 N 
ATOM     21  C   UNL     1       9.401  10.757  19.469  0.00  0.00    +0.000 C 
ATOM     22  O   UNL     1       9.268  10.931  20.684  0.00  0.00    +0.000 OA
ATOM     23  C   UNL     1      10.730  11.493  17.383  0.00  0.00    +0.000 C 
BRANCH  18  24
ATOM     24  N   UNL     1      12.277  13.368  17.056  0.00  0.00    +0.000 NA
ATOM     25  H   UNL     1      11.510  14.027  16.929  0.00  0.00    +0.000 HD
ATOM     26  H   UNL     1      12.612  13.125  16.124  0.00  0.00    +0.000 HD
ENDBRANCH  18  24
ENDBRANCH  12  21
ENDBRANCH   1  15
BRANCH   8  27
ATOM     27  C   UNL     1       2.202   8.210  18.373  0.00  0.00    +0.000 C 
BRANCH  27  28
ATOM     28  C   UNL     1       1.458   8.754  19.566  0.00  0.00    +0.000 A 
ATOM     29  C   UNL     1       1.470   8.088  20.801  0.00  0.00    +0.000 A 
ATOM     30  C   UNL     1       0.754   8.591  21.890  0.00  0.00    +0.000 A 
ATOM     31  C   UNL     1      -0.041   9.725  21.740  0.00  0.00    +0.000 A 
ATOM     32 CL   UNL     1      -0.887  10.319  23.124  0.00  0.00    +0.000 Cl
ATOM     33  C   UNL     1      -0.141  10.329  20.486  0.00  0.00    +0.000 A 
ATOM     34 CL   UNL     1      -1.363  11.488  20.145  0.00  0.00    +0.000 Cl
ATOM     35  C   UNL     1       0.654   9.892  19.424  0.00  0.00    +0.000 A 
ENDBRANCH  27  28
ENDBRANCH   8  27
TORSDOF 5
ENDMDL
MODEL 8
REMARK VINA RESULT:      -8.2      1.756      2.183
REMARK  Name = 
REMARK  5 active torsions:
REMARK  status: ('A' for Active; 'I' for Inactive)
REMARK    1  A    between atoms: N_1  and  C_2
REMARK    2  A    between atoms: C_5  and  C_7
REMARK    3  A    between atoms: C_10  and  C_11
REMARK    4  A    between atoms: N_18  and  C_19
REMARK    5  A    between atoms: C_19  and  C_20
REMARK                            x       y       z     vdW  Elec       q    Type
REMARK                         _______ _______ _______ _____ _____    ______ ____
ROOT
ATOM      1  C   UNL     1       3.669   6.035  18.770  0.00  0.00    +0.000 A 
ATOM      2  C   UNL     1       3.506   4.688  19.061  0.00  0.00    +0.000 A 
ATOM      3  N   UNL     1       4.652   3.969  18.858  0.00  0.00    +0.000 NA
ATOM      4  C   UNL     1       5.527   4.853  18.439  0.00  0.00    +0.000 A 
ATOM      5  C   UNL     1       6.871   4.685  18.052  0.00  0.00    +0.000 A 
ATOM      6  C   UNL     1       7.566   5.745  17.632  0.00  0.00    +0.000 A 
ATOM      7  C   UNL     1       6.900   7.088  17.622  0.00  0.00    +0.000 A 
ATOM      8  N   UNL     1       7.650   8.154  17.188  0.00  0.00    +0.000 N 
ATOM      9  N   UNL     1       5.665   7.273  18.007  0.00  0.00    +0.000 NA
ATOM     10  N   UNL     1       4.999   6.134  18.381  0.00  0.00    +0.000 N 
ATOM     11  H   UNL     1       8.568   7.980  16.800  0.00  0.00    +0.000 HD
ENDROOT
BRANCH   1  15
ATOM     12  C   UNL     1       0.907   9.348  18.901  0.00  0.00    +0.000 A 
ATOM     13  C   UNL     1       1.568   8.993  17.717  0.00  0.00    +0.000 A 
ATOM     14  C   UNL     1       2.436   7.893  17.680  0.00  0.00    +0.000 A 
ATOM     15  C   UNL     1       2.672   7.109  18.819  0.00  0.00    +0.000 A 
ATOM     16  C   UNL     1       2.011   7.457  19.996  0.00  0.00    +0.000 A 
ATOM     17  C   UNL     1       1.156   8.577  20.048  0.00  0.00    +0.000 A 
BRANCH  12  21
ATOM     18  C   UNL     1       0.678  13.180  20.788  0.00  0.00    +0.000 C 
ATOM     19  C   UNL     1      -0.300  12.973  19.615  0.00  0.00    +0.000 C 
ATOM     20  N   UNL     1       0.456  11.759  19.315  0.00  0.00    +0.000 N 
ATOM     21  C   UNL     1       0.002  10.547  18.864  0.00  0.00    +0.000 C 
ATOM     22  O   UNL     1      -1.150  10.404  18.445  0.00  0.00    +0.000 OA
ATOM     23  C   UNL     1       1.592  12.149  20.116  0.00  0.00    +0.000 C 
BRANCH  18  24
ATOM     24  N   UNL     1       1.312  14.503  20.748  0.00  0.00    +0.000 NA
ATOM     25  H   UNL     1       2.262  14.523  21.114  0.00  0.00    +0.000 HD
ATOM     26  H   UNL     1       0.800  15.248  21.219  0.00  0.00    +0.000 HD
ENDBRANCH  18  24
ENDBRANCH  12  21
ENDBRANCH   1  15
BRANCH   8  27
ATOM     27  C   UNL     1       7.418   9.514  17.619  0.00  0.00    +0.000 C 
BRANCH  27  28
ATOM     28  C   UNL     1       8.656  10.128  18.222  0.00  0.00    +0.000 A 
ATOM     29  C   UNL     1       8.972   9.955  19.577  0.00  0.00    +0.000 A 
ATOM     30  C   UNL     1      10.109  10.554  20.127  0.00  0.00    +0.000 A 
ATOM     31  C   UNL     1      10.904  11.391  19.347  0.00  0.00    +0.000 A 
ATOM     32 CL   UNL     1      12.311  12.086  20.068  0.00  0.00    +0.000 Cl
ATOM     33  C   UNL     1      10.534  11.651  18.027  0.00  0.00    +0.000 A 
ATOM     34 CL   UNL     1      11.246  12.935  17.133  0.00  0.00    +0.000 Cl
ATOM     35  C   UNL     1       9.460  10.973  17.446  0.00  0.00    +0.000 A 
ENDBRANCH  27  28
ENDBRANCH   8  27
TORSDOF 5
ENDMDL
MODEL 9
REMARK VINA RESULT:      -8.2      3.049      7.090
REMARK  Name = 
REMARK  5 active torsions:
REMARK  status: ('A' for Active; 'I' for Inactive)
REMARK    1  A    between atoms: N_1  and  C_2
REMARK    2  A    between atoms: C_5  and  C_7
REMARK    3  A    between atoms: C_10  and  C_11
REMARK    4  A    between atoms: N_18  and  C_19
REMARK    5  A    between atoms: C_19  and  C_20
REMARK                            x       y       z     vdW  Elec       q    Type
REMARK                         _______ _______ _______ _____ _____    ______ ____
ROOT
ATOM      1  C   UNL     1       0.202  10.653  19.055  0.00  0.00    +0.000 A 
ATOM      2  C   UNL     1      -1.177  10.601  19.204  0.00  0.00    +0.000 A 
ATOM      3  N   UNL     1      -1.735  11.844  19.332  0.00  0.00    +0.000 NA
ATOM      4  C   UNL     1      -0.717  12.671  19.270  0.00  0.00    +0.000 A 
ATOM      5  C   UNL     1      -0.683  14.075  19.368  0.00  0.00    +0.000 A 
ATOM      6  C   UNL     1       0.492  14.705  19.298  0.00  0.00    +0.000 A 
ATOM      7  C   UNL     1       1.734  13.895  19.081  0.00  0.00    +0.000 A 
ATOM      8  N   UNL     1       2.923  14.581  19.010  0.00  0.00    +0.000 N 
ATOM      9  N   UNL     1       1.724  12.595  18.955  0.00  0.00    +0.000 NA
ATOM     10  N   UNL     1       0.489  12.011  19.083  0.00  0.00    +0.000 N 
ATOM     11  H   UNL     1       2.927  15.573  19.210  0.00  0.00    +0.000 HD
ENDROOT
BRANCH   1  15
ATOM     12  C   UNL     1       2.847   7.280  18.565  0.00  0.00    +0.000 A 
ATOM     13  C   UNL     1       2.652   8.211  17.536  0.00  0.00    +0.000 A 
ATOM     14  C   UNL     1       1.816   9.322  17.721  0.00  0.00    +0.000 A 
ATOM     15  C   UNL     1       1.152   9.542  18.936  0.00  0.00    +0.000 A 
ATOM     16  C   UNL     1       1.349   8.621  19.963  0.00  0.00    +0.000 A 
ATOM     17  C   UNL     1       2.168   7.488  19.777  0.00  0.00    +0.000 A 
BRANCH  12  21
ATOM     18  C   UNL     1       2.530   3.015  18.469  0.00  0.00    +0.000 C 
ATOM     19  C   UNL     1       3.848   3.581  17.909  0.00  0.00    +0.000 C 
ATOM     20  N   UNL     1       3.205   4.892  17.964  0.00  0.00    +0.000 N 
ATOM     21  C   UNL     1       3.747   6.109  18.287  0.00  0.00    +0.000 C 
ATOM     22  O   UNL     1       4.968   6.267  18.381  0.00  0.00    +0.000 OA
ATOM     23  C   UNL     1       1.874   4.345  18.081  0.00  0.00    +0.000 C 
BRANCH  18  24
ATOM     24  N   UNL     1       1.994   1.937  17.629  0.00  0.00    +0.000 NA
ATOM     25  H   UNL     1       2.701   1.310  17.251  0.00  0.00    +0.000 HD
ATOM     26  H   UNL     1       1.419   2.239  16.844  0.00  0.00    +0.000 HD
ENDBRANCH  18  24
ENDBRANCH  12  21
ENDBRANCH   1  15
BRANCH   8  27
ATOM     27  C   UNL     1       4.072  14.101  18.278  0.00  0.00    +0.000 C 
BRANCH  27  28
ATOM     28  C   UNL     1       5.269  14.999  18.465  0.00  0.00    +0.000 A 
ATOM     29  C   UNL     1       5.121  16.370  18.723  0.00  0.00    +0.000 A 
ATOM     30  C   UNL     1       6.239  17.194  18.867  0.00  0.00    +0.000 A 
ATOM     31  C   UNL     1       7.519  16.675  18.683  0.00  0.00    +0.000 A 
ATOM     32 CL   UNL     1       8.868  17.731  18.895  0.00  0.00    +0.000 Cl
ATOM     33  C   UNL     1       7.667  15.336  18.320  0.00  0.00    +0.000 A 
ATOM     34 CL   UNL     1       9.162  14.728  17.729  0.00  0.00    +0.000 Cl
ATOM     35  C   UNL     1       6.559  14.486  18.279  0.00  0.00    +0.000 A 
ENDBRANCH  27  28
ENDBRANCH   8  27
TORSDOF 5
ENDMDL
