MODEL 1
REMARK VINA RESULT:      -6.7      0.000      0.000
REMARK  Name = 
REMARK  6 active torsions:
REMARK  status: ('A' for Active; 'I' for Inactive)
REMARK    1  A    between atoms: C_1  and  O_2
REMARK    2  A    between atoms: O_2  and  C_3
REMARK    3  A    between atoms: C_3  and  C_5
REMARK    4  A    between atoms: C_8  and  N_9
REMARK    5  A    between atoms: C_10  and  C_12
REMARK    6  A    between atoms: C_12  and  C_13
REMARK                            x       y       z     vdW  Elec       q    Type
REMARK                         _______ _______ _______ _____ _____    ______ ____
ROOT
ATOM      1  N   UNL     1       3.263   6.304  18.718  0.00  0.00    +0.000 N 
ATOM      2  C   UNL     1       2.809   5.067  18.290  0.00  0.00    +0.000 C 
ATOM      3  O   UNL     1       1.673   4.814  17.890  0.00  0.00    +0.000 OA
ATOM      4  H   UNL     1       4.263   6.428  18.808  0.00  0.00    +0.000 HD
ENDROOT
BRANCH   1   8
ATOM      5  C   UNL     1       0.830   9.726  19.223  0.00  0.00    +0.000 A 
ATOM      6  C   UNL     1       1.064   8.874  20.307  0.00  0.00    +0.000 A 
ATOM      7  C   UNL     1       1.871   7.741  20.156  0.00  0.00    +0.000 A 
ATOM      8  C   UNL     1       2.459   7.445  18.924  0.00  0.00    +0.000 A 
ATOM      9  C   UNL     1       2.266   8.323  17.852  0.00  0.00    +0.000 A 
ATOM     10  C   UNL     1       1.441   9.448  17.993  0.00  0.00    +0.000 A 
BRANCH   5  11
ATOM     11  C   UNL     1      -0.059  10.900  19.440  0.00  0.00    +0.000 C 
ATOM     12  O   UNL     1      -0.130  11.506  20.496  0.00  0.00    +0.000 OA
BRANCH  11  14
ATOM     13  C   UNL     1      -2.052  10.551  18.280  0.00  0.00    +0.000 C 
ATOM     14  O   UNL     1      -0.769  11.176  18.317  0.00  0.00    +0.000 OA
ENDBRANCH  11  14
ENDBRANCH   5  11
ENDBRANCH   1   8
BRANCH   2  15
ATOM     15  C   UNL     1       3.861   3.966  18.362  0.00  0.00    +0.000 C 
BRANCH  15  16
ATOM     16  C   UNL     1       5.002   4.263  17.421  0.00  0.00    +0.000 A 
ATOM     17  C   UNL     1       4.795   4.209  16.034  0.00  0.00    +0.000 A 
ATOM     18  C   UNL     1       5.866   4.338  15.154  0.00  0.00    +0.000 A 
ATOM     19  C   UNL     1       7.151   4.538  15.650  0.00  0.00    +0.000 A 
ATOM     20  C   UNL     1       7.360   4.642  17.023  0.00  0.00    +0.000 A 
ATOM     21  C   UNL     1       6.290   4.510  17.909  0.00  0.00    +0.000 A 
ENDBRANCH  15  16
ENDBRANCH   2  15
TORSDOF 5
ENDMDL
MODEL 2
REMARK VINA RESULT:      -6.6      3.979      5.641
REMARK  Name = 
REMARK  6 active torsions:
REMARK  status: ('A' for Active; 'I' for Inactive)
REMARK    1  A    between atoms: C_1  and  O_2
REMARK    2  A    between atoms: O_2  and  C_3
REMARK    3  A    between atoms: C_3  and  C_5
REMARK    4  A    between atoms: C_8  and  N_9
REMARK    5  A    between atoms: C_10  and  C_12
REMARK    6  A    between atoms: C_12  and  C_13
REMARK                            x       y       z     vdW  Elec       q    Type
REMARK                         _______ _______ _______ _____ _____    ______ ____
ROOT
ATOM      1  N   UNL     1       5.755   3.984  16.157  0.00  0.00    +0.000 N 
ATOM      2  C   UNL     1       6.057   4.911  15.173  0.00  0.00    +0.000 C 
ATOM      3  O   UNL     1       5.611   6.055  15.098  0.00  0.00    +0.000 OA
ATOM      4  H   UNL     1       6.350   3.169  16.229  0.00  0.00    +0.000 HD
ENDROOT
BRANCH   1   8
ATOM      5  C   UNL     1       2.837   4.524  19.170  0.00  0.00    +0.000 A 
ATOM      6  C   UNL     1       2.485   3.911  17.964  0.00  0.00    +0.000 A 
ATOM      7  C   UNL     1       3.440   3.721  16.960  0.00  0.00    +0.000 A 
ATOM      8  C   UNL     1       4.761   4.135  17.147  0.00  0.00    +0.000 A 
ATOM      9  C   UNL     1       5.126   4.704  18.372  0.00  0.00    +0.000 A 
ATOM     10  C   UNL     1       4.167   4.916  19.372  0.00  0.00    +0.000 A 
BRANCH   5  11
ATOM     11  C   UNL     1       1.769   4.723  20.188  0.00  0.00    +0.000 C 
ATOM     12  O   UNL     1       1.600   5.770  20.791  0.00  0.00    +0.000 OA
BRANCH  11  14
ATOM     13  C   UNL     1       1.481   2.772  21.434  0.00  0.00    +0.000 C 
ATOM     14  O   UNL     1       1.043   3.588  20.347  0.00  0.00    +0.000 OA
ENDBRANCH  11  14
ENDBRANCH   5  11
ENDBRANCH   1   8
BRANCH   2  15
ATOM     15  C   UNL     1       7.023   4.391  14.114  0.00  0.00    +0.000 C 
BRANCH  15  16
ATOM     16  C   UNL     1       6.268   3.736  12.985  0.00  0.00    +0.000 A 
ATOM     17  C   UNL     1       4.930   4.082  12.745  0.00  0.00    +0.000 A 
ATOM     18  C   UNL     1       4.176   3.387  11.804  0.00  0.00    +0.000 A 
ATOM     19  C   UNL     1       4.758   2.350  11.080  0.00  0.00    +0.000 A 
ATOM     20  C   UNL     1       6.100   2.031  11.273  0.00  0.00    +0.000 A 
ATOM     21  C   UNL     1       6.858   2.723  12.219  0.00  0.00    +0.000 A 
ENDBRANCH  15  16
ENDBRANCH   2  15
TORSDOF 5
ENDMDL
MODEL 3
REMARK VINA RESULT:      -6.6      0.364      1.140
REMARK  Name = 
REMARK  6 active torsions:
REMARK  status: ('A' for Active; 'I' for Inactive)
REMARK    1  A    between atoms: C_1  and  O_2
REMARK    2  A    between atoms: O_2  and  C_3
REMARK    3  A    between atoms: C_3  and  C_5
REMARK    4  A    between atoms: C_8  and  N_9
REMARK    5  A    between atoms: C_10  and  C_12
REMARK    6  A    between atoms: C_12  and  C_13
REMARK                            x       y       z     vdW  Elec       q    Type
REMARK                         _______ _______ _______ _____ _____    ______ ____
ROOT
ATOM      1  N   UNL     1       3.214   6.284  18.904  0.00  0.00    +0.000 N 
ATOM      2  C   UNL     1       2.803   5.084  18.346  0.00  0.00    +0.000 C 
ATOM      3  O   UNL     1       1.724   4.878  17.792  0.00  0.00    +0.000 OA
ATOM      4  H   UNL     1       4.196   6.383  19.126  0.00  0.00    +0.000 HD
ENDROOT
BRANCH   1   8
ATOM      5  C   UNL     1       0.760   9.702  19.321  0.00  0.00    +0.000 A 
ATOM      6  C   UNL     1       0.996   8.879  20.425  0.00  0.00    +0.000 A 
ATOM      7  C   UNL     1       1.810   7.748  20.304  0.00  0.00    +0.000 A 
ATOM      8  C   UNL     1       2.402   7.425  19.081  0.00  0.00    +0.000 A 
ATOM      9  C   UNL     1       2.206   8.275  17.987  0.00  0.00    +0.000 A 
ATOM     10  C   UNL     1       1.374   9.397  18.099  0.00  0.00    +0.000 A 
BRANCH   5  11
ATOM     11  C   UNL     1      -0.137  10.876  19.507  0.00  0.00    +0.000 C 
ATOM     12  O   UNL     1      -0.570  11.228  20.591  0.00  0.00    +0.000 OA
BRANCH  11  14
ATOM     13  C   UNL     1      -1.775  11.821  18.141  0.00  0.00    +0.000 C 
ATOM     14  O   UNL     1      -0.402  11.469  18.315  0.00  0.00    +0.000 OA
ENDBRANCH  11  14
ENDBRANCH   5  11
ENDBRANCH   1   8
BRANCH   2  15
ATOM     15  C   UNL     1       3.827   3.961  18.478  0.00  0.00    +0.000 C 
BRANCH  15  16
ATOM     16  C   UNL     1       4.966   4.168  17.512  0.00  0.00    +0.000 A 
ATOM     17  C   UNL     1       6.248   4.467  17.997  0.00  0.00    +0.000 A 
ATOM     18  C   UNL     1       7.276   4.802  17.119  0.00  0.00    +0.000 A 
ATOM     19  C   UNL     1       7.037   4.824  15.748  0.00  0.00    +0.000 A 
ATOM     20  C   UNL     1       5.781   4.479  15.253  0.00  0.00    +0.000 A 
ATOM     21  C   UNL     1       4.747   4.147  16.129  0.00  0.00    +0.000 A 
ENDBRANCH  15  16
ENDBRANCH   2  15
TORSDOF 5
ENDMDL
MODEL 4
REMARK VINA RESULT:      -6.6      0.332      1.561
REMARK  Name = 
REMARK  6 active torsions:
REMARK  status: ('A' for Active; 'I' for Inactive)
REMARK    1  A    between atoms: C_1  and  O_2
REMARK    2  A    between atoms: O_2  and  C_3
REMARK    3  A    between atoms: C_3  and  C_5
REMARK    4  A    between atoms: C_8  and  N_9
REMARK    5  A    between atoms: C_10  and  C_12
REMARK    6  A    between atoms: C_12  and  C_13
REMARK                            x       y       z     vdW  Elec       q    Type
REMARK                         _______ _______ _______ _____ _____    ______ ____
ROOT
ATOM      1  N   UNL     1       3.251   6.303  18.687  0.00  0.00    +0.000 N 
ATOM      2  C   UNL     1       2.799   5.074  18.235  0.00  0.00    +0.000 C 
ATOM      3  O   UNL     1       1.688   4.845  17.758  0.00  0.00    +0.000 OA
ATOM      4  H   UNL     1       4.245   6.405  18.846  0.00  0.00    +0.000 HD
ENDROOT
BRANCH   1   8
ATOM      5  C   UNL     1       0.907   9.780  19.234  0.00  0.00    +0.000 A 
ATOM      6  C   UNL     1       1.453   9.501  17.977  0.00  0.00    +0.000 A 
ATOM      7  C   UNL     1       2.225   8.352  17.780  0.00  0.00    +0.000 A 
ATOM      8  C   UNL     1       2.461   7.463  18.831  0.00  0.00    +0.000 A 
ATOM      9  C   UNL     1       1.876   7.716  20.076  0.00  0.00    +0.000 A 
ATOM     10  C   UNL     1       1.118   8.876  20.284  0.00  0.00    +0.000 A 
BRANCH   5  11
ATOM     11  C   UNL     1       0.116  11.031  19.388  0.00  0.00    +0.000 C 
ATOM     12  O   UNL     1       0.293  11.834  20.289  0.00  0.00    +0.000 OA
BRANCH  11  14
ATOM     13  C   UNL     1      -2.061  11.672  18.849  0.00  0.00    +0.000 C 
ATOM     14  O   UNL     1      -0.815  11.133  18.406  0.00  0.00    +0.000 OA
ENDBRANCH  11  14
ENDBRANCH   5  11
ENDBRANCH   1   8
BRANCH   2  15
ATOM     15  C   UNL     1       3.819   3.950  18.385  0.00  0.00    +0.000 C 
BRANCH  15  16
ATOM     16  C   UNL     1       4.977   4.157  17.441  0.00  0.00    +0.000 A 
ATOM     17  C   UNL     1       6.249   4.456  17.951  0.00  0.00    +0.000 A 
ATOM     18  C   UNL     1       7.294   4.791  17.094  0.00  0.00    +0.000 A 
ATOM     19  C   UNL     1       7.083   4.814  15.719  0.00  0.00    +0.000 A 
ATOM     20  C   UNL     1       5.836   4.470  15.199  0.00  0.00    +0.000 A 
ATOM     21  C   UNL     1       4.785   4.138  16.054  0.00  0.00    +0.000 A 
ENDBRANCH  15  16
ENDBRANCH   2  15
TORSDOF 5
ENDMDL
MODEL 5
REMARK VINA RESULT:      -6.6      4.103      5.800
REMARK  Name = 
REMARK  6 active torsions:
REMARK  status: ('A' for Active; 'I' for Inactive)
REMARK    1  A    between atoms: C_1  and  O_2
REMARK    2  A    between atoms: O_2  and  C_3
REMARK    3  A    between atoms: C_3  and  C_5
REMARK    4  A    between atoms: C_8  and  N_9
REMARK    5  A    between atoms: C_10  and  C_12
REMARK    6  A    between atoms: C_12  and  C_13
REMARK                            x       y       z     vdW  Elec       q    Type
REMARK                         _______ _______ _______ _____ _____    ______ ____
ROOT
ATOM      1  N   UNL     1       5.685   3.958  15.927  0.00  0.00    +0.000 N 
ATOM      2  C   UNL     1       6.009   4.951  15.018  0.00  0.00    +0.000 C 
ATOM      3  O   UNL     1       5.640   6.124  15.068  0.00  0.00    +0.000 OA
ATOM      4  H   UNL     1       6.225   3.103  15.897  0.00  0.00    +0.000 HD
ENDROOT
BRANCH   1   8
ATOM      5  C   UNL     1       2.934   4.402  19.109  0.00  0.00    +0.000 A 
ATOM      6  C   UNL     1       2.496   3.911  17.876  0.00  0.00    +0.000 A 
ATOM      7  C   UNL     1       3.395   3.754  16.816  0.00  0.00    +0.000 A 
ATOM      8  C   UNL     1       4.745   4.080  16.973  0.00  0.00    +0.000 A 
ATOM      9  C   UNL     1       5.194   4.524  18.220  0.00  0.00    +0.000 A 
ATOM     10  C   UNL     1       4.293   4.703  19.279  0.00  0.00    +0.000 A 
BRANCH   5  11
ATOM     11  C   UNL     1       1.925   4.573  20.189  0.00  0.00    +0.000 C 
ATOM     12  O   UNL     1       1.784   5.605  20.823  0.00  0.00    +0.000 OA
BRANCH  11  14
ATOM     13  C   UNL     1       1.507   2.753  21.588  0.00  0.00    +0.000 C 
ATOM     14  O   UNL     1       1.214   3.430  20.365  0.00  0.00    +0.000 OA
ENDBRANCH  11  14
ENDBRANCH   5  11
ENDBRANCH   1   8
BRANCH   2  15
ATOM     15  C   UNL     1       6.894   4.472  13.872  0.00  0.00    +0.000 C 
BRANCH  15  16
ATOM     16  C   UNL     1       6.094   3.646  12.896  0.00  0.00    +0.000 A 
ATOM     17  C   UNL     1       6.690   2.546  12.259  0.00  0.00    +0.000 A 
ATOM     18  C   UNL     1       6.016   1.862  11.252  0.00  0.00    +0.000 A 
ATOM     19  C   UNL     1       4.734   2.258  10.882  0.00  0.00    +0.000 A 
ATOM     20  C   UNL     1       4.113   3.317  11.543  0.00  0.00    +0.000 A 
ATOM     21  C   UNL     1       4.787   4.008  12.550  0.00  0.00    +0.000 A 
ENDBRANCH  15  16
ENDBRANCH   2  15
TORSDOF 5
ENDMDL
MODEL 6
REMARK VINA RESULT:      -6.6      0.589      1.981
REMARK  Name = 
REMARK  6 active torsions:
REMARK  status: ('A' for Active; 'I' for Inactive)
REMARK    1  A    between atoms: C_1  and  O_2
REMARK    2  A    between atoms: O_2  and  C_3
REMARK    3  A    between atoms: C_3  and  C_5
REMARK    4  A    between atoms: C_8  and  N_9
REMARK    5  A    between atoms: C_10  and  C_12
REMARK    6  A    between atoms: C_12  and  C_13
REMARK                            x       y       z     vdW  Elec       q    Type
REMARK                         _______ _______ _______ _____ _____    ______ ____
ROOT
ATOM      1  N   UNL     1       3.228   6.314  18.774  0.00  0.00    +0.000 N 
ATOM      2  C   UNL     1       2.794   5.094  18.283  0.00  0.00    +0.000 C 
ATOM      3  O   UNL     1       1.703   4.873  17.758  0.00  0.00    +0.000 OA
ATOM      4  H   UNL     1       4.215   6.412  18.975  0.00  0.00    +0.000 HD
ENDROOT
BRANCH   1   8
ATOM      5  C   UNL     1       0.867   9.785  19.289  0.00  0.00    +0.000 A 
ATOM      6  C   UNL     1       1.422   9.501  18.037  0.00  0.00    +0.000 A 
ATOM      7  C   UNL     1       2.200   8.354  17.851  0.00  0.00    +0.000 A 
ATOM      8  C   UNL     1       2.433   7.472  18.908  0.00  0.00    +0.000 A 
ATOM      9  C   UNL     1       1.839   7.729  20.148  0.00  0.00    +0.000 A 
ATOM     10  C   UNL     1       1.075   8.888  20.346  0.00  0.00    +0.000 A 
BRANCH   5  11
ATOM     11  C   UNL     1       0.071  11.035  19.432  0.00  0.00    +0.000 C 
ATOM     12  O   UNL     1      -0.721  11.428  18.592  0.00  0.00    +0.000 OA
BRANCH  11  14
ATOM     13  C   UNL     1       1.349  12.684  20.474  0.00  0.00    +0.000 C 
ATOM     14  O   UNL     1       0.365  11.658  20.601  0.00  0.00    +0.000 OA
ENDBRANCH  11  14
ENDBRANCH   5  11
ENDBRANCH   1   8
BRANCH   2  15
ATOM     15  C   UNL     1       3.806   3.966  18.453  0.00  0.00    +0.000 C 
BRANCH  15  16
ATOM     16  C   UNL     1       4.967   4.151  17.508  0.00  0.00    +0.000 A 
ATOM     17  C   UNL     1       6.239   4.458  18.015  0.00  0.00    +0.000 A 
ATOM     18  C   UNL     1       7.287   4.773  17.154  0.00  0.00    +0.000 A 
ATOM     19  C   UNL     1       7.078   4.767  15.778  0.00  0.00    +0.000 A 
ATOM     20  C   UNL     1       5.833   4.414  15.262  0.00  0.00    +0.000 A 
ATOM     21  C   UNL     1       4.779   4.102  16.122  0.00  0.00    +0.000 A 
ENDBRANCH  15  16
ENDBRANCH   2  15
TORSDOF 5
ENDMDL
MODEL 7
REMARK VINA RESULT:      -6.6      0.578      1.647
REMARK  Name = 
REMARK  6 active torsions:
REMARK  status: ('A' for Active; 'I' for Inactive)
REMARK    1  A    between atoms: C_1  and  O_2
REMARK    2  A    between atoms: O_2  and  C_3
REMARK    3  A    between atoms: C_3  and  C_5
REMARK    4  A    between atoms: C_8  and  N_9
REMARK    5  A    between atoms: C_10  and  C_12
REMARK    6  A    between atoms: C_12  and  C_13
REMARK                            x       y       z     vdW  Elec       q    Type
REMARK                         _______ _______ _______ _____ _____    ______ ____
ROOT
ATOM      1  N   UNL     1       3.265   6.304  18.639  0.00  0.00    +0.000 N 
ATOM      2  C   UNL     1       2.813   5.040  18.299  0.00  0.00    +0.000 C 
ATOM      3  O   UNL     1       1.662   4.747  17.977  0.00  0.00    +0.000 OA
ATOM      4  H   UNL     1       4.266   6.451  18.667  0.00  0.00    +0.000 HD
ENDROOT
BRANCH   1   8
ATOM      5  C   UNL     1       0.851   9.707  19.335  0.00  0.00    +0.000 A 
ATOM      6  C   UNL     1       1.350   9.460  18.053  0.00  0.00    +0.000 A 
ATOM      7  C   UNL     1       2.145   8.335  17.806  0.00  0.00    +0.000 A 
ATOM      8  C   UNL     1       2.450   7.440  18.834  0.00  0.00    +0.000 A 
ATOM      9  C   UNL     1       1.912   7.660  20.107  0.00  0.00    +0.000 A 
ATOM     10  C   UNL     1       1.132   8.796  20.363  0.00  0.00    +0.000 A 
BRANCH   5  11
ATOM     11  C   UNL     1       0.034  10.934  19.541  0.00  0.00    +0.000 C 
ATOM     12  O   UNL     1      -0.725  11.387  18.700  0.00  0.00    +0.000 OA
BRANCH  11  14
ATOM     13  C   UNL     1       1.061  12.649  20.742  0.00  0.00    +0.000 C 
ATOM     14  O   UNL     1       0.266  11.463  20.768  0.00  0.00    +0.000 OA
ENDBRANCH  11  14
ENDBRANCH   5  11
ENDBRANCH   1   8
BRANCH   2  15
ATOM     15  C   UNL     1       3.890   3.963  18.366  0.00  0.00    +0.000 C 
BRANCH  15  16
ATOM     16  C   UNL     1       5.009   4.273  17.404  0.00  0.00    +0.000 A 
ATOM     17  C   UNL     1       4.758   4.294  16.024  0.00  0.00    +0.000 A 
ATOM     18  C   UNL     1       5.805   4.436  15.117  0.00  0.00    +0.000 A 
ATOM     19  C   UNL     1       7.109   4.576  15.580  0.00  0.00    +0.000 A 
ATOM     20  C   UNL     1       7.364   4.607  16.950  0.00  0.00    +0.000 A 
ATOM     21  C   UNL     1       6.318   4.461  17.862  0.00  0.00    +0.000 A 
ENDBRANCH  15  16
ENDBRANCH   2  15
TORSDOF 5
ENDMDL
MODEL 8
REMARK VINA RESULT:      -6.6      2.555      7.551
REMARK  Name = 
REMARK  6 active torsions:
REMARK  status: ('A' for Active; 'I' for Inactive)
REMARK    1  A    between atoms: C_1  and  O_2
REMARK    2  A    between atoms: O_2  and  C_3
REMARK    3  A    between atoms: C_3  and  C_5
REMARK    4  A    between atoms: C_8  and  N_9
REMARK    5  A    between atoms: C_10  and  C_12
REMARK    6  A    between atoms: C_12  and  C_13
REMARK                            x       y       z     vdW  Elec       q    Type
REMARK                         _______ _______ _______ _____ _____    ______ ____
ROOT
ATOM      1  N   UNL     1       3.839   5.702  18.997  0.00  0.00    +0.000 N 
ATOM      2  C   UNL     1       2.503   5.447  19.258  0.00  0.00    +0.000 C 
ATOM      3  O   UNL     1       1.741   4.792  18.548  0.00  0.00    +0.000 OA
ATOM      4  H   UNL     1       4.404   6.058  19.757  0.00  0.00    +0.000 HD
ENDROOT
BRANCH   1   8
ATOM      5  C   UNL     1       5.887   4.896  15.386  0.00  0.00    +0.000 A 
ATOM      6  C   UNL     1       5.643   3.860  16.291  0.00  0.00    +0.000 A 
ATOM      7  C   UNL     1       4.962   4.110  17.487  0.00  0.00    +0.000 A 
ATOM      8  C   UNL     1       4.512   5.396  17.794  0.00  0.00    +0.000 A 
ATOM      9  C   UNL     1       4.712   6.424  16.867  0.00  0.00    +0.000 A 
ATOM     10  C   UNL     1       5.412   6.182  15.677  0.00  0.00    +0.000 A 
BRANCH   5  11
ATOM     11  C   UNL     1       6.640   4.572  14.143  0.00  0.00    +0.000 C 
ATOM     12  O   UNL     1       6.322   3.678  13.376  0.00  0.00    +0.000 OA
BRANCH  11  14
ATOM     13  C   UNL     1       8.136   5.562  12.652  0.00  0.00    +0.000 C 
ATOM     14  O   UNL     1       7.711   5.393  14.005  0.00  0.00    +0.000 OA
ENDBRANCH  11  14
ENDBRANCH   5  11
ENDBRANCH   1   8
BRANCH   2  15
ATOM     15  C   UNL     1       1.998   6.076  20.552  0.00  0.00    +0.000 C 
BRANCH  15  16
ATOM     16  C   UNL     1       1.652   7.528  20.333  0.00  0.00    +0.000 A 
ATOM     17  C   UNL     1       1.049   8.265  21.364  0.00  0.00    +0.000 A 
ATOM     18  C   UNL     1       0.593   9.561  21.134  0.00  0.00    +0.000 A 
ATOM     19  C   UNL     1       0.750  10.138  19.877  0.00  0.00    +0.000 A 
ATOM     20  C   UNL     1       1.393   9.433  18.861  0.00  0.00    +0.000 A 
ATOM     21  C   UNL     1       1.848   8.133  19.087  0.00  0.00    +0.000 A 
ENDBRANCH  15  16
ENDBRANCH   2  15
TORSDOF 5
ENDMDL
MODEL 9
REMARK VINA RESULT:      -6.5      0.687      1.059
REMARK  Name = 
REMARK  6 active torsions:
REMARK  status: ('A' for Active; 'I' for Inactive)
REMARK    1  A    between atoms: C_1  and  O_2
REMARK    2  A    between atoms: O_2  and  C_3
REMARK    3  A    between atoms: C_3  and  C_5
REMARK    4  A    between atoms: C_8  and  N_9
REMARK    5  A    between atoms: C_10  and  C_12
REMARK    6  A    between atoms: C_12  and  C_13
REMARK                            x       y       z     vdW  Elec       q    Type
REMARK                         _______ _______ _______ _____ _____    ______ ____
ROOT
ATOM      1  N   UNL     1       3.265   6.303  18.974  0.00  0.00    +0.000 N 
ATOM      2  C   UNL     1       2.851   4.985  18.869  0.00  0.00    +0.000 C 
ATOM      3  O   UNL     1       1.689   4.602  18.737  0.00  0.00    +0.000 OA
ATOM      4  H   UNL     1       4.252   6.493  18.856  0.00  0.00    +0.000 HD
ENDROOT
BRANCH   1   8
ATOM      5  C   UNL     1       0.693   9.646  19.278  0.00  0.00    +0.000 A 
ATOM      6  C   UNL     1       0.956   8.867  20.409  0.00  0.00    +0.000 A 
ATOM      7  C   UNL     1       1.809   7.761  20.324  0.00  0.00    +0.000 A 
ATOM      8  C   UNL     1       2.414   7.420  19.113  0.00  0.00    +0.000 A 
ATOM      9  C   UNL     1       2.191   8.227  17.993  0.00  0.00    +0.000 A 
ATOM     10  C   UNL     1       1.321   9.324  18.067  0.00  0.00    +0.000 A 
BRANCH   5  11
ATOM     11  C   UNL     1      -0.244  10.793  19.425  0.00  0.00    +0.000 C 
ATOM     12  O   UNL     1      -0.508  11.568  18.521  0.00  0.00    +0.000 OA
BRANCH  11  14
ATOM     13  C   UNL     1      -1.439  12.059  20.977  0.00  0.00    +0.000 C 
ATOM     14  O   UNL     1      -0.737  10.850  20.688  0.00  0.00    +0.000 OA
ENDBRANCH  11  14
ENDBRANCH   5  11
ENDBRANCH   1   8
BRANCH   2  15
ATOM     15  C   UNL     1       3.990   3.974  18.946  0.00  0.00    +0.000 C 
BRANCH  15  16
ATOM     16  C   UNL     1       5.010   4.244  17.869  0.00  0.00    +0.000 A 
ATOM     17  C   UNL     1       4.682   4.018  16.524  0.00  0.00    +0.000 A 
ATOM     18  C   UNL     1       5.653   4.123  15.532  0.00  0.00    +0.000 A 
ATOM     19  C   UNL     1       6.957   4.472  15.872  0.00  0.00    +0.000 A 
ATOM     20  C   UNL     1       7.282   4.747  17.199  0.00  0.00    +0.000 A 
ATOM     21  C   UNL     1       6.312   4.639  18.197  0.00  0.00    +0.000 A 
ENDBRANCH  15  16
ENDBRANCH   2  15
TORSDOF 5
ENDMDL
