MODEL 1
REMARK VINA RESULT:      -7.4      0.000      0.000
REMARK  Name = 
REMARK  3 active torsions:
REMARK  status: ('A' for Active; 'I' for Inactive)
REMARK    1  A    between atoms: C_1  and  C_2
REMARK    2  A    between atoms: N_4  and  C_5
REMARK    3  A    between atoms: C_5  and  C_6
REMARK                            x       y       z     vdW  Elec       q    Type
REMARK                         _______ _______ _______ _____ _____    ______ ____
ROOT
ATOM      1  C   UNL     1       2.266   7.174  19.430  0.00  0.00    +0.000 C 
ATOM      2  C   UNL     1       2.719   5.841  18.883  0.00  0.00    +0.000 A 
ATOM      3  N   UNL     1       3.455   5.852  17.814  0.00  0.00    +0.000 NA
ATOM      4  N   UNL     1       3.915   4.659  17.309  0.00  0.00    +0.000 N 
ATOM      5  C   UNL     1       3.627   3.413  17.852  0.00  0.00    +0.000 A 
ATOM      6  O   UNL     1       4.008   2.348  17.372  0.00  0.00    +0.000 OA
ATOM      7  C   UNL     1       2.783   3.401  19.062  0.00  0.00    +0.000 A 
ATOM      8  C   UNL     1       2.453   2.189  19.682  0.00  0.00    +0.000 A 
ATOM      9  C   UNL     1       1.657   2.186  20.829  0.00  0.00    +0.000 A 
ATOM     10  C   UNL     1       1.181   3.390  21.346  0.00  0.00    +0.000 A 
ATOM     11  C   UNL     1       1.503   4.599  20.722  0.00  0.00    +0.000 A 
ATOM     12  C   UNL     1       2.316   4.604  19.581  0.00  0.00    +0.000 A 
ENDROOT
BRANCH   4  13
ATOM     13  C   UNL     1       4.757   4.736  16.123  0.00  0.00    +0.000 C 
BRANCH  13  14
ATOM     14  C   UNL     1       5.565   6.041  16.019  0.00  0.00    +0.000 C 
ATOM     15  O   UNL     1       5.334   6.898  15.166  0.00  0.00    +0.000 OA
ATOM     16  N   UNL     1       6.603   6.200  16.943  0.00  0.00    +0.000 N 
ATOM     17  C   UNL     1       7.028   5.194  17.924  0.00  0.00    +0.000 C 
ATOM     18  C   UNL     1       7.492   5.857  19.226  0.00  0.00    +0.000 C 
ATOM     19  O   UNL     1       8.510   6.837  18.973  0.00  0.00    +0.000 OA
ATOM     20  C   UNL     1       8.006   7.871  18.114  0.00  0.00    +0.000 C 
ATOM     21  C   UNL     1       7.557   7.299  16.764  0.00  0.00    +0.000 C 
ENDBRANCH  13  14
ENDBRANCH   4  13
TORSDOF 2
ENDMDL
MODEL 2
REMARK VINA RESULT:      -6.9      2.334      3.312
REMARK  Name = 
REMARK  3 active torsions:
REMARK  status: ('A' for Active; 'I' for Inactive)
REMARK    1  A    between atoms: C_1  and  C_2
REMARK    2  A    between atoms: N_4  and  C_5
REMARK    3  A    between atoms: C_5  and  C_6
REMARK                            x       y       z     vdW  Elec       q    Type
REMARK                         _______ _______ _______ _____ _____    ______ ____
ROOT
ATOM      1  C   UNL     1       3.239   6.935  18.002  0.00  0.00    +0.000 C 
ATOM      2  C   UNL     1       3.389   5.433  17.997  0.00  0.00    +0.000 A 
ATOM      3  N   UNL     1       4.237   4.919  17.158  0.00  0.00    +0.000 NA
ATOM      4  N   UNL     1       4.425   3.557  17.151  0.00  0.00    +0.000 N 
ATOM      5  C   UNL     1       3.744   2.665  17.972  0.00  0.00    +0.000 A 
ATOM      6  O   UNL     1       3.888   1.446  17.931  0.00  0.00    +0.000 OA
ATOM      7  C   UNL     1       2.775   3.250  18.917  0.00  0.00    +0.000 A 
ATOM      8  C   UNL     1       2.052   2.425  19.790  0.00  0.00    +0.000 A 
ATOM      9  C   UNL     1       1.139   2.985  20.684  0.00  0.00    +0.000 A 
ATOM     10  C   UNL     1       0.936   4.365  20.696  0.00  0.00    +0.000 A 
ATOM     11  C   UNL     1       1.650   5.187  19.819  0.00  0.00    +0.000 A 
ATOM     12  C   UNL     1       2.581   4.627  18.933  0.00  0.00    +0.000 A 
ENDROOT
BRANCH   4  13
ATOM     13  C   UNL     1       5.408   3.041  16.208  0.00  0.00    +0.000 C 
BRANCH  13  14
ATOM     14  C   UNL     1       6.489   4.063  15.817  0.00  0.00    +0.000 C 
ATOM     15  O   UNL     1       7.192   4.636  16.650  0.00  0.00    +0.000 OA
ATOM     16  N   UNL     1       6.622   4.328  14.451  0.00  0.00    +0.000 N 
ATOM     17  C   UNL     1       5.764   3.784  13.393  0.00  0.00    +0.000 C 
ATOM     18  C   UNL     1       6.565   3.528  12.111  0.00  0.00    +0.000 C 
ATOM     19  O   UNL     1       7.264   4.709  11.693  0.00  0.00    +0.000 OA
ATOM     20  C   UNL     1       8.188   5.130  12.708  0.00  0.00    +0.000 C 
ATOM     21  C   UNL     1       7.462   5.451  14.019  0.00  0.00    +0.000 C 
ENDBRANCH  13  14
ENDBRANCH   4  13
TORSDOF 2
ENDMDL
MODEL 3
REMARK VINA RESULT:      -6.7      2.793      4.560
REMARK  Name = 
REMARK  3 active torsions:
REMARK  status: ('A' for Active; 'I' for Inactive)
REMARK    1  A    between atoms: C_1  and  C_2
REMARK    2  A    between atoms: N_4  and  C_5
REMARK    3  A    between atoms: C_5  and  C_6
REMARK                            x       y       z     vdW  Elec       q    Type
REMARK                         _______ _______ _______ _____ _____    ______ ____
ROOT
ATOM      1  C   UNL     1       2.059  10.385  17.780  0.00  0.00    +0.000 C 
ATOM      2  C   UNL     1       1.911   9.159  18.649  0.00  0.00    +0.000 A 
ATOM      3  N   UNL     1       2.384   8.040  18.191  0.00  0.00    +0.000 NA
ATOM      4  N   UNL     1       2.298   6.912  18.971  0.00  0.00    +0.000 N 
ATOM      5  C   UNL     1       1.709   6.868  20.229  0.00  0.00    +0.000 A 
ATOM      6  O   UNL     1       1.600   5.847  20.903  0.00  0.00    +0.000 OA
ATOM      7  C   UNL     1       1.163   8.138  20.744  0.00  0.00    +0.000 A 
ATOM      8  C   UNL     1       0.562   8.188  22.009  0.00  0.00    +0.000 A 
ATOM      9  C   UNL     1       0.051   9.394  22.491  0.00  0.00    +0.000 A 
ATOM     10  C   UNL     1       0.128  10.544  21.706  0.00  0.00    +0.000 A 
ATOM     11  C   UNL     1       0.720  10.492  20.441  0.00  0.00    +0.000 A 
ATOM     12  C   UNL     1       1.249   9.285  19.963  0.00  0.00    +0.000 A 
ENDROOT
BRANCH   4  13
ATOM     13  C   UNL     1       2.870   5.692  18.416  0.00  0.00    +0.000 C 
BRANCH  13  14
ATOM     14  C   UNL     1       4.351   5.482  18.776  0.00  0.00    +0.000 C 
ATOM     15  O   UNL     1       4.723   5.208  19.917  0.00  0.00    +0.000 OA
ATOM     16  N   UNL     1       5.267   5.638  17.731  0.00  0.00    +0.000 N 
ATOM     17  C   UNL     1       4.937   6.069  16.368  0.00  0.00    +0.000 C 
ATOM     18  C   UNL     1       5.834   5.373  15.338  0.00  0.00    +0.000 C 
ATOM     19  O   UNL     1       7.222   5.564  15.649  0.00  0.00    +0.000 OA
ATOM     20  C   UNL     1       7.527   5.010  16.937  0.00  0.00    +0.000 C 
ATOM     21  C   UNL     1       6.701   5.682  18.039  0.00  0.00    +0.000 C 
ENDBRANCH  13  14
ENDBRANCH   4  13
TORSDOF 2
ENDMDL
MODEL 4
REMARK VINA RESULT:      -6.7      2.311      4.048
REMARK  Name = 
REMARK  3 active torsions:
REMARK  status: ('A' for Active; 'I' for Inactive)
REMARK    1  A    between atoms: C_1  and  C_2
REMARK    2  A    between atoms: N_4  and  C_5
REMARK    3  A    between atoms: C_5  and  C_6
REMARK                            x       y       z     vdW  Elec       q    Type
REMARK                         _______ _______ _______ _____ _____    ______ ____
ROOT
ATOM      1  C   UNL     1       2.834   8.823  17.311  0.00  0.00    +0.000 C 
ATOM      2  C   UNL     1       2.553   7.821  18.405  0.00  0.00    +0.000 A 
ATOM      3  N   UNL     1       3.116   6.655  18.306  0.00  0.00    +0.000 NA
ATOM      4  N   UNL     1       2.910   5.730  19.302  0.00  0.00    +0.000 N 
ATOM      5  C   UNL     1       2.110   5.942  20.419  0.00  0.00    +0.000 A 
ATOM      6  O   UNL     1       1.898   5.096  21.285  0.00  0.00    +0.000 OA
ATOM      7  C   UNL     1       1.464   7.263  20.524  0.00  0.00    +0.000 A 
ATOM      8  C   UNL     1       0.648   7.567  21.623  0.00  0.00    +0.000 A 
ATOM      9  C   UNL     1       0.044   8.821  21.717  0.00  0.00    +0.000 A 
ATOM     10  C   UNL     1       0.241   9.765  20.710  0.00  0.00    +0.000 A 
ATOM     11  C   UNL     1       1.047   9.459  19.609  0.00  0.00    +0.000 A 
ATOM     12  C   UNL     1       1.669   8.206  19.522  0.00  0.00    +0.000 A 
ENDROOT
BRANCH   4  13
ATOM     13  C   UNL     1       3.588   4.449  19.152  0.00  0.00    +0.000 C 
BRANCH  13  14
ATOM     14  C   UNL     1       3.895   4.078  17.690  0.00  0.00    +0.000 C 
ATOM     15  O   UNL     1       3.026   3.689  16.909  0.00  0.00    +0.000 OA
ATOM     16  N   UNL     1       5.231   4.187  17.293  0.00  0.00    +0.000 N 
ATOM     17  C   UNL     1       6.353   4.534  18.173  0.00  0.00    +0.000 C 
ATOM     18  C   UNL     1       7.402   5.365  17.426  0.00  0.00    +0.000 C 
ATOM     19  O   UNL     1       7.833   4.699  16.229  0.00  0.00    +0.000 OA
ATOM     20  C   UNL     1       6.723   4.499  15.341  0.00  0.00    +0.000 C 
ATOM     21  C   UNL     1       5.639   3.636  15.997  0.00  0.00    +0.000 C 
ENDBRANCH  13  14
ENDBRANCH   4  13
TORSDOF 2
ENDMDL
MODEL 5
REMARK VINA RESULT:      -6.6      2.434      5.587
REMARK  Name = 
REMARK  3 active torsions:
REMARK  status: ('A' for Active; 'I' for Inactive)
REMARK    1  A    between atoms: C_1  and  C_2
REMARK    2  A    between atoms: N_4  and  C_5
REMARK    3  A    between atoms: C_5  and  C_6
REMARK                            x       y       z     vdW  Elec       q    Type
REMARK                         _______ _______ _______ _____ _____    ______ ____
ROOT
ATOM      1  C   UNL     1       7.257   5.530  19.345  0.00  0.00    +0.000 C 
ATOM      2  C   UNL     1       6.116   4.875  18.604  0.00  0.00    +0.000 A 
ATOM      3  N   UNL     1       5.099   4.473  19.305  0.00  0.00    +0.000 NA
ATOM      4  N   UNL     1       4.028   3.905  18.658  0.00  0.00    +0.000 N 
ATOM      5  C   UNL     1       3.956   3.699  17.286  0.00  0.00    +0.000 A 
ATOM      6  O   UNL     1       3.012   3.154  16.720  0.00  0.00    +0.000 OA
ATOM      7  C   UNL     1       5.115   4.148  16.492  0.00  0.00    +0.000 A 
ATOM      8  C   UNL     1       5.123   3.991  15.100  0.00  0.00    +0.000 A 
ATOM      9  C   UNL     1       6.222   4.421  14.355  0.00  0.00    +0.000 A 
ATOM     10  C   UNL     1       7.317   4.994  15.001  0.00  0.00    +0.000 A 
ATOM     11  C   UNL     1       7.313   5.143  16.391  0.00  0.00    +0.000 A 
ATOM     12  C   UNL     1       6.203   4.727  17.138  0.00  0.00    +0.000 A 
ENDROOT
BRANCH   4  13
ATOM     13  C   UNL     1       2.905   3.497  19.493  0.00  0.00    +0.000 C 
BRANCH  13  14
ATOM     14  C   UNL     1       2.443   4.580  20.483  0.00  0.00    +0.000 C 
ATOM     15  O   UNL     1       2.370   4.382  21.696  0.00  0.00    +0.000 OA
ATOM     16  N   UNL     1       2.087   5.813  19.927  0.00  0.00    +0.000 N 
ATOM     17  C   UNL     1       2.033   6.113  18.492  0.00  0.00    +0.000 C 
ATOM     18  C   UNL     1       2.451   7.562  18.218  0.00  0.00    +0.000 C 
ATOM     19  O   UNL     1       1.672   8.482  18.996  0.00  0.00    +0.000 OA
ATOM     20  C   UNL     1       1.858   8.233  20.398  0.00  0.00    +0.000 C 
ATOM     21  C   UNL     1       1.421   6.812  20.770  0.00  0.00    +0.000 C 
ENDBRANCH  13  14
ENDBRANCH   4  13
TORSDOF 2
ENDMDL
MODEL 6
REMARK VINA RESULT:      -6.6      3.735      5.896
REMARK  Name = 
REMARK  3 active torsions:
REMARK  status: ('A' for Active; 'I' for Inactive)
REMARK    1  A    between atoms: C_1  and  C_2
REMARK    2  A    between atoms: N_4  and  C_5
REMARK    3  A    between atoms: C_5  and  C_6
REMARK                            x       y       z     vdW  Elec       q    Type
REMARK                         _______ _______ _______ _____ _____    ______ ____
ROOT
ATOM      1  C   UNL     1       4.823   5.888  16.605  0.00  0.00    +0.000 C 
ATOM      2  C   UNL     1       3.834   5.733  17.735  0.00  0.00    +0.000 A 
ATOM      3  N   UNL     1       3.448   6.812  18.346  0.00  0.00    +0.000 NA
ATOM      4  N   UNL     1       2.521   6.710  19.355  0.00  0.00    +0.000 N 
ATOM      5  C   UNL     1       1.971   5.514  19.801  0.00  0.00    +0.000 A 
ATOM      6  O   UNL     1       1.173   5.427  20.731  0.00  0.00    +0.000 OA
ATOM      7  C   UNL     1       2.417   4.289  19.113  0.00  0.00    +0.000 A 
ATOM      8  C   UNL     1       1.905   3.039  19.489  0.00  0.00    +0.000 A 
ATOM      9  C   UNL     1       2.329   1.884  18.831  0.00  0.00    +0.000 A 
ATOM     10  C   UNL     1       3.273   1.975  17.809  0.00  0.00    +0.000 A 
ATOM     11  C   UNL     1       3.791   3.220  17.439  0.00  0.00    +0.000 A 
ATOM     12  C   UNL     1       3.352   4.382  18.087  0.00  0.00    +0.000 A 
ENDROOT
BRANCH   4  13
ATOM     13  C   UNL     1       2.106   7.957  19.986  0.00  0.00    +0.000 C 
BRANCH  13  14
ATOM     14  C   UNL     1       1.377   8.921  19.034  0.00  0.00    +0.000 C 
ATOM     15  O   UNL     1       1.384   8.776  17.811  0.00  0.00    +0.000 OA
ATOM     16  N   UNL     1       0.713   9.995  19.633  0.00  0.00    +0.000 N 
ATOM     17  C   UNL     1       0.736  10.316  21.065  0.00  0.00    +0.000 C 
ATOM     18  C   UNL     1      -0.607  10.897  21.520  0.00  0.00    +0.000 C 
ATOM     19  O   UNL     1      -0.983  12.024  20.715  0.00  0.00    +0.000 OA
ATOM     20  C   UNL     1      -1.122  11.632  19.341  0.00  0.00    +0.000 C 
ATOM     21  C   UNL     1       0.195  11.077  18.788  0.00  0.00    +0.000 C 
ENDBRANCH  13  14
ENDBRANCH   4  13
TORSDOF 2
ENDMDL
MODEL 7
REMARK VINA RESULT:      -6.6      3.604      6.483
REMARK  Name = 
REMARK  3 active torsions:
REMARK  status: ('A' for Active; 'I' for Inactive)
REMARK    1  A    between atoms: C_1  and  C_2
REMARK    2  A    between atoms: N_4  and  C_5
REMARK    3  A    between atoms: C_5  and  C_6
REMARK                            x       y       z     vdW  Elec       q    Type
REMARK                         _______ _______ _______ _____ _____    ______ ____
ROOT
ATOM      1  C   UNL     1       0.228   9.316  23.042  0.00  0.00    +0.000 C 
ATOM      2  C   UNL     1       0.625   9.163  21.594  0.00  0.00    +0.000 A 
ATOM      3  N   UNL     1       1.459   8.213  21.299  0.00  0.00    +0.000 NA
ATOM      4  N   UNL     1       1.814   8.023  19.985  0.00  0.00    +0.000 N 
ATOM      5  C   UNL     1       1.360   8.801  18.927  0.00  0.00    +0.000 A 
ATOM      6  O   UNL     1       1.714   8.650  17.759  0.00  0.00    +0.000 OA
ATOM      7  C   UNL     1       0.420   9.886  19.264  0.00  0.00    +0.000 A 
ATOM      8  C   UNL     1      -0.097  10.713  18.258  0.00  0.00    +0.000 A 
ATOM      9  C   UNL     1      -0.989  11.735  18.585  0.00  0.00    +0.000 A 
ATOM     10  C   UNL     1      -1.352  11.941  19.915  0.00  0.00    +0.000 A 
ATOM     11  C   UNL     1      -0.829  11.122  20.920  0.00  0.00    +0.000 A 
ATOM     12  C   UNL     1       0.053  10.083  20.591  0.00  0.00    +0.000 A 
ENDROOT
BRANCH   4  13
ATOM     13  C   UNL     1       2.732   6.924  19.711  0.00  0.00    +0.000 C 
BRANCH  13  14
ATOM     14  C   UNL     1       2.112   5.532  19.917  0.00  0.00    +0.000 C 
ATOM     15  O   UNL     1       1.122   5.345  20.625  0.00  0.00    +0.000 OA
ATOM     16  N   UNL     1       2.749   4.470  19.267  0.00  0.00    +0.000 N 
ATOM     17  C   UNL     1       3.992   4.571  18.494  0.00  0.00    +0.000 C 
ATOM     18  C   UNL     1       3.978   3.607  17.302  0.00  0.00    +0.000 C 
ATOM     19  O   UNL     1       3.708   2.263  17.727  0.00  0.00    +0.000 OA
ATOM     20  C   UNL     1       2.422   2.189  18.361  0.00  0.00    +0.000 C 
ATOM     21  C   UNL     1       2.361   3.094  19.596  0.00  0.00    +0.000 C 
ENDBRANCH  13  14
ENDBRANCH   4  13
TORSDOF 2
ENDMDL
MODEL 8
REMARK VINA RESULT:      -6.5      3.647      6.659
REMARK  Name = 
REMARK  3 active torsions:
REMARK  status: ('A' for Active; 'I' for Inactive)
REMARK    1  A    between atoms: C_1  and  C_2
REMARK    2  A    between atoms: N_4  and  C_5
REMARK    3  A    between atoms: C_5  and  C_6
REMARK                            x       y       z     vdW  Elec       q    Type
REMARK                         _______ _______ _______ _____ _____    ______ ____
ROOT
ATOM      1  C   UNL     1      -0.073   8.903  22.649  0.00  0.00    +0.000 C 
ATOM      2  C   UNL     1       0.514   8.934  21.258  0.00  0.00    +0.000 A 
ATOM      3  N   UNL     1       1.391   8.025  20.958  0.00  0.00    +0.000 NA
ATOM      4  N   UNL     1       1.919   8.002  19.689  0.00  0.00    +0.000 N 
ATOM      5  C   UNL     1       1.600   8.912  18.688  0.00  0.00    +0.000 A 
ATOM      6  O   UNL     1       2.107   8.910  17.568  0.00  0.00    +0.000 OA
ATOM      7  C   UNL     1       0.611   9.950  19.033  0.00  0.00    +0.000 A 
ATOM      8  C   UNL     1       0.222  10.901  18.081  0.00  0.00    +0.000 A 
ATOM      9  C   UNL     1      -0.717  11.878  18.414  0.00  0.00    +0.000 A 
ATOM     10  C   UNL     1      -1.256  11.914  19.700  0.00  0.00    +0.000 A 
ATOM     11  C   UNL     1      -0.861  10.970  20.653  0.00  0.00    +0.000 A 
ATOM     12  C   UNL     1       0.069   9.978  20.314  0.00  0.00    +0.000 A 
ENDROOT
BRANCH   4  13
ATOM     13  C   UNL     1       2.878   6.943  19.402  0.00  0.00    +0.000 C 
BRANCH  13  14
ATOM     14  C   UNL     1       2.250   5.696  18.757  0.00  0.00    +0.000 C 
ATOM     15  O   UNL     1       2.026   5.616  17.549  0.00  0.00    +0.000 OA
ATOM     16  N   UNL     1       1.923   4.650  19.625  0.00  0.00    +0.000 N 
ATOM     17  C   UNL     1       2.047   4.690  21.087  0.00  0.00    +0.000 C 
ATOM     18  C   UNL     1       2.442   3.317  21.643  0.00  0.00    +0.000 C 
ATOM     19  O   UNL     1       1.533   2.299  21.201  0.00  0.00    +0.000 OA
ATOM     20  C   UNL     1       1.543   2.207  19.768  0.00  0.00    +0.000 C 
ATOM     21  C   UNL     1       1.115   3.532  19.126  0.00  0.00    +0.000 C 
ENDBRANCH  13  14
ENDBRANCH   4  13
TORSDOF 2
ENDMDL
MODEL 9
REMARK VINA RESULT:      -6.4      5.766      8.390
REMARK  Name = 
REMARK  3 active torsions:
REMARK  status: ('A' for Active; 'I' for Inactive)
REMARK    1  A    between atoms: C_1  and  C_2
REMARK    2  A    between atoms: N_4  and  C_5
REMARK    3  A    between atoms: C_5  and  C_6
REMARK                            x       y       z     vdW  Elec       q    Type
REMARK                         _______ _______ _______ _____ _____    ______ ____
ROOT
ATOM      1  C   UNL     1      -0.072   8.752  22.370  0.00  0.00    +0.000 C 
ATOM      2  C   UNL     1       0.440   9.039  20.978  0.00  0.00    +0.000 A 
ATOM      3  N   UNL     1       0.087  10.162  20.430  0.00  0.00    +0.000 NA
ATOM      4  N   UNL     1       0.563  10.470  19.179  0.00  0.00    +0.000 N 
ATOM      5  C   UNL     1       1.392   9.645  18.427  0.00  0.00    +0.000 A 
ATOM      6  O   UNL     1       1.781   9.911  17.292  0.00  0.00    +0.000 OA
ATOM      7  C   UNL     1       1.784   8.366  19.047  0.00  0.00    +0.000 A 
ATOM      8  C   UNL     1       2.626   7.478  18.364  0.00  0.00    +0.000 A 
ATOM      9  C   UNL     1       2.996   6.271  18.959  0.00  0.00    +0.000 A 
ATOM     10  C   UNL     1       2.514   5.945  20.226  0.00  0.00    +0.000 A 
ATOM     11  C   UNL     1       1.667   6.827  20.903  0.00  0.00    +0.000 A 
ATOM     12  C   UNL     1       1.309   8.047  20.314  0.00  0.00    +0.000 A 
ENDROOT
BRANCH   4  13
ATOM     13  C   UNL     1       0.155  11.755  18.625  0.00  0.00    +0.000 C 
BRANCH  13  14
ATOM     14  C   UNL     1      -1.317  12.108  18.897  0.00  0.00    +0.000 C 
ATOM     15  O   UNL     1      -1.663  12.843  19.822  0.00  0.00    +0.000 OA
ATOM     16  N   UNL     1      -2.259  11.529  18.040  0.00  0.00    +0.000 N 
ATOM     17  C   UNL     1      -1.960  10.557  16.982  0.00  0.00    +0.000 C 
ATOM     18  C   UNL     1      -2.885  10.756  15.776  0.00  0.00    +0.000 C 
ATOM     19  O   UNL     1      -4.264  10.723  16.172  0.00  0.00    +0.000 OA
ATOM     20  C   UNL     1      -4.540  11.774  17.110  0.00  0.00    +0.000 C 
ATOM     21  C   UNL     1      -3.684  11.628  18.373  0.00  0.00    +0.000 C 
ENDBRANCH  13  14
ENDBRANCH   4  13
TORSDOF 2
ENDMDL
