MODEL 1
REMARK VINA RESULT:      -7.7      0.000      0.000
REMARK  Name = 
REMARK  4 active torsions:
REMARK  status: ('A' for Active; 'I' for Inactive)
REMARK    1  A    between atoms: C_1  and  O_2
REMARK    2  A    between atoms: O_2  and  C_3
REMARK    3  A    between atoms: C_8  and  C_9
REMARK    4  A    between atoms: C_16  and  O_17
REMARK                            x       y       z     vdW  Elec       q    Type
REMARK                         _______ _______ _______ _____ _____    ______ ____
ROOT
ATOM      1  C   UNL     1       2.524   6.642  18.864  0.00  0.00    +0.000 A 
ATOM      2  C   UNL     1       2.489   7.578  17.909  0.00  0.00    +0.000 A 
ATOM      3  C   UNL     1       1.973   8.904  18.239  0.00  0.00    +0.000 A 
ATOM      4  O   UNL     1       2.038   9.828  17.438  0.00  0.00    +0.000 OA
ATOM      5  C   UNL     1       1.331   9.040  19.548  0.00  0.00    +0.000 A 
ATOM      6  C   UNL     1       0.558  10.171  19.823  0.00  0.00    +0.000 A 
ATOM      7  C   UNL     1      -0.099  10.272  21.045  0.00  0.00    +0.000 A 
ATOM      8  C   UNL     1       0.063   9.259  21.989  0.00  0.00    +0.000 A 
ATOM      9  C   UNL     1       0.847   8.132  21.721  0.00  0.00    +0.000 A 
ATOM     10  C   UNL     1       1.461   8.004  20.474  0.00  0.00    +0.000 A 
ATOM     11  O   UNL     1       2.132   6.830  20.183  0.00  0.00    +0.000 OA
ENDROOT
BRANCH   1  17
ATOM     12  C   UNL     1       4.058   4.674  18.890  0.00  0.00    +0.000 A 
ATOM     13  C   UNL     1       4.252   3.299  18.716  0.00  0.00    +0.000 A 
ATOM     14  C   UNL     1       3.259   2.518  18.126  0.00  0.00    +0.000 A 
ATOM     15  C   UNL     1       2.087   3.110  17.663  0.00  0.00    +0.000 A 
ATOM     16  C   UNL     1       1.896   4.487  17.803  0.00  0.00    +0.000 A 
ATOM     17  C   UNL     1       2.872   5.280  18.428  0.00  0.00    +0.000 A 
BRANCH  12  19
ATOM     18  C   UNL     1       6.309   5.360  19.032  0.00  0.00    +0.000 C 
ATOM     19  O   UNL     1       4.975   5.486  19.513  0.00  0.00    +0.000 OA
ENDBRANCH  12  19
ENDBRANCH   1  17
BRANCH   8  20
ATOM     20  O   UNL     1      -0.561   9.331  23.201  0.00  0.00    +0.000 OA
ATOM     21  H   UNL     1      -1.439   8.922  23.127  0.00  0.00    +0.000 HD
ENDBRANCH   8  20
TORSDOF 3
ENDMDL
MODEL 2
REMARK VINA RESULT:      -7.4      4.250      6.631
REMARK  Name = 
REMARK  4 active torsions:
REMARK  status: ('A' for Active; 'I' for Inactive)
REMARK    1  A    between atoms: C_1  and  O_2
REMARK    2  A    between atoms: O_2  and  C_3
REMARK    3  A    between atoms: C_8  and  C_9
REMARK    4  A    between atoms: C_16  and  O_17
REMARK                            x       y       z     vdW  Elec       q    Type
REMARK                         _______ _______ _______ _____ _____    ______ ____
ROOT
ATOM      1  C   UNL     1       3.996   4.469  18.281  0.00  0.00    +0.000 A 
ATOM      2  C   UNL     1       4.946   5.245  18.813  0.00  0.00    +0.000 A 
ATOM      3  C   UNL     1       6.022   5.731  17.953  0.00  0.00    +0.000 A 
ATOM      4  O   UNL     1       6.842   6.545  18.361  0.00  0.00    +0.000 OA
ATOM      5  C   UNL     1       6.091   5.148  16.612  0.00  0.00    +0.000 A 
ATOM      6  C   UNL     1       7.242   5.327  15.840  0.00  0.00    +0.000 A 
ATOM      7  C   UNL     1       7.330   4.723  14.590  0.00  0.00    +0.000 A 
ATOM      8  C   UNL     1       6.247   3.986  14.114  0.00  0.00    +0.000 A 
ATOM      9  C   UNL     1       5.089   3.816  14.880  0.00  0.00    +0.000 A 
ATOM     10  C   UNL     1       5.022   4.374  16.157  0.00  0.00    +0.000 A 
ATOM     11  O   UNL     1       3.920   4.096  16.945  0.00  0.00    +0.000 OA
ENDROOT
BRANCH   1  17
ATOM     12  C   UNL     1       3.513   2.932  20.187  0.00  0.00    +0.000 A 
ATOM     13  C   UNL     1       2.691   2.568  21.259  0.00  0.00    +0.000 A 
ATOM     14  C   UNL     1       1.432   3.149  21.409  0.00  0.00    +0.000 A 
ATOM     15  C   UNL     1       0.965   4.060  20.464  0.00  0.00    +0.000 A 
ATOM     16  C   UNL     1       1.766   4.406  19.372  0.00  0.00    +0.000 A 
ATOM     17  C   UNL     1       3.049   3.857  19.229  0.00  0.00    +0.000 A 
BRANCH  12  19
ATOM     18  C   UNL     1       5.118   1.344  20.867  0.00  0.00    +0.000 C 
ATOM     19  O   UNL     1       4.782   2.435  20.016  0.00  0.00    +0.000 OA
ENDBRANCH  12  19
ENDBRANCH   1  17
BRANCH   8  20
ATOM     20  O   UNL     1       6.297   3.388  12.888  0.00  0.00    +0.000 OA
ATOM     21  H   UNL     1       7.009   3.796  12.368  0.00  0.00    +0.000 HD
ENDBRANCH   8  20
TORSDOF 3
ENDMDL
MODEL 3
REMARK VINA RESULT:      -7.3      3.059      6.678
REMARK  Name = 
REMARK  4 active torsions:
REMARK  status: ('A' for Active; 'I' for Inactive)
REMARK    1  A    between atoms: C_1  and  O_2
REMARK    2  A    between atoms: O_2  and  C_3
REMARK    3  A    between atoms: C_8  and  C_9
REMARK    4  A    between atoms: C_16  and  O_17
REMARK                            x       y       z     vdW  Elec       q    Type
REMARK                         _______ _______ _______ _____ _____    ______ ____
ROOT
ATOM      1  C   UNL     1       4.395   4.876  18.571  0.00  0.00    +0.000 A 
ATOM      2  C   UNL     1       5.555   5.375  19.013  0.00  0.00    +0.000 A 
ATOM      3  C   UNL     1       6.614   5.658  18.048  0.00  0.00    +0.000 A 
ATOM      4  O   UNL     1       7.642   6.232  18.384  0.00  0.00    +0.000 OA
ATOM      5  C   UNL     1       6.396   5.168  16.686  0.00  0.00    +0.000 A 
ATOM      6  C   UNL     1       7.464   5.130  15.786  0.00  0.00    +0.000 A 
ATOM      7  C   UNL     1       7.268   4.609  14.511  0.00  0.00    +0.000 A 
ATOM      8  C   UNL     1       5.996   4.175  14.143  0.00  0.00    +0.000 A 
ATOM      9  C   UNL     1       4.922   4.224  15.038  0.00  0.00    +0.000 A 
ATOM     10  C   UNL     1       5.130   4.693  16.335  0.00  0.00    +0.000 A 
ATOM     11  O   UNL     1       4.087   4.623  17.241  0.00  0.00    +0.000 OA
ENDROOT
BRANCH   1  17
ATOM     12  C   UNL     1       2.304   5.216  19.890  0.00  0.00    +0.000 A 
ATOM     13  C   UNL     1       1.260   4.675  20.649  0.00  0.00    +0.000 A 
ATOM     14  C   UNL     1       1.321   3.352  21.086  0.00  0.00    +0.000 A 
ATOM     15  C   UNL     1       2.444   2.575  20.810  0.00  0.00    +0.000 A 
ATOM     16  C   UNL     1       3.506   3.116  20.080  0.00  0.00    +0.000 A 
ATOM     17  C   UNL     1       3.442   4.435  19.603  0.00  0.00    +0.000 A 
BRANCH  12  19
ATOM     18  C   UNL     1       1.893   7.498  20.319  0.00  0.00    +0.000 C 
ATOM     19  O   UNL     1       2.277   6.493  19.386  0.00  0.00    +0.000 OA
ENDBRANCH  12  19
ENDBRANCH   1  17
BRANCH   8  20
ATOM     20  O   UNL     1       5.768   3.666  12.897  0.00  0.00    +0.000 OA
ATOM     21  H   UNL     1       5.912   2.705  12.918  0.00  0.00    +0.000 HD
ENDBRANCH   8  20
TORSDOF 3
ENDMDL
MODEL 4
REMARK VINA RESULT:      -7.2      2.970      4.598
REMARK  Name = 
REMARK  4 active torsions:
REMARK  status: ('A' for Active; 'I' for Inactive)
REMARK    1  A    between atoms: C_1  and  O_2
REMARK    2  A    between atoms: O_2  and  C_3
REMARK    3  A    between atoms: C_8  and  C_9
REMARK    4  A    between atoms: C_16  and  O_17
REMARK                            x       y       z     vdW  Elec       q    Type
REMARK                         _______ _______ _______ _____ _____    ______ ____
ROOT
ATOM      1  C   UNL     1       4.618   5.420  17.620  0.00  0.00    +0.000 A 
ATOM      2  C   UNL     1       3.825   6.494  17.697  0.00  0.00    +0.000 A 
ATOM      3  C   UNL     1       2.885   6.598  18.811  0.00  0.00    +0.000 A 
ATOM      4  O   UNL     1       2.231   7.616  18.996  0.00  0.00    +0.000 OA
ATOM      5  C   UNL     1       2.736   5.403  19.643  0.00  0.00    +0.000 A 
ATOM      6  C   UNL     1       1.661   5.311  20.532  0.00  0.00    +0.000 A 
ATOM      7  C   UNL     1       1.487   4.151  21.280  0.00  0.00    +0.000 A 
ATOM      8  C   UNL     1       2.416   3.119  21.159  0.00  0.00    +0.000 A 
ATOM      9  C   UNL     1       3.500   3.214  20.280  0.00  0.00    +0.000 A 
ATOM     10  C   UNL     1       3.644   4.354  19.488  0.00  0.00    +0.000 A 
ATOM     11  O   UNL     1       4.651   4.380  18.540  0.00  0.00    +0.000 OA
ENDROOT
BRANCH   1  17
ATOM     12  C   UNL     1       6.797   5.489  16.405  0.00  0.00    +0.000 A 
ATOM     13  C   UNL     1       7.581   5.084  15.319  0.00  0.00    +0.000 A 
ATOM     14  C   UNL     1       6.996   4.434  14.233  0.00  0.00    +0.000 A 
ATOM     15  C   UNL     1       5.619   4.228  14.200  0.00  0.00    +0.000 A 
ATOM     16  C   UNL     1       4.823   4.657  15.266  0.00  0.00    +0.000 A 
ATOM     17  C   UNL     1       5.403   5.279  16.382  0.00  0.00    +0.000 A 
BRANCH  12  19
ATOM     18  C   UNL     1       7.537   7.487  17.415  0.00  0.00    +0.000 C 
ATOM     19  O   UNL     1       7.323   6.083  17.526  0.00  0.00    +0.000 OA
ENDBRANCH  12  19
ENDBRANCH   1  17
BRANCH   8  20
ATOM     20  O   UNL     1       2.279   1.971  21.884  0.00  0.00    +0.000 OA
ATOM     21  H   UNL     1       1.488   1.498  21.578  0.00  0.00    +0.000 HD
ENDBRANCH   8  20
TORSDOF 3
ENDMDL
MODEL 5
REMARK VINA RESULT:      -7.2      1.215      1.231
REMARK  Name = 
REMARK  4 active torsions:
REMARK  status: ('A' for Active; 'I' for Inactive)
REMARK    1  A    between atoms: C_1  and  O_2
REMARK    2  A    between atoms: O_2  and  C_3
REMARK    3  A    between atoms: C_8  and  C_9
REMARK    4  A    between atoms: C_16  and  O_17
REMARK                            x       y       z     vdW  Elec       q    Type
REMARK                         _______ _______ _______ _____ _____    ______ ____
ROOT
ATOM      1  C   UNL     1       2.112   6.672  19.703  0.00  0.00    +0.000 A 
ATOM      2  C   UNL     1       2.164   7.310  18.528  0.00  0.00    +0.000 A 
ATOM      3  C   UNL     1       1.838   8.733  18.484  0.00  0.00    +0.000 A 
ATOM      4  O   UNL     1       1.994   9.388  17.461  0.00  0.00    +0.000 OA
ATOM      5  C   UNL     1       1.268   9.304  19.705  0.00  0.00    +0.000 A 
ATOM      6  C   UNL     1       0.660  10.561  19.661  0.00  0.00    +0.000 A 
ATOM      7  C   UNL     1       0.066  11.077  20.810  0.00  0.00    +0.000 A 
ATOM      8  C   UNL     1       0.130  10.345  21.994  0.00  0.00    +0.000 A 
ATOM      9  C   UNL     1       0.750   9.092  22.044  0.00  0.00    +0.000 A 
ATOM     10  C   UNL     1       1.295   8.549  20.880  0.00  0.00    +0.000 A 
ATOM     11  O   UNL     1       1.797   7.261  20.921  0.00  0.00    +0.000 OA
ENDROOT
BRANCH   1  17
ATOM     12  C   UNL     1       3.550   4.633  19.647  0.00  0.00    +0.000 A 
ATOM     13  C   UNL     1       3.704   3.264  19.889  0.00  0.00    +0.000 A 
ATOM     14  C   UNL     1       2.593   2.473  20.181  0.00  0.00    +0.000 A 
ATOM     15  C   UNL     1       1.318   3.032  20.186  0.00  0.00    +0.000 A 
ATOM     16  C   UNL     1       1.150   4.393  19.914  0.00  0.00    +0.000 A 
ATOM     17  C   UNL     1       2.263   5.208  19.655  0.00  0.00    +0.000 A 
BRANCH  12  19
ATOM     18  C   UNL     1       5.801   4.827  18.971  0.00  0.00    +0.000 C 
ATOM     19  O   UNL     1       4.610   5.474  19.408  0.00  0.00    +0.000 OA
ENDBRANCH  12  19
ENDBRANCH   1  17
BRANCH   8  20
ATOM     20  O   UNL     1      -0.434  10.826  23.140  0.00  0.00    +0.000 OA
ATOM     21  H   UNL     1      -0.106  11.727  23.298  0.00  0.00    +0.000 HD
ENDBRANCH   8  20
TORSDOF 3
ENDMDL
MODEL 6
REMARK VINA RESULT:      -7.2      1.122      1.902
REMARK  Name = 
REMARK  4 active torsions:
REMARK  status: ('A' for Active; 'I' for Inactive)
REMARK    1  A    between atoms: C_1  and  O_2
REMARK    2  A    between atoms: O_2  and  C_3
REMARK    3  A    between atoms: C_8  and  C_9
REMARK    4  A    between atoms: C_16  and  O_17
REMARK                            x       y       z     vdW  Elec       q    Type
REMARK                         _______ _______ _______ _____ _____    ______ ____
ROOT
ATOM      1  C   UNL     1       2.685   6.985  18.856  0.00  0.00    +0.000 A 
ATOM      2  C   UNL     1       2.555   7.914  17.902  0.00  0.00    +0.000 A 
ATOM      3  C   UNL     1       1.885   9.170  18.228  0.00  0.00    +0.000 A 
ATOM      4  O   UNL     1       1.854  10.098  17.430  0.00  0.00    +0.000 OA
ATOM      5  C   UNL     1       1.213   9.226  19.527  0.00  0.00    +0.000 A 
ATOM      6  C   UNL     1       0.311  10.259  19.794  0.00  0.00    +0.000 A 
ATOM      7  C   UNL     1      -0.371  10.277  21.007  0.00  0.00    +0.000 A 
ATOM      8  C   UNL     1      -0.106   9.286  21.951  0.00  0.00    +0.000 A 
ATOM      9  C   UNL     1       0.807   8.259  21.691  0.00  0.00    +0.000 A 
ATOM     10  C   UNL     1       1.448   8.207  20.454  0.00  0.00    +0.000 A 
ATOM     11  O   UNL     1       2.255   7.120  20.169  0.00  0.00    +0.000 OA
ENDROOT
BRANCH   1  17
ATOM     12  C   UNL     1       2.367   4.535  18.503  0.00  0.00    +0.000 A 
ATOM     13  C   UNL     1       2.731   3.359  17.839  0.00  0.00    +0.000 A 
ATOM     14  C   UNL     1       3.887   3.321  17.059  0.00  0.00    +0.000 A 
ATOM     15  C   UNL     1       4.712   4.440  16.977  0.00  0.00    +0.000 A 
ATOM     16  C   UNL     1       4.374   5.610  17.663  0.00  0.00    +0.000 A 
ATOM     17  C   UNL     1       3.194   5.673  18.421  0.00  0.00    +0.000 A 
BRANCH  12  19
ATOM     18  C   UNL     1       1.099   3.731  20.322  0.00  0.00    +0.000 C 
ATOM     19  O   UNL     1       1.214   4.650  19.240  0.00  0.00    +0.000 OA
ENDBRANCH  12  19
ENDBRANCH   1  17
BRANCH   8  20
ATOM     20  O   UNL     1      -0.751   9.281  23.154  0.00  0.00    +0.000 OA
ATOM     21  H   UNL     1      -1.647   9.638  23.032  0.00  0.00    +0.000 HD
ENDBRANCH   8  20
TORSDOF 3
ENDMDL
MODEL 7
REMARK VINA RESULT:      -7.1      3.752      6.769
REMARK  Name = 
REMARK  4 active torsions:
REMARK  status: ('A' for Active; 'I' for Inactive)
REMARK    1  A    between atoms: C_1  and  O_2
REMARK    2  A    between atoms: O_2  and  C_3
REMARK    3  A    between atoms: C_8  and  C_9
REMARK    4  A    between atoms: C_16  and  O_17
REMARK                            x       y       z     vdW  Elec       q    Type
REMARK                         _______ _______ _______ _____ _____    ______ ____
ROOT
ATOM      1  C   UNL     1       4.118   5.174  17.686  0.00  0.00    +0.000 A 
ATOM      2  C   UNL     1       5.045   6.090  17.988  0.00  0.00    +0.000 A 
ATOM      3  C   UNL     1       6.071   6.406  16.998  0.00  0.00    +0.000 A 
ATOM      4  O   UNL     1       6.862   7.324  17.175  0.00  0.00    +0.000 OA
ATOM      5  C   UNL     1       6.129   5.533  15.824  0.00  0.00    +0.000 A 
ATOM      6  C   UNL     1       7.246   5.575  14.987  0.00  0.00    +0.000 A 
ATOM      7  C   UNL     1       7.326   4.703  13.906  0.00  0.00    +0.000 A 
ATOM      8  C   UNL     1       6.266   3.833  13.655  0.00  0.00    +0.000 A 
ATOM      9  C   UNL     1       5.141   3.798  14.484  0.00  0.00    +0.000 A 
ATOM     10  C   UNL     1       5.085   4.633  15.601  0.00  0.00    +0.000 A 
ATOM     11  O   UNL     1       4.021   4.500  16.476  0.00  0.00    +0.000 OA
ENDROOT
BRANCH   1  17
ATOM     12  C   UNL     1       3.418   3.508  19.408  0.00  0.00    +0.000 A 
ATOM     13  C   UNL     1       2.778   3.230  20.621  0.00  0.00    +0.000 A 
ATOM     14  C   UNL     1       1.991   4.201  21.240  0.00  0.00    +0.000 A 
ATOM     15  C   UNL     1       1.797   5.438  20.629  0.00  0.00    +0.000 A 
ATOM     16  C   UNL     1       2.406   5.714  19.402  0.00  0.00    +0.000 A 
ATOM     17  C   UNL     1       3.231   4.760  18.786  0.00  0.00    +0.000 A 
BRANCH  12  19
ATOM     18  C   UNL     1       3.648   1.364  18.454  0.00  0.00    +0.000 C 
ATOM     19  O   UNL     1       4.249   2.614  18.779  0.00  0.00    +0.000 OA
ENDBRANCH  12  19
ENDBRANCH   1  17
BRANCH   8  20
ATOM     20  O   UNL     1       6.309   2.970  12.598  0.00  0.00    +0.000 OA
ATOM     21  H   UNL     1       5.412   2.643  12.422  0.00  0.00    +0.000 HD
ENDBRANCH   8  20
TORSDOF 3
ENDMDL
MODEL 8
REMARK VINA RESULT:      -7.0      4.649      5.879
REMARK  Name = 
REMARK  4 active torsions:
REMARK  status: ('A' for Active; 'I' for Inactive)
REMARK    1  A    between atoms: C_1  and  O_2
REMARK    2  A    between atoms: O_2  and  C_3
REMARK    3  A    between atoms: C_8  and  C_9
REMARK    4  A    between atoms: C_16  and  O_17
REMARK                            x       y       z     vdW  Elec       q    Type
REMARK                         _______ _______ _______ _____ _____    ______ ____
ROOT
ATOM      1  C   UNL     1       4.356   3.670  18.674  0.00  0.00    +0.000 A 
ATOM      2  C   UNL     1       4.168   3.627  17.351  0.00  0.00    +0.000 A 
ATOM      3  C   UNL     1       5.123   4.309  16.481  0.00  0.00    +0.000 A 
ATOM      4  O   UNL     1       5.067   4.192  15.263  0.00  0.00    +0.000 OA
ATOM      5  C   UNL     1       6.100   5.172  17.145  0.00  0.00    +0.000 A 
ATOM      6  C   UNL     1       6.846   6.080  16.388  0.00  0.00    +0.000 A 
ATOM      7  C   UNL     1       7.732   6.942  17.028  0.00  0.00    +0.000 A 
ATOM      8  C   UNL     1       7.888   6.851  18.410  0.00  0.00    +0.000 A 
ATOM      9  C   UNL     1       7.152   5.934  19.168  0.00  0.00    +0.000 A 
ATOM     10  C   UNL     1       6.223   5.109  18.535  0.00  0.00    +0.000 A 
ATOM     11  O   UNL     1       5.419   4.295  19.313  0.00  0.00    +0.000 OA
ENDROOT
BRANCH   1  17
ATOM     12  C   UNL     1       3.559   2.510  20.736  0.00  0.00    +0.000 A 
ATOM     13  C   UNL     1       2.531   2.257  21.651  0.00  0.00    +0.000 A 
ATOM     14  C   UNL     1       1.225   2.655  21.369  0.00  0.00    +0.000 A 
ATOM     15  C   UNL     1       0.926   3.265  20.153  0.00  0.00    +0.000 A 
ATOM     16  C   UNL     1       1.940   3.494  19.219  0.00  0.00    +0.000 A 
ATOM     17  C   UNL     1       3.265   3.131  19.504  0.00  0.00    +0.000 A 
BRANCH  12  19
ATOM     18  C   UNL     1       5.201   0.819  20.785  0.00  0.00    +0.000 C 
ATOM     19  O   UNL     1       4.872   2.191  20.979  0.00  0.00    +0.000 OA
ENDBRANCH  12  19
ENDBRANCH   1  17
BRANCH   8  20
ATOM     20  O   UNL     1       8.755   7.675  19.068  0.00  0.00    +0.000 OA
ATOM     21  H   UNL     1       8.622   7.573  20.024  0.00  0.00    +0.000 HD
ENDBRANCH   8  20
TORSDOF 3
ENDMDL
MODEL 9
REMARK VINA RESULT:      -7.0      3.658      7.116
REMARK  Name = 
REMARK  4 active torsions:
REMARK  status: ('A' for Active; 'I' for Inactive)
REMARK    1  A    between atoms: C_1  and  O_2
REMARK    2  A    between atoms: O_2  and  C_3
REMARK    3  A    between atoms: C_8  and  C_9
REMARK    4  A    between atoms: C_16  and  O_17
REMARK                            x       y       z     vdW  Elec       q    Type
REMARK                         _______ _______ _______ _____ _____    ______ ____
ROOT
ATOM      1  C   UNL     1       4.796   4.825  17.505  0.00  0.00    +0.000 A 
ATOM      2  C   UNL     1       5.846   5.623  17.729  0.00  0.00    +0.000 A 
ATOM      3  C   UNL     1       6.731   5.952  16.615  0.00  0.00    +0.000 A 
ATOM      4  O   UNL     1       7.628   6.777  16.739  0.00  0.00    +0.000 OA
ATOM      5  C   UNL     1       6.517   5.204  15.376  0.00  0.00    +0.000 A 
ATOM      6  C   UNL     1       7.488   5.237  14.372  0.00  0.00    +0.000 A 
ATOM      7  C   UNL     1       7.311   4.478  13.219  0.00  0.00    +0.000 A 
ATOM      8  C   UNL     1       6.143   3.732  13.071  0.00  0.00    +0.000 A 
ATOM      9  C   UNL     1       5.163   3.707  14.069  0.00  0.00    +0.000 A 
ATOM     10  C   UNL     1       5.366   4.423  15.249  0.00  0.00    +0.000 A 
ATOM     11  O   UNL     1       4.444   4.291  16.272  0.00  0.00    +0.000 OA
ENDROOT
BRANCH   1  17
ATOM     12  C   UNL     1       2.775   4.901  18.967  0.00  0.00    +0.000 A 
ATOM     13  C   UNL     1       1.955   4.283  19.917  0.00  0.00    +0.000 A 
ATOM     14  C   UNL     1       2.380   3.124  20.566  0.00  0.00    +0.000 A 
ATOM     15  C   UNL     1       3.645   2.601  20.306  0.00  0.00    +0.000 A 
ATOM     16  C   UNL     1       4.485   3.230  19.382  0.00  0.00    +0.000 A 
ATOM     17  C   UNL     1       4.055   4.376  18.696  0.00  0.00    +0.000 A 
BRANCH  12  19
ATOM     18  C   UNL     1       2.470   7.240  18.975  0.00  0.00    +0.000 C 
ATOM     19  O   UNL     1       2.390   6.012  18.257  0.00  0.00    +0.000 OA
ENDBRANCH  12  19
ENDBRANCH   1  17
BRANCH   8  20
ATOM     20  O   UNL     1       5.933   2.983  11.949  0.00  0.00    +0.000 OA
ATOM     21  H   UNL     1       6.763   2.539  11.709  0.00  0.00    +0.000 HD
ENDBRANCH   8  20
TORSDOF 3
ENDMDL
