MODEL 1
REMARK VINA RESULT:      -8.0      0.000      0.000
REMARK  Name = 
REMARK  8 active torsions:
REMARK  status: ('A' for Active; 'I' for Inactive)
REMARK    1  A    between atoms: C_1  and  C_2
REMARK    2  A    between atoms: C_2  and  C_3
REMARK    3  A    between atoms: C_7  and  C_8
REMARK    4  A    between atoms: C_11  and  N_12
REMARK    5  A    between atoms: N_12  and  S_13
REMARK    6  A    between atoms: S_13  and  C_14
REMARK    7  A    between atoms: C_20  and  C_21
REMARK    8  A    between atoms: C_24  and  C_25
REMARK                            x       y       z     vdW  Elec       q    Type
REMARK                         _______ _______ _______ _____ _____    ______ ____
ROOT
ATOM      1  C   UNL     1       3.227   3.005  19.679  0.00  0.00    +0.000 C 
ATOM      2  O   UNL     1       4.180   2.228  19.623  0.00  0.00    +0.000 OA
ATOM      3  N   UNL     1       3.348   4.370  19.475  0.00  0.00    +0.000 N 
ATOM      4  N   UNL     1       2.308   5.228  19.721  0.00  0.00    +0.000 NA
ATOM      5  C   UNL     1       2.770   6.434  19.592  0.00  0.00    +0.000 C 
ATOM      6  C   UNL     1       4.232   6.537  19.250  0.00  0.00    +0.000 C 
ATOM      7  C   UNL     1       4.599   5.053  19.155  0.00  0.00    +0.000 C 
ENDROOT
BRANCH   7   8
ATOM      8  C   UNL     1       5.137   4.712  17.778  0.00  0.00    +0.000 A 
ATOM      9  C   UNL     1       6.522   4.676  17.556  0.00  0.00    +0.000 A 
ATOM     10  C   UNL     1       7.032   4.432  16.277  0.00  0.00    +0.000 A 
ATOM     11  C   UNL     1       6.168   4.223  15.198  0.00  0.00    +0.000 A 
ATOM     12  C   UNL     1       6.699   3.988  13.815  0.00  0.00    +0.000 C 
ATOM     13  C   UNL     1       4.787   4.236  15.419  0.00  0.00    +0.000 A 
ATOM     14  C   UNL     1       4.277   4.469  16.697  0.00  0.00    +0.000 A 
ENDBRANCH   7   8
BRANCH   5  15
ATOM     15  C   UNL     1       1.917   7.630  19.777  0.00  0.00    +0.000 A 
ATOM     16  C   UNL     1       1.822   8.550  18.723  0.00  0.00    +0.000 A 
ATOM     17  C   UNL     1       1.028   9.688  18.852  0.00  0.00    +0.000 A 
ATOM     18  C   UNL     1       0.339   9.918  20.040  0.00  0.00    +0.000 A 
ATOM     19  C   UNL     1       0.425   9.009  21.094  0.00  0.00    +0.000 A 
ATOM     20  C   UNL     1       1.216   7.861  20.964  0.00  0.00    +0.000 A 
BRANCH  18  21
ATOM     21  N   UNL     1      -0.494  11.069  20.133  0.00  0.00    +0.000 N 
ATOM     22  H   UNL     1      -0.889  11.401  19.250  0.00  0.00    +0.000 HD
BRANCH  21  23
ATOM     23  S   UNL     1       0.104  12.386  21.011  0.00  0.00    +0.000 S 
ATOM     24  C   UNL     1      -0.831  12.258  22.520  0.00  0.00    +0.000 C 
ATOM     25  O   UNL     1       1.508  12.193  21.298  0.00  0.00    +0.000 OA
ATOM     26  O   UNL     1      -0.362  13.559  20.303  0.00  0.00    +0.000 OA
ENDBRANCH  21  23
ENDBRANCH  18  21
ENDBRANCH   5  15
BRANCH   1  28
ATOM     27  C   UNL     1       1.003   2.200  18.762  0.00  0.00    +0.000 C 
ATOM     28  C   UNL     1       1.810   2.546  19.999  0.00  0.00    +0.000 C 
ENDBRANCH   1  28
TORSDOF 5
ENDMDL
MODEL 2
REMARK VINA RESULT:      -7.9      0.670      1.223
REMARK  Name = 
REMARK  8 active torsions:
REMARK  status: ('A' for Active; 'I' for Inactive)
REMARK    1  A    between atoms: C_1  and  C_2
REMARK    2  A    between atoms: C_2  and  C_3
REMARK    3  A    between atoms: C_7  and  C_8
REMARK    4  A    between atoms: C_11  and  N_12
REMARK    5  A    between atoms: N_12  and  S_13
REMARK    6  A    between atoms: S_13  and  C_14
REMARK    7  A    between atoms: C_20  and  C_21
REMARK    8  A    between atoms: C_24  and  C_25
REMARK                            x       y       z     vdW  Elec       q    Type
REMARK                         _______ _______ _______ _____ _____    ______ ____
ROOT
ATOM      1  C   UNL     1       3.344   2.974  19.563  0.00  0.00    +0.000 C 
ATOM      2  O   UNL     1       4.315   2.226  19.452  0.00  0.00    +0.000 OA
ATOM      3  N   UNL     1       3.426   4.351  19.425  0.00  0.00    +0.000 N 
ATOM      4  N   UNL     1       2.370   5.168  19.731  0.00  0.00    +0.000 NA
ATOM      5  C   UNL     1       2.799   6.390  19.654  0.00  0.00    +0.000 C 
ATOM      6  C   UNL     1       4.250   6.548  19.293  0.00  0.00    +0.000 C 
ATOM      7  C   UNL     1       4.653   5.081  19.118  0.00  0.00    +0.000 C 
ENDROOT
BRANCH   7   8
ATOM      8  C   UNL     1       5.175   4.822  17.717  0.00  0.00    +0.000 A 
ATOM      9  C   UNL     1       4.276   4.682  16.649  0.00  0.00    +0.000 A 
ATOM     10  C   UNL     1       4.739   4.373  15.366  0.00  0.00    +0.000 A 
ATOM     11  C   UNL     1       6.105   4.198  15.128  0.00  0.00    +0.000 A 
ATOM     12  C   UNL     1       6.613   3.840  13.764  0.00  0.00    +0.000 C 
ATOM     13  C   UNL     1       7.006   4.360  16.185  0.00  0.00    +0.000 A 
ATOM     14  C   UNL     1       6.547   4.677  17.464  0.00  0.00    +0.000 A 
ENDBRANCH   7   8
BRANCH   5  15
ATOM     15  C   UNL     1       1.919   7.553  19.912  0.00  0.00    +0.000 A 
ATOM     16  C   UNL     1       1.784   8.523  18.908  0.00  0.00    +0.000 A 
ATOM     17  C   UNL     1       0.964   9.632  19.106  0.00  0.00    +0.000 A 
ATOM     18  C   UNL     1       0.288   9.784  20.314  0.00  0.00    +0.000 A 
ATOM     19  C   UNL     1       0.414   8.825  21.320  0.00  0.00    +0.000 A 
ATOM     20  C   UNL     1       1.232   7.705  21.120  0.00  0.00    +0.000 A 
BRANCH  18  21
ATOM     21  N   UNL     1      -0.572  10.906  20.479  0.00  0.00    +0.000 N 
ATOM     22  H   UNL     1      -0.875  11.361  19.613  0.00  0.00    +0.000 HD
BRANCH  21  23
ATOM     23  S   UNL     1      -0.097  12.085  21.596  0.00  0.00    +0.000 S 
ATOM     24  C   UNL     1      -1.044  13.490  21.049  0.00  0.00    +0.000 C 
ATOM     25  O   UNL     1      -0.522  11.708  22.925  0.00  0.00    +0.000 OA
ATOM     26  O   UNL     1       1.295  12.351  21.301  0.00  0.00    +0.000 OA
ENDBRANCH  21  23
ENDBRANCH  18  21
ENDBRANCH   5  15
BRANCH   1  28
ATOM     27  C   UNL     1       1.099   2.228  18.646  0.00  0.00    +0.000 C 
ATOM     28  C   UNL     1       1.944   2.463  19.883  0.00  0.00    +0.000 C 
ENDBRANCH   1  28
TORSDOF 5
ENDMDL
MODEL 3
REMARK VINA RESULT:      -7.9      0.806      1.151
REMARK  Name = 
REMARK  8 active torsions:
REMARK  status: ('A' for Active; 'I' for Inactive)
REMARK    1  A    between atoms: C_1  and  C_2
REMARK    2  A    between atoms: C_2  and  C_3
REMARK    3  A    between atoms: C_7  and  C_8
REMARK    4  A    between atoms: C_11  and  N_12
REMARK    5  A    between atoms: N_12  and  S_13
REMARK    6  A    between atoms: S_13  and  C_14
REMARK    7  A    between atoms: C_20  and  C_21
REMARK    8  A    between atoms: C_24  and  C_25
REMARK                            x       y       z     vdW  Elec       q    Type
REMARK                         _______ _______ _______ _____ _____    ______ ____
ROOT
ATOM      1  C   UNL     1       3.293   3.012  19.721  0.00  0.00    +0.000 C 
ATOM      2  O   UNL     1       4.250   2.241  19.659  0.00  0.00    +0.000 OA
ATOM      3  N   UNL     1       3.400   4.375  19.492  0.00  0.00    +0.000 N 
ATOM      4  N   UNL     1       2.359   5.230  19.743  0.00  0.00    +0.000 NA
ATOM      5  C   UNL     1       2.810   6.436  19.586  0.00  0.00    +0.000 C 
ATOM      6  C   UNL     1       4.264   6.543  19.216  0.00  0.00    +0.000 C 
ATOM      7  C   UNL     1       4.640   5.061  19.138  0.00  0.00    +0.000 C 
ENDROOT
BRANCH   7   8
ATOM      8  C   UNL     1       5.156   4.701  17.758  0.00  0.00    +0.000 A 
ATOM      9  C   UNL     1       6.537   4.677  17.510  0.00  0.00    +0.000 A 
ATOM     10  C   UNL     1       7.025   4.416  16.225  0.00  0.00    +0.000 A 
ATOM     11  C   UNL     1       6.143   4.177  15.168  0.00  0.00    +0.000 A 
ATOM     12  C   UNL     1       6.651   3.923  13.779  0.00  0.00    +0.000 C 
ATOM     13  C   UNL     1       4.767   4.178  15.415  0.00  0.00    +0.000 A 
ATOM     14  C   UNL     1       4.279   4.429  16.698  0.00  0.00    +0.000 A 
ENDBRANCH   7   8
BRANCH   5  15
ATOM     15  C   UNL     1       1.952   7.629  19.767  0.00  0.00    +0.000 A 
ATOM     16  C   UNL     1       1.844   8.540  18.706  0.00  0.00    +0.000 A 
ATOM     17  C   UNL     1       1.045   9.675  18.831  0.00  0.00    +0.000 A 
ATOM     18  C   UNL     1       0.364   9.912  20.021  0.00  0.00    +0.000 A 
ATOM     19  C   UNL     1       0.463   9.013  21.083  0.00  0.00    +0.000 A 
ATOM     20  C   UNL     1       1.259   7.867  20.957  0.00  0.00    +0.000 A 
BRANCH  18  21
ATOM     21  N   UNL     1      -0.475  11.059  20.111  0.00  0.00    +0.000 N 
ATOM     22  H   UNL     1      -1.059  11.244  19.291  0.00  0.00    +0.000 HD
BRANCH  21  23
ATOM     23  S   UNL     1       0.243  12.501  20.626  0.00  0.00    +0.000 S 
ATOM     24  C   UNL     1       0.502  13.339  19.076  0.00  0.00    +0.000 C 
ATOM     25  O   UNL     1      -0.688  13.259  21.431  0.00  0.00    +0.000 OA
ATOM     26  O   UNL     1       1.542  12.119  21.141  0.00  0.00    +0.000 OA
ENDBRANCH  21  23
ENDBRANCH  18  21
ENDBRANCH   5  15
BRANCH   1  28
ATOM     27  C   UNL     1       1.627   2.512  21.568  0.00  0.00    +0.000 C 
ATOM     28  C   UNL     1       1.884   2.549  20.073  0.00  0.00    +0.000 C 
ENDBRANCH   1  28
TORSDOF 5
ENDMDL
MODEL 4
REMARK VINA RESULT:      -7.9      1.183      1.287
REMARK  Name = 
REMARK  8 active torsions:
REMARK  status: ('A' for Active; 'I' for Inactive)
REMARK    1  A    between atoms: C_1  and  C_2
REMARK    2  A    between atoms: C_2  and  C_3
REMARK    3  A    between atoms: C_7  and  C_8
REMARK    4  A    between atoms: C_11  and  N_12
REMARK    5  A    between atoms: N_12  and  S_13
REMARK    6  A    between atoms: S_13  and  C_14
REMARK    7  A    between atoms: C_20  and  C_21
REMARK    8  A    between atoms: C_24  and  C_25
REMARK                            x       y       z     vdW  Elec       q    Type
REMARK                         _______ _______ _______ _____ _____    ______ ____
ROOT
ATOM      1  C   UNL     1       3.108   2.945  18.189  0.00  0.00    +0.000 C 
ATOM      2  O   UNL     1       3.981   2.082  18.102  0.00  0.00    +0.000 OA
ATOM      3  N   UNL     1       3.382   4.304  18.214  0.00  0.00    +0.000 N 
ATOM      4  N   UNL     1       2.410   5.228  18.492  0.00  0.00    +0.000 NA
ATOM      5  C   UNL     1       2.999   6.380  18.598  0.00  0.00    +0.000 C 
ATOM      6  C   UNL     1       4.492   6.366  18.417  0.00  0.00    +0.000 C 
ATOM      7  C   UNL     1       4.721   4.880  18.125  0.00  0.00    +0.000 C 
ENDROOT
BRANCH   7   8
ATOM      8  C   UNL     1       5.373   4.685  16.769  0.00  0.00    +0.000 A 
ATOM      9  C   UNL     1       6.765   4.797  16.638  0.00  0.00    +0.000 A 
ATOM     10  C   UNL     1       7.373   4.690  15.382  0.00  0.00    +0.000 A 
ATOM     11  C   UNL     1       6.601   4.471  14.238  0.00  0.00    +0.000 A 
ATOM     12  C   UNL     1       7.235   4.381  12.882  0.00  0.00    +0.000 C 
ATOM     13  C   UNL     1       5.215   4.336  14.367  0.00  0.00    +0.000 A 
ATOM     14  C   UNL     1       4.609   4.433  15.620  0.00  0.00    +0.000 A 
ENDBRANCH   7   8
BRANCH   5  15
ATOM     15  C   UNL     1       2.251   7.624  18.887  0.00  0.00    +0.000 A 
ATOM     16  C   UNL     1       2.053   8.540  17.844  0.00  0.00    +0.000 A 
ATOM     17  C   UNL     1       1.352   9.724  18.069  0.00  0.00    +0.000 A 
ATOM     18  C   UNL     1       0.860  10.003  19.341  0.00  0.00    +0.000 A 
ATOM     19  C   UNL     1       1.050   9.099  20.387  0.00  0.00    +0.000 A 
ATOM     20  C   UNL     1       1.747   7.905  20.161  0.00  0.00    +0.000 A 
BRANCH  18  21
ATOM     21  N   UNL     1       0.115  11.200  19.538  0.00  0.00    +0.000 N 
ATOM     22  H   UNL     1      -0.547  11.436  18.794  0.00  0.00    +0.000 HD
BRANCH  21  23
ATOM     23  S   UNL     1       0.983  12.585  19.976  0.00  0.00    +0.000 S 
ATOM     24  C   UNL     1      -0.333  13.750  20.260  0.00  0.00    +0.000 C 
ATOM     25  O   UNL     1       1.695  12.353  21.212  0.00  0.00    +0.000 OA
ATOM     26  O   UNL     1       1.680  12.994  18.774  0.00  0.00    +0.000 OA
ENDBRANCH  21  23
ENDBRANCH  18  21
ENDBRANCH   5  15
BRANCH   1  28
ATOM     27  C   UNL     1       1.182   2.326  19.721  0.00  0.00    +0.000 C 
ATOM     28  C   UNL     1       1.626   2.608  18.298  0.00  0.00    +0.000 C 
ENDBRANCH   1  28
TORSDOF 5
ENDMDL
MODEL 5
REMARK VINA RESULT:      -7.9      0.513      1.168
REMARK  Name = 
REMARK  8 active torsions:
REMARK  status: ('A' for Active; 'I' for Inactive)
REMARK    1  A    between atoms: C_1  and  C_2
REMARK    2  A    between atoms: C_2  and  C_3
REMARK    3  A    between atoms: C_7  and  C_8
REMARK    4  A    between atoms: C_11  and  N_12
REMARK    5  A    between atoms: N_12  and  S_13
REMARK    6  A    between atoms: S_13  and  C_14
REMARK    7  A    between atoms: C_20  and  C_21
REMARK    8  A    between atoms: C_24  and  C_25
REMARK                            x       y       z     vdW  Elec       q    Type
REMARK                         _______ _______ _______ _____ _____    ______ ____
ROOT
ATOM      1  C   UNL     1       3.709   3.174  19.718  0.00  0.00    +0.000 C 
ATOM      2  O   UNL     1       4.708   2.459  19.639  0.00  0.00    +0.000 OA
ATOM      3  N   UNL     1       3.711   4.520  19.388  0.00  0.00    +0.000 N 
ATOM      4  N   UNL     1       2.638   5.327  19.656  0.00  0.00    +0.000 NA
ATOM      5  C   UNL     1       2.997   6.543  19.382  0.00  0.00    +0.000 C 
ATOM      6  C   UNL     1       4.411   6.709  18.897  0.00  0.00    +0.000 C 
ATOM      7  C   UNL     1       4.876   5.250  18.894  0.00  0.00    +0.000 C 
ENDROOT
BRANCH   7   8
ATOM      8  C   UNL     1       5.315   4.820  17.507  0.00  0.00    +0.000 A 
ATOM      9  C   UNL     1       6.681   4.729  17.202  0.00  0.00    +0.000 A 
ATOM     10  C   UNL     1       7.101   4.403  15.908  0.00  0.00    +0.000 A 
ATOM     11  C   UNL     1       6.164   4.163  14.899  0.00  0.00    +0.000 A 
ATOM     12  C   UNL     1       6.598   3.839  13.500  0.00  0.00    +0.000 C 
ATOM     13  C   UNL     1       4.801   4.231  15.205  0.00  0.00    +0.000 A 
ATOM     14  C   UNL     1       4.381   4.547  16.497  0.00  0.00    +0.000 A 
ENDBRANCH   7   8
BRANCH   5  15
ATOM     15  C   UNL     1       2.078   7.693  19.543  0.00  0.00    +0.000 A 
ATOM     16  C   UNL     1       1.409   7.845  20.766  0.00  0.00    +0.000 A 
ATOM     17  C   UNL     1       0.537   8.914  20.963  0.00  0.00    +0.000 A 
ATOM     18  C   UNL     1       0.319   9.826  19.934  0.00  0.00    +0.000 A 
ATOM     19  C   UNL     1       0.980   9.685  18.713  0.00  0.00    +0.000 A 
ATOM     20  C   UNL     1       1.863   8.616  18.516  0.00  0.00    +0.000 A 
BRANCH  18  21
ATOM     21  N   UNL     1      -0.548  10.930  20.172  0.00  0.00    +0.000 N 
ATOM     22  H   UNL     1      -1.129  11.215  19.380  0.00  0.00    +0.000 HD
BRANCH  21  23
ATOM     23  S   UNL     1       0.132  12.303  20.891  0.00  0.00    +0.000 S 
ATOM     24  C   UNL     1      -0.809  12.414  22.398  0.00  0.00    +0.000 C 
ATOM     25  O   UNL     1       1.521  12.060  21.209  0.00  0.00    +0.000 OA
ATOM     26  O   UNL     1      -0.262  13.410  20.045  0.00  0.00    +0.000 OA
ENDBRANCH  21  23
ENDBRANCH  18  21
ENDBRANCH   5  15
BRANCH   1  28
ATOM     27  C   UNL     1       2.232   2.672  21.719  0.00  0.00    +0.000 C 
ATOM     28  C   UNL     1       2.363   2.655  20.208  0.00  0.00    +0.000 C 
ENDBRANCH   1  28
TORSDOF 5
ENDMDL
MODEL 6
REMARK VINA RESULT:      -7.8      1.514      1.636
REMARK  Name = 
REMARK  8 active torsions:
REMARK  status: ('A' for Active; 'I' for Inactive)
REMARK    1  A    between atoms: C_1  and  C_2
REMARK    2  A    between atoms: C_2  and  C_3
REMARK    3  A    between atoms: C_7  and  C_8
REMARK    4  A    between atoms: C_11  and  N_12
REMARK    5  A    between atoms: N_12  and  S_13
REMARK    6  A    between atoms: S_13  and  C_14
REMARK    7  A    between atoms: C_20  and  C_21
REMARK    8  A    between atoms: C_24  and  C_25
REMARK                            x       y       z     vdW  Elec       q    Type
REMARK                         _______ _______ _______ _____ _____    ______ ____
ROOT
ATOM      1  C   UNL     1       3.166   3.068  18.935  0.00  0.00    +0.000 C 
ATOM      2  O   UNL     1       4.058   2.222  18.876  0.00  0.00    +0.000 OA
ATOM      3  N   UNL     1       3.396   4.426  18.776  0.00  0.00    +0.000 N 
ATOM      4  N   UNL     1       2.420   5.354  19.024  0.00  0.00    +0.000 NA
ATOM      5  C   UNL     1       2.976   6.523  18.943  0.00  0.00    +0.000 C 
ATOM      6  C   UNL     1       4.450   6.523  18.639  0.00  0.00    +0.000 C 
ATOM      7  C   UNL     1       4.704   5.018  18.506  0.00  0.00    +0.000 C 
ENDROOT
BRANCH   7   8
ATOM      8  C   UNL     1       5.250   4.677  17.133  0.00  0.00    +0.000 A 
ATOM      9  C   UNL     1       6.636   4.640  16.919  0.00  0.00    +0.000 A 
ATOM     10  C   UNL     1       7.153   4.396  15.642  0.00  0.00    +0.000 A 
ATOM     11  C   UNL     1       6.296   4.187  14.559  0.00  0.00    +0.000 A 
ATOM     12  C   UNL     1       6.834   3.952  13.179  0.00  0.00    +0.000 C 
ATOM     13  C   UNL     1       4.913   4.200  14.772  0.00  0.00    +0.000 A 
ATOM     14  C   UNL     1       4.397   4.434  16.047  0.00  0.00    +0.000 A 
ENDBRANCH   7   8
BRANCH   5  15
ATOM     15  C   UNL     1       2.213   7.776  19.145  0.00  0.00    +0.000 A 
ATOM     16  C   UNL     1       2.116   8.677  18.075  0.00  0.00    +0.000 A 
ATOM     17  C   UNL     1       1.405   9.867  18.219  0.00  0.00    +0.000 A 
ATOM     18  C   UNL     1       0.801  10.167  19.437  0.00  0.00    +0.000 A 
ATOM     19  C   UNL     1       0.890   9.278  20.508  0.00  0.00    +0.000 A 
ATOM     20  C   UNL     1       1.598   8.078  20.363  0.00  0.00    +0.000 A 
BRANCH  18  21
ATOM     21  N   UNL     1       0.050  11.371  19.548  0.00  0.00    +0.000 N 
ATOM     22  H   UNL     1      -0.061  11.738  20.497  0.00  0.00    +0.000 HD
BRANCH  21  23
ATOM     23  S   UNL     1      -1.441  11.426  18.748  0.00  0.00    +0.000 S 
ATOM     24  C   UNL     1      -2.464  12.228  19.965  0.00  0.00    +0.000 C 
ATOM     25  O   UNL     1      -1.344  12.266  17.575  0.00  0.00    +0.000 OA
ATOM     26  O   UNL     1      -1.872  10.047  18.650  0.00  0.00    +0.000 OA
ENDBRANCH  21  23
ENDBRANCH  18  21
ENDBRANCH   5  15
BRANCH   1  28
ATOM     27  C   UNL     1       1.402   2.550  20.683  0.00  0.00    +0.000 C 
ATOM     28  C   UNL     1       1.710   2.711  19.207  0.00  0.00    +0.000 C 
ENDBRANCH   1  28
TORSDOF 5
ENDMDL
MODEL 7
REMARK VINA RESULT:      -7.8      0.812      1.682
REMARK  Name = 
REMARK  8 active torsions:
REMARK  status: ('A' for Active; 'I' for Inactive)
REMARK    1  A    between atoms: C_1  and  C_2
REMARK    2  A    between atoms: C_2  and  C_3
REMARK    3  A    between atoms: C_7  and  C_8
REMARK    4  A    between atoms: C_11  and  N_12
REMARK    5  A    between atoms: N_12  and  S_13
REMARK    6  A    between atoms: S_13  and  C_14
REMARK    7  A    between atoms: C_20  and  C_21
REMARK    8  A    between atoms: C_24  and  C_25
REMARK                            x       y       z     vdW  Elec       q    Type
REMARK                         _______ _______ _______ _____ _____    ______ ____
ROOT
ATOM      1  C   UNL     1       3.792   3.194  19.670  0.00  0.00    +0.000 C 
ATOM      2  O   UNL     1       4.811   2.515  19.550  0.00  0.00    +0.000 OA
ATOM      3  N   UNL     1       3.749   4.553  19.398  0.00  0.00    +0.000 N 
ATOM      4  N   UNL     1       2.654   5.314  19.712  0.00  0.00    +0.000 NA
ATOM      5  C   UNL     1       2.973   6.552  19.487  0.00  0.00    +0.000 C 
ATOM      6  C   UNL     1       4.376   6.783  18.997  0.00  0.00    +0.000 C 
ATOM      7  C   UNL     1       4.885   5.340  18.926  0.00  0.00    +0.000 C 
ENDROOT
BRANCH   7   8
ATOM      8  C   UNL     1       5.323   4.985  17.518  0.00  0.00    +0.000 A 
ATOM      9  C   UNL     1       4.362   4.707  16.535  0.00  0.00    +0.000 A 
ATOM     10  C   UNL     1       4.751   4.309  15.252  0.00  0.00    +0.000 A 
ATOM     11  C   UNL     1       6.104   4.181  14.930  0.00  0.00    +0.000 A 
ATOM     12  C   UNL     1       6.537   3.729  13.567  0.00  0.00    +0.000 C 
ATOM     13  C   UNL     1       7.067   4.479  15.901  0.00  0.00    +0.000 A 
ATOM     14  C   UNL     1       6.680   4.884  17.178  0.00  0.00    +0.000 A 
ENDBRANCH   7   8
BRANCH   5  15
ATOM     15  C   UNL     1       2.021   7.664  19.707  0.00  0.00    +0.000 A 
ATOM     16  C   UNL     1       1.320   7.712  20.921  0.00  0.00    +0.000 A 
ATOM     17  C   UNL     1       0.416   8.743  21.172  0.00  0.00    +0.000 A 
ATOM     18  C   UNL     1       0.197   9.720  20.205  0.00  0.00    +0.000 A 
ATOM     19  C   UNL     1       0.889   9.683  18.994  0.00  0.00    +0.000 A 
ATOM     20  C   UNL     1       1.804   8.653  18.742  0.00  0.00    +0.000 A 
BRANCH  18  21
ATOM     21  N   UNL     1      -0.703  10.782  20.500  0.00  0.00    +0.000 N 
ATOM     22  H   UNL     1      -1.099  11.264  19.688  0.00  0.00    +0.000 HD
BRANCH  21  23
ATOM     23  S   UNL     1      -0.200  11.926  21.640  0.00  0.00    +0.000 S 
ATOM     24  C   UNL     1      -1.216  13.323  21.210  0.00  0.00    +0.000 C 
ATOM     25  O   UNL     1      -0.537  11.479  22.973  0.00  0.00    +0.000 OA
ATOM     26  O   UNL     1       1.166  12.248  21.280  0.00  0.00    +0.000 OA
ENDBRANCH  21  23
ENDBRANCH  18  21
ENDBRANCH   5  15
BRANCH   1  28
ATOM     27  C   UNL     1       2.328   2.614  21.659  0.00  0.00    +0.000 C 
ATOM     28  C   UNL     1       2.467   2.613  20.148  0.00  0.00    +0.000 C 
ENDBRANCH   1  28
TORSDOF 5
ENDMDL
MODEL 8
REMARK VINA RESULT:      -7.8      1.320      1.721
REMARK  Name = 
REMARK  8 active torsions:
REMARK  status: ('A' for Active; 'I' for Inactive)
REMARK    1  A    between atoms: C_1  and  C_2
REMARK    2  A    between atoms: C_2  and  C_3
REMARK    3  A    between atoms: C_7  and  C_8
REMARK    4  A    between atoms: C_11  and  N_12
REMARK    5  A    between atoms: N_12  and  S_13
REMARK    6  A    between atoms: S_13  and  C_14
REMARK    7  A    between atoms: C_20  and  C_21
REMARK    8  A    between atoms: C_24  and  C_25
REMARK                            x       y       z     vdW  Elec       q    Type
REMARK                         _______ _______ _______ _____ _____    ______ ____
ROOT
ATOM      1  C   UNL     1       3.305   3.167  19.456  0.00  0.00    +0.000 C 
ATOM      2  O   UNL     1       4.242   2.371  19.405  0.00  0.00    +0.000 OA
ATOM      3  N   UNL     1       3.441   4.519  19.183  0.00  0.00    +0.000 N 
ATOM      4  N   UNL     1       2.425   5.406  19.422  0.00  0.00    +0.000 NA
ATOM      5  C   UNL     1       2.902   6.596  19.220  0.00  0.00    +0.000 C 
ATOM      6  C   UNL     1       4.352   6.656  18.826  0.00  0.00    +0.000 C 
ATOM      7  C   UNL     1       4.691   5.163  18.789  0.00  0.00    +0.000 C 
ENDROOT
BRANCH   7   8
ATOM      8  C   UNL     1       5.177   4.748  17.413  0.00  0.00    +0.000 A 
ATOM      9  C   UNL     1       6.549   4.757  17.122  0.00  0.00    +0.000 A 
ATOM     10  C   UNL     1       7.006   4.444  15.837  0.00  0.00    +0.000 A 
ATOM     11  C   UNL     1       6.102   4.120  14.823  0.00  0.00    +0.000 A 
ATOM     12  C   UNL     1       6.574   3.810  13.434  0.00  0.00    +0.000 C 
ATOM     13  C   UNL     1       4.734   4.088  15.115  0.00  0.00    +0.000 A 
ATOM     14  C   UNL     1       4.278   4.390  16.398  0.00  0.00    +0.000 A 
ENDBRANCH   7   8
BRANCH   5  15
ATOM     15  C   UNL     1       2.076   7.815  19.376  0.00  0.00    +0.000 A 
ATOM     16  C   UNL     1       1.399   8.011  20.588  0.00  0.00    +0.000 A 
ATOM     17  C   UNL     1       0.612   9.145  20.779  0.00  0.00    +0.000 A 
ATOM     18  C   UNL     1       0.486  10.079  19.755  0.00  0.00    +0.000 A 
ATOM     19  C   UNL     1       1.155   9.895  18.545  0.00  0.00    +0.000 A 
ATOM     20  C   UNL     1       1.953   8.760  18.353  0.00  0.00    +0.000 A 
BRANCH  18  21
ATOM     21  N   UNL     1      -0.293  11.247  19.988  0.00  0.00    +0.000 N 
ATOM     22  H   UNL     1      -0.656  11.354  20.939  0.00  0.00    +0.000 HD
BRANCH  21  23
ATOM     23  S   UNL     1      -1.523  11.588  18.878  0.00  0.00    +0.000 S 
ATOM     24  C   UNL     1      -2.738  12.362  19.924  0.00  0.00    +0.000 C 
ATOM     25  O   UNL     1      -1.056  12.544  17.898  0.00  0.00    +0.000 OA
ATOM     26  O   UNL     1      -2.045  10.298  18.478  0.00  0.00    +0.000 OA
ENDBRANCH  21  23
ENDBRANCH  18  21
ENDBRANCH   5  15
BRANCH   1  28
ATOM     27  C   UNL     1       1.043   2.344  18.654  0.00  0.00    +0.000 C 
ATOM     28  C   UNL     1       1.891   2.750  19.844  0.00  0.00    +0.000 C 
ENDBRANCH   1  28
TORSDOF 5
ENDMDL
MODEL 9
REMARK VINA RESULT:      -7.7      0.939      1.042
REMARK  Name = 
REMARK  8 active torsions:
REMARK  status: ('A' for Active; 'I' for Inactive)
REMARK    1  A    between atoms: C_1  and  C_2
REMARK    2  A    between atoms: C_2  and  C_3
REMARK    3  A    between atoms: C_7  and  C_8
REMARK    4  A    between atoms: C_11  and  N_12
REMARK    5  A    between atoms: N_12  and  S_13
REMARK    6  A    between atoms: S_13  and  C_14
REMARK    7  A    between atoms: C_20  and  C_21
REMARK    8  A    between atoms: C_24  and  C_25
REMARK                            x       y       z     vdW  Elec       q    Type
REMARK                         _______ _______ _______ _____ _____    ______ ____
ROOT
ATOM      1  C   UNL     1       3.575   3.261  19.529  0.00  0.00    +0.000 C 
ATOM      2  O   UNL     1       4.560   2.523  19.497  0.00  0.00    +0.000 OA
ATOM      3  N   UNL     1       3.620   4.603  19.183  0.00  0.00    +0.000 N 
ATOM      4  N   UNL     1       2.555   5.437  19.400  0.00  0.00    +0.000 NA
ATOM      5  C   UNL     1       2.952   6.641  19.125  0.00  0.00    +0.000 C 
ATOM      6  C   UNL     1       4.387   6.770  18.692  0.00  0.00    +0.000 C 
ATOM      7  C   UNL     1       4.819   5.301  18.725  0.00  0.00    +0.000 C 
ENDROOT
BRANCH   7   8
ATOM      8  C   UNL     1       5.300   4.843  17.362  0.00  0.00    +0.000 A 
ATOM      9  C   UNL     1       6.674   4.812  17.078  0.00  0.00    +0.000 A 
ATOM     10  C   UNL     1       7.130   4.460  15.803  0.00  0.00    +0.000 A 
ATOM     11  C   UNL     1       6.222   4.135  14.792  0.00  0.00    +0.000 A 
ATOM     12  C   UNL     1       6.694   3.782  13.412  0.00  0.00    +0.000 C 
ATOM     13  C   UNL     1       4.853   4.143  15.077  0.00  0.00    +0.000 A 
ATOM     14  C   UNL     1       4.398   4.485  16.350  0.00  0.00    +0.000 A 
ENDBRANCH   7   8
BRANCH   5  15
ATOM     15  C   UNL     1       2.054   7.813  19.236  0.00  0.00    +0.000 A 
ATOM     16  C   UNL     1       1.783   8.558  18.080  0.00  0.00    +0.000 A 
ATOM     17  C   UNL     1       0.941   9.667  18.138  0.00  0.00    +0.000 A 
ATOM     18  C   UNL     1       0.379  10.044  19.355  0.00  0.00    +0.000 A 
ATOM     19  C   UNL     1       0.640   9.310  20.511  0.00  0.00    +0.000 A 
ATOM     20  C   UNL     1       1.480   8.190  20.454  0.00  0.00    +0.000 A 
BRANCH  18  21
ATOM     21  N   UNL     1      -0.507  11.158  19.381  0.00  0.00    +0.000 N 
ATOM     22  H   UNL     1      -1.255  11.144  18.682  0.00  0.00    +0.000 HD
BRANCH  21  23
ATOM     23  S   UNL     1       0.191  12.698  19.425  0.00  0.00    +0.000 S 
ATOM     24  C   UNL     1      -0.631  13.418  20.830  0.00  0.00    +0.000 C 
ATOM     25  O   UNL     1       1.607  12.593  19.699  0.00  0.00    +0.000 OA
ATOM     26  O   UNL     1      -0.295  13.372  18.239  0.00  0.00    +0.000 OA
ENDBRANCH  21  23
ENDBRANCH  18  21
ENDBRANCH   5  15
BRANCH   1  28
ATOM     27  C   UNL     1       2.058   2.688  21.481  0.00  0.00    +0.000 C 
ATOM     28  C   UNL     1       2.199   2.779  19.973  0.00  0.00    +0.000 C 
ENDBRANCH   1  28
TORSDOF 5
ENDMDL
