MODEL 1
REMARK VINA RESULT:      -7.1      0.000      0.000
REMARK  Name = 
REMARK  11 active torsions:
REMARK  status: ('A' for Active; 'I' for Inactive)
REMARK    1  A    between atoms: C_1  and  C_2
REMARK    2  A    between atoms: C_2  and  C_3
REMARK    3  A    between atoms: C_2  and  N_4
REMARK    4  A    between atoms: N_4  and  C_5
REMARK    5  A    between atoms: N_4  and  C_19
REMARK    6  A    between atoms: C_5  and  C_6
REMARK    7  A    between atoms: C_6  and  C_7
REMARK    8  A    between atoms: C_7  and  O_8
REMARK    9  A    between atoms: C_7  and  C_9
REMARK   10  A    between atoms: C_19  and  C_20
REMARK   11  A    between atoms: C_23  and  C_24
REMARK                            x       y       z     vdW  Elec       q    Type
REMARK                         _______ _______ _______ _____ _____    ______ ____
ROOT
ATOM      1  C   UNL     1       6.300   5.523  16.059  0.00  0.00    +0.000 C 
ENDROOT
BRANCH   1   2
ATOM      2  N   UNL     1       6.189   6.578  17.106  0.00  0.00    +0.000 NA
BRANCH   2   4
ATOM      3  C   UNL     1       7.708   8.545  17.742  0.00  0.00    +0.000 C 
ATOM      4  C   UNL     1       7.522   7.024  17.609  0.00  0.00    +0.000 C 
ATOM      5  C   UNL     1       7.924   6.342  18.927  0.00  0.00    +0.000 C 
ENDBRANCH   2   4
BRANCH   2   6
ATOM      6  C   UNL     1       5.311   6.113  18.203  0.00  0.00    +0.000 C 
BRANCH   6   7
ATOM      7  C   UNL     1       4.001   6.849  18.394  0.00  0.00    +0.000 A 
ATOM      8  C   UNL     1       3.238   6.679  19.558  0.00  0.00    +0.000 A 
ATOM      9  C   UNL     1       2.125   7.489  19.801  0.00  0.00    +0.000 A 
ATOM     10  C   UNL     1       1.768   8.482  18.884  0.00  0.00    +0.000 A 
ATOM     11  C   UNL     1       2.513   8.645  17.712  0.00  0.00    +0.000 A 
ATOM     12  C   UNL     1       3.619   7.829  17.469  0.00  0.00    +0.000 A 
BRANCH  10  13
ATOM     13  C   UNL     1       0.661   9.348  19.156  0.00  0.00    +0.000 C 
ATOM     14  N   UNL     1      -0.240  10.047  19.390  0.00  0.00    +0.000 NA
ENDBRANCH  10  13
ENDBRANCH   6   7
ENDBRANCH   2   6
ENDBRANCH   1   2
BRANCH   1  15
ATOM     15  C   UNL     1       4.952   5.053  15.484  0.00  0.00    +0.000 C 
BRANCH  15  16
ATOM     16  C   UNL     1       4.630   3.596  15.847  0.00  0.00    +0.000 C 
BRANCH  16  17
ATOM     17  C   UNL     1       3.640   3.526  16.996  0.00  0.00    +0.000 A 
ATOM     18  C   UNL     1       2.330   3.987  16.824  0.00  0.00    +0.000 A 
ATOM     19  C   UNL     1       1.419   3.964  17.885  0.00  0.00    +0.000 A 
ATOM     20  C   UNL     1       1.794   3.475  19.147  0.00  0.00    +0.000 A 
ATOM     21  C   UNL     1       0.892   3.438  20.223  0.00  0.00    +0.000 A 
ATOM     22  C   UNL     1       1.288   2.947  21.469  0.00  0.00    +0.000 A 
ATOM     23  C   UNL     1       2.590   2.496  21.659  0.00  0.00    +0.000 A 
ATOM     24  C   UNL     1       3.497   2.526  20.600  0.00  0.00    +0.000 A 
ATOM     25  C   UNL     1       3.111   3.007  19.337  0.00  0.00    +0.000 A 
ATOM     26  C   UNL     1       4.013   3.033  18.261  0.00  0.00    +0.000 A 
ENDBRANCH  16  17
BRANCH  16  27
ATOM     27  O   UNL     1       5.835   2.912  16.192  0.00  0.00    +0.000 OA
ATOM     28  H   UNL     1       6.413   3.534  16.665  0.00  0.00    +0.000 HD
ENDBRANCH  16  27
ENDBRANCH  15  16
ENDBRANCH   1  15
TORSDOF 9
ENDMDL
MODEL 2
REMARK VINA RESULT:      -7.0      2.512      6.756
REMARK  Name = 
REMARK  11 active torsions:
REMARK  status: ('A' for Active; 'I' for Inactive)
REMARK    1  A    between atoms: C_1  and  C_2
REMARK    2  A    between atoms: C_2  and  C_3
REMARK    3  A    between atoms: C_2  and  N_4
REMARK    4  A    between atoms: N_4  and  C_5
REMARK    5  A    between atoms: N_4  and  C_19
REMARK    6  A    between atoms: C_5  and  C_6
REMARK    7  A    between atoms: C_6  and  C_7
REMARK    8  A    between atoms: C_7  and  O_8
REMARK    9  A    between atoms: C_7  and  C_9
REMARK   10  A    between atoms: C_19  and  C_20
REMARK   11  A    between atoms: C_23  and  C_24
REMARK                            x       y       z     vdW  Elec       q    Type
REMARK                         _______ _______ _______ _____ _____    ______ ____
ROOT
ATOM      1  C   UNL     1       2.740   5.295  19.439  0.00  0.00    +0.000 C 
ENDROOT
BRANCH   1   2
ATOM      2  N   UNL     1       2.870   3.878  19.000  0.00  0.00    +0.000 NA
BRANCH   2   4
ATOM      3  C   UNL     1       1.965   3.381  21.348  0.00  0.00    +0.000 C 
ATOM      4  C   UNL     1       2.119   2.937  19.884  0.00  0.00    +0.000 C 
ATOM      5  C   UNL     1       0.742   2.554  19.318  0.00  0.00    +0.000 C 
ENDBRANCH   2   4
BRANCH   2   6
ATOM      6  C   UNL     1       4.299   3.511  18.889  0.00  0.00    +0.000 C 
BRANCH   6   7
ATOM      7  C   UNL     1       5.073   4.104  17.729  0.00  0.00    +0.000 A 
ATOM      8  C   UNL     1       6.373   4.599  17.903  0.00  0.00    +0.000 A 
ATOM      9  C   UNL     1       7.140   4.982  16.799  0.00  0.00    +0.000 A 
ATOM     10  C   UNL     1       6.615   4.868  15.508  0.00  0.00    +0.000 A 
ATOM     11  C   UNL     1       5.313   4.393  15.328  0.00  0.00    +0.000 A 
ATOM     12  C   UNL     1       4.547   4.019  16.433  0.00  0.00    +0.000 A 
BRANCH  10  13
ATOM     13  C   UNL     1       7.417   5.209  14.372  0.00  0.00    +0.000 C 
ATOM     14  N   UNL     1       8.062   5.498  13.447  0.00  0.00    +0.000 NA
ENDBRANCH  10  13
ENDBRANCH   6   7
ENDBRANCH   2   6
ENDBRANCH   1   2
BRANCH   1  15
ATOM     15  C   UNL     1       2.079   6.225  18.406  0.00  0.00    +0.000 C 
BRANCH  15  16
ATOM     16  C   UNL     1       2.649   7.651  18.442  0.00  0.00    +0.000 C 
BRANCH  16  17
ATOM     17  C   UNL     1       1.695   8.602  19.142  0.00  0.00    +0.000 A 
ATOM     18  C   UNL     1       1.111   9.659  18.434  0.00  0.00    +0.000 A 
ATOM     19  C   UNL     1       0.261  10.565  19.077  0.00  0.00    +0.000 A 
ATOM     20  C   UNL     1      -0.031  10.436  20.444  0.00  0.00    +0.000 A 
ATOM     21  C   UNL     1      -0.887  11.332  21.105  0.00  0.00    +0.000 A 
ATOM     22  C   UNL     1      -1.163  11.183  22.466  0.00  0.00    +0.000 A 
ATOM     23  C   UNL     1      -0.581  10.144  23.185  0.00  0.00    +0.000 A 
ATOM     24  C   UNL     1       0.271   9.246  22.543  0.00  0.00    +0.000 A 
ATOM     25  C   UNL     1       0.549   9.376  21.172  0.00  0.00    +0.000 A 
ATOM     26  C   UNL     1       1.398   8.472  20.512  0.00  0.00    +0.000 A 
ENDBRANCH  16  17
BRANCH  16  27
ATOM     27  O   UNL     1       2.900   8.098  17.108  0.00  0.00    +0.000 OA
ATOM     28  H   UNL     1       3.446   8.900  17.154  0.00  0.00    +0.000 HD
ENDBRANCH  16  27
ENDBRANCH  15  16
ENDBRANCH   1  15
TORSDOF 9
ENDMDL
MODEL 3
REMARK VINA RESULT:      -6.9      2.557      6.810
REMARK  Name = 
REMARK  11 active torsions:
REMARK  status: ('A' for Active; 'I' for Inactive)
REMARK    1  A    between atoms: C_1  and  C_2
REMARK    2  A    between atoms: C_2  and  C_3
REMARK    3  A    between atoms: C_2  and  N_4
REMARK    4  A    between atoms: N_4  and  C_5
REMARK    5  A    between atoms: N_4  and  C_19
REMARK    6  A    between atoms: C_5  and  C_6
REMARK    7  A    between atoms: C_6  and  C_7
REMARK    8  A    between atoms: C_7  and  O_8
REMARK    9  A    between atoms: C_7  and  C_9
REMARK   10  A    between atoms: C_19  and  C_20
REMARK   11  A    between atoms: C_23  and  C_24
REMARK                            x       y       z     vdW  Elec       q    Type
REMARK                         _______ _______ _______ _____ _____    ______ ____
ROOT
ATOM      1  C   UNL     1       1.914   4.853  19.288  0.00  0.00    +0.000 C 
ENDROOT
BRANCH   1   2
ATOM      2  N   UNL     1       2.809   3.847  18.650  0.00  0.00    +0.000 NA
BRANCH   2   4
ATOM      3  C   UNL     1       1.059   1.993  18.935  0.00  0.00    +0.000 C 
ATOM      4  C   UNL     1       2.516   2.455  19.106  0.00  0.00    +0.000 C 
ATOM      5  C   UNL     1       3.460   1.411  18.487  0.00  0.00    +0.000 C 
ENDBRANCH   2   4
BRANCH   2   6
ATOM      6  C   UNL     1       4.224   4.215  18.872  0.00  0.00    +0.000 C 
BRANCH   6   7
ATOM      7  C   UNL     1       5.106   4.327  17.645  0.00  0.00    +0.000 A 
ATOM      8  C   UNL     1       4.568   4.222  16.354  0.00  0.00    +0.000 A 
ATOM      9  C   UNL     1       5.356   4.498  15.233  0.00  0.00    +0.000 A 
ATOM     10  C   UNL     1       6.689   4.889  15.392  0.00  0.00    +0.000 A 
ATOM     11  C   UNL     1       7.237   4.978  16.675  0.00  0.00    +0.000 A 
ATOM     12  C   UNL     1       6.450   4.694  17.792  0.00  0.00    +0.000 A 
BRANCH  10  13
ATOM     13  C   UNL     1       7.482   5.224  14.248  0.00  0.00    +0.000 C 
ATOM     14  N   UNL     1       8.132   5.508  13.326  0.00  0.00    +0.000 NA
ENDBRANCH  10  13
ENDBRANCH   6   7
ENDBRANCH   2   6
ENDBRANCH   1   2
BRANCH   1  15
ATOM     15  C   UNL     1       2.648   6.054  19.910  0.00  0.00    +0.000 C 
BRANCH  15  16
ATOM     16  C   UNL     1       2.643   7.290  18.998  0.00  0.00    +0.000 C 
BRANCH  16  17
ATOM     17  C   UNL     1       1.715   8.364  19.539  0.00  0.00    +0.000 A 
ATOM     18  C   UNL     1       1.320   9.427  18.720  0.00  0.00    +0.000 A 
ATOM     19  C   UNL     1       0.497  10.444  19.217  0.00  0.00    +0.000 A 
ATOM     20  C   UNL     1       0.046  10.421  20.546  0.00  0.00    +0.000 A 
ATOM     21  C   UNL     1      -0.785  11.430  21.062  0.00  0.00    +0.000 A 
ATOM     22  C   UNL     1      -1.223  11.385  22.387  0.00  0.00    +0.000 A 
ATOM     23  C   UNL     1      -0.828  10.340  23.217  0.00  0.00    +0.000 A 
ATOM     24  C   UNL     1      -0.003   9.332  22.719  0.00  0.00    +0.000 A 
ATOM     25  C   UNL     1       0.436   9.356  21.385  0.00  0.00    +0.000 A 
ATOM     26  C   UNL     1       1.259   8.341  20.870  0.00  0.00    +0.000 A 
ENDBRANCH  16  17
BRANCH  16  27
ATOM     27  O   UNL     1       2.240   6.908  17.681  0.00  0.00    +0.000 OA
ATOM     28  H   UNL     1       2.407   7.655  17.084  0.00  0.00    +0.000 HD
ENDBRANCH  16  27
ENDBRANCH  15  16
ENDBRANCH   1  15
TORSDOF 9
ENDMDL
MODEL 4
REMARK VINA RESULT:      -6.8      2.441      6.662
REMARK  Name = 
REMARK  11 active torsions:
REMARK  status: ('A' for Active; 'I' for Inactive)
REMARK    1  A    between atoms: C_1  and  C_2
REMARK    2  A    between atoms: C_2  and  C_3
REMARK    3  A    between atoms: C_2  and  N_4
REMARK    4  A    between atoms: N_4  and  C_5
REMARK    5  A    between atoms: N_4  and  C_19
REMARK    6  A    between atoms: C_5  and  C_6
REMARK    7  A    between atoms: C_6  and  C_7
REMARK    8  A    between atoms: C_7  and  O_8
REMARK    9  A    between atoms: C_7  and  C_9
REMARK   10  A    between atoms: C_19  and  C_20
REMARK   11  A    between atoms: C_23  and  C_24
REMARK                            x       y       z     vdW  Elec       q    Type
REMARK                         _______ _______ _______ _____ _____    ______ ____
ROOT
ATOM      1  C   UNL     1       2.094   4.943  19.331  0.00  0.00    +0.000 C 
ENDROOT
BRANCH   1   2
ATOM      2  N   UNL     1       2.917   3.740  19.023  0.00  0.00    +0.000 NA
BRANCH   2   4
ATOM      3  C   UNL     1       3.378   2.269  21.073  0.00  0.00    +0.000 C 
ATOM      4  C   UNL     1       2.514   2.552  19.832  0.00  0.00    +0.000 C 
ATOM      5  C   UNL     1       1.031   2.579  20.237  0.00  0.00    +0.000 C 
ENDBRANCH   2   4
BRANCH   2   6
ATOM      6  C   UNL     1       4.354   4.056  19.182  0.00  0.00    +0.000 C 
BRANCH   6   7
ATOM      7  C   UNL     1       5.174   4.186  17.915  0.00  0.00    +0.000 A 
ATOM      8  C   UNL     1       4.589   4.017  16.652  0.00  0.00    +0.000 A 
ATOM      9  C   UNL     1       5.310   4.307  15.491  0.00  0.00    +0.000 A 
ATOM     10  C   UNL     1       6.624   4.777  15.582  0.00  0.00    +0.000 A 
ATOM     11  C   UNL     1       7.221   4.931  16.837  0.00  0.00    +0.000 A 
ATOM     12  C   UNL     1       6.500   4.631  17.994  0.00  0.00    +0.000 A 
BRANCH  10  13
ATOM     13  C   UNL     1       7.347   5.127  14.397  0.00  0.00    +0.000 C 
ATOM     14  N   UNL     1       7.922   5.413  13.426  0.00  0.00    +0.000 NA
ENDBRANCH  10  13
ENDBRANCH   6   7
ENDBRANCH   2   6
ENDBRANCH   1   2
BRANCH   1  15
ATOM     15  C   UNL     1       2.078   6.006  18.217  0.00  0.00    +0.000 C 
BRANCH  15  16
ATOM     16  C   UNL     1       2.818   7.292  18.615  0.00  0.00    +0.000 C 
BRANCH  16  17
ATOM     17  C   UNL     1       1.863   8.307  19.217  0.00  0.00    +0.000 A 
ATOM     18  C   UNL     1       1.338   9.334  18.423  0.00  0.00    +0.000 A 
ATOM     19  C   UNL     1       0.488  10.299  18.974  0.00  0.00    +0.000 A 
ATOM     20  C   UNL     1       0.136  10.260  20.332  0.00  0.00    +0.000 A 
ATOM     21  C   UNL     1      -0.721  11.216  20.902  0.00  0.00    +0.000 A 
ATOM     22  C   UNL     1      -1.057  11.156  22.256  0.00  0.00    +0.000 A 
ATOM     23  C   UNL     1      -0.535  10.148  23.060  0.00  0.00    +0.000 A 
ATOM     24  C   UNL     1       0.318   9.191  22.509  0.00  0.00    +0.000 A 
ATOM     25  C   UNL     1       0.656   9.231  21.146  0.00  0.00    +0.000 A 
ATOM     26  C   UNL     1       1.506   8.268  20.578  0.00  0.00    +0.000 A 
ENDBRANCH  16  17
BRANCH  16  27
ATOM     27  O   UNL     1       3.466   7.843  17.468  0.00  0.00    +0.000 OA
ATOM     28  H   UNL     1       3.134   7.383  16.680  0.00  0.00    +0.000 HD
ENDBRANCH  16  27
ENDBRANCH  15  16
ENDBRANCH   1  15
TORSDOF 9
ENDMDL
MODEL 5
REMARK VINA RESULT:      -6.7      2.364      6.348
REMARK  Name = 
REMARK  11 active torsions:
REMARK  status: ('A' for Active; 'I' for Inactive)
REMARK    1  A    between atoms: C_1  and  C_2
REMARK    2  A    between atoms: C_2  and  C_3
REMARK    3  A    between atoms: C_2  and  N_4
REMARK    4  A    between atoms: N_4  and  C_5
REMARK    5  A    between atoms: N_4  and  C_19
REMARK    6  A    between atoms: C_5  and  C_6
REMARK    7  A    between atoms: C_6  and  C_7
REMARK    8  A    between atoms: C_7  and  O_8
REMARK    9  A    between atoms: C_7  and  C_9
REMARK   10  A    between atoms: C_19  and  C_20
REMARK   11  A    between atoms: C_23  and  C_24
REMARK                            x       y       z     vdW  Elec       q    Type
REMARK                         _______ _______ _______ _____ _____    ______ ____
ROOT
ATOM      1  C   UNL     1       3.454   4.521  20.125  0.00  0.00    +0.000 C 
ENDROOT
BRANCH   1   2
ATOM      2  N   UNL     1       3.814   4.130  18.733  0.00  0.00    +0.000 NA
BRANCH   2   4
ATOM      3  C   UNL     1       2.173   2.249  19.321  0.00  0.00    +0.000 C 
ATOM      4  C   UNL     1       3.049   2.937  18.261  0.00  0.00    +0.000 C 
ATOM      5  C   UNL     1       2.205   3.224  17.008  0.00  0.00    +0.000 C 
ENDBRANCH   2   4
BRANCH   2   6
ATOM      6  C   UNL     1       5.276   3.927  18.626  0.00  0.00    +0.000 C 
BRANCH   6   7
ATOM      7  C   UNL     1       6.118   5.146  18.313  0.00  0.00    +0.000 A 
ATOM      8  C   UNL     1       5.682   6.113  17.397  0.00  0.00    +0.000 A 
ATOM      9  C   UNL     1       6.381   7.314  17.245  0.00  0.00    +0.000 A 
ATOM     10  C   UNL     1       7.522   7.562  18.015  0.00  0.00    +0.000 A 
ATOM     11  C   UNL     1       7.974   6.595  18.917  0.00  0.00    +0.000 A 
ATOM     12  C   UNL     1       7.278   5.393  19.060  0.00  0.00    +0.000 A 
BRANCH  10  13
ATOM     13  C   UNL     1       8.209   8.813  17.900  0.00  0.00    +0.000 C 
ATOM     14  N   UNL     1       8.763   9.831  17.794  0.00  0.00    +0.000 NA
ENDBRANCH  10  13
ENDBRANCH   6   7
ENDBRANCH   2   6
ENDBRANCH   1   2
BRANCH   1  15
ATOM     15  C   UNL     1       2.347   5.586  20.221  0.00  0.00    +0.000 C 
BRANCH  15  16
ATOM     16  C   UNL     1       2.642   6.826  19.363  0.00  0.00    +0.000 C 
BRANCH  16  17
ATOM     17  C   UNL     1       1.771   7.998  19.780  0.00  0.00    +0.000 A 
ATOM     18  C   UNL     1       1.511   9.036  18.877  0.00  0.00    +0.000 A 
ATOM     19  C   UNL     1       0.743  10.140  19.261  0.00  0.00    +0.000 A 
ATOM     20  C   UNL     1       0.212  10.234  20.557  0.00  0.00    +0.000 A 
ATOM     21  C   UNL     1      -0.567  11.332  20.960  0.00  0.00    +0.000 A 
ATOM     22  C   UNL     1      -1.085  11.403  22.254  0.00  0.00    +0.000 A 
ATOM     23  C   UNL     1      -0.826  10.384  23.166  0.00  0.00    +0.000 A 
ATOM     24  C   UNL     1      -0.054   9.288  22.781  0.00  0.00    +0.000 A 
ATOM     25  C   UNL     1       0.465   9.196  21.479  0.00  0.00    +0.000 A 
ATOM     26  C   UNL     1       1.235   8.093  21.078  0.00  0.00    +0.000 A 
ENDBRANCH  16  17
BRANCH  16  27
ATOM     27  O   UNL     1       2.423   6.515  17.986  0.00  0.00    +0.000 OA
ATOM     28  H   UNL     1       1.511   6.758  17.760  0.00  0.00    +0.000 HD
ENDBRANCH  16  27
ENDBRANCH  15  16
ENDBRANCH   1  15
TORSDOF 9
ENDMDL
MODEL 6
REMARK VINA RESULT:      -6.7      2.751      6.979
REMARK  Name = 
REMARK  11 active torsions:
REMARK  status: ('A' for Active; 'I' for Inactive)
REMARK    1  A    between atoms: C_1  and  C_2
REMARK    2  A    between atoms: C_2  and  C_3
REMARK    3  A    between atoms: C_2  and  N_4
REMARK    4  A    between atoms: N_4  and  C_5
REMARK    5  A    between atoms: N_4  and  C_19
REMARK    6  A    between atoms: C_5  and  C_6
REMARK    7  A    between atoms: C_6  and  C_7
REMARK    8  A    between atoms: C_7  and  O_8
REMARK    9  A    between atoms: C_7  and  C_9
REMARK   10  A    between atoms: C_19  and  C_20
REMARK   11  A    between atoms: C_23  and  C_24
REMARK                            x       y       z     vdW  Elec       q    Type
REMARK                         _______ _______ _______ _____ _____    ______ ____
ROOT
ATOM      1  C   UNL     1       3.312   5.962  18.948  0.00  0.00    +0.000 C 
ENDROOT
BRANCH   1   2
ATOM      2  N   UNL     1       3.082   4.491  19.010  0.00  0.00    +0.000 NA
BRANCH   2   4
ATOM      3  C   UNL     1       1.005   4.034  20.444  0.00  0.00    +0.000 C 
ATOM      4  C   UNL     1       2.539   4.056  20.331  0.00  0.00    +0.000 C 
ATOM      5  C   UNL     1       3.105   2.704  20.796  0.00  0.00    +0.000 C 
ENDBRANCH   2   4
BRANCH   2   6
ATOM      6  C   UNL     1       4.324   3.769  18.658  0.00  0.00    +0.000 C 
BRANCH   6   7
ATOM      7  C   UNL     1       5.118   4.299  17.481  0.00  0.00    +0.000 A 
ATOM      8  C   UNL     1       6.415   4.803  17.650  0.00  0.00    +0.000 A 
ATOM      9  C   UNL     1       7.200   5.127  16.540  0.00  0.00    +0.000 A 
ATOM     10  C   UNL     1       6.697   4.943  15.248  0.00  0.00    +0.000 A 
ATOM     11  C   UNL     1       5.398   4.458  15.072  0.00  0.00    +0.000 A 
ATOM     12  C   UNL     1       4.613   4.144  16.183  0.00  0.00    +0.000 A 
BRANCH  10  13
ATOM     13  C   UNL     1       7.518   5.224  14.109  0.00  0.00    +0.000 C 
ATOM     14  N   UNL     1       8.182   5.465  13.184  0.00  0.00    +0.000 NA
ENDBRANCH  10  13
ENDBRANCH   6   7
ENDBRANCH   2   6
ENDBRANCH   1   2
BRANCH   1  15
ATOM     15  C   UNL     1       2.164   6.759  18.305  0.00  0.00    +0.000 C 
BRANCH  15  16
ATOM     16  C   UNL     1       2.329   8.277  18.475  0.00  0.00    +0.000 C 
BRANCH  16  17
ATOM     17  C   UNL     1       1.551   8.780  19.678  0.00  0.00    +0.000 A 
ATOM     18  C   UNL     1       1.528   8.033  20.862  0.00  0.00    +0.000 A 
ATOM     19  C   UNL     1       0.783   8.465  21.964  0.00  0.00    +0.000 A 
ATOM     20  C   UNL     1       0.045   9.658  21.914  0.00  0.00    +0.000 A 
ATOM     21  C   UNL     1      -0.703  10.112  23.012  0.00  0.00    +0.000 A 
ATOM     22  C   UNL     1      -1.429  11.303  22.939  0.00  0.00    +0.000 A 
ATOM     23  C   UNL     1      -1.424  12.050  21.765  0.00  0.00    +0.000 A 
ATOM     24  C   UNL     1      -0.686  11.612  20.665  0.00  0.00    +0.000 A 
ATOM     25  C   UNL     1       0.058  10.423  20.728  0.00  0.00    +0.000 A 
ATOM     26  C   UNL     1       0.813   9.977  19.630  0.00  0.00    +0.000 A 
ENDBRANCH  16  17
BRANCH  16  27
ATOM     27  O   UNL     1       1.888   8.940  17.290  0.00  0.00    +0.000 OA
ATOM     28  H   UNL     1       1.908   8.302  16.558  0.00  0.00    +0.000 HD
ENDBRANCH  16  27
ENDBRANCH  15  16
ENDBRANCH   1  15
TORSDOF 9
ENDMDL
MODEL 7
REMARK VINA RESULT:      -6.6      2.627      6.738
REMARK  Name = 
REMARK  11 active torsions:
REMARK  status: ('A' for Active; 'I' for Inactive)
REMARK    1  A    between atoms: C_1  and  C_2
REMARK    2  A    between atoms: C_2  and  C_3
REMARK    3  A    between atoms: C_2  and  N_4
REMARK    4  A    between atoms: N_4  and  C_5
REMARK    5  A    between atoms: N_4  and  C_19
REMARK    6  A    between atoms: C_5  and  C_6
REMARK    7  A    between atoms: C_6  and  C_7
REMARK    8  A    between atoms: C_7  and  O_8
REMARK    9  A    between atoms: C_7  and  C_9
REMARK   10  A    between atoms: C_19  and  C_20
REMARK   11  A    between atoms: C_23  and  C_24
REMARK                            x       y       z     vdW  Elec       q    Type
REMARK                         _______ _______ _______ _____ _____    ______ ____
ROOT
ATOM      1  C   UNL     1       3.219   4.713  20.435  0.00  0.00    +0.000 C 
ENDROOT
BRANCH   1   2
ATOM      2  N   UNL     1       3.856   4.379  19.131  0.00  0.00    +0.000 NA
BRANCH   2   4
ATOM      3  C   UNL     1       4.298   2.114  20.250  0.00  0.00    +0.000 C 
ATOM      4  C   UNL     1       4.058   2.910  18.956  0.00  0.00    +0.000 C 
ATOM      5  C   UNL     1       2.934   2.242  18.147  0.00  0.00    +0.000 C 
ENDBRANCH   2   4
BRANCH   2   6
ATOM      6  C   UNL     1       5.120   5.133  18.977  0.00  0.00    +0.000 C 
BRANCH   6   7
ATOM      7  C   UNL     1       5.726   5.182  17.589  0.00  0.00    +0.000 A 
ATOM      8  C   UNL     1       6.982   4.616  17.327  0.00  0.00    +0.000 A 
ATOM      9  C   UNL     1       7.454   4.513  16.016  0.00  0.00    +0.000 A 
ATOM     10  C   UNL     1       6.670   4.970  14.951  0.00  0.00    +0.000 A 
ATOM     11  C   UNL     1       5.425   5.553  15.207  0.00  0.00    +0.000 A 
ATOM     12  C   UNL     1       4.961   5.662  16.518  0.00  0.00    +0.000 A 
BRANCH  10  13
ATOM     13  C   UNL     1       7.128   4.817  13.603  0.00  0.00    +0.000 C 
ATOM     14  N   UNL     1       7.486   4.695  12.503  0.00  0.00    +0.000 NA
ENDBRANCH  10  13
ENDBRANCH   6   7
ENDBRANCH   2   6
ENDBRANCH   1   2
BRANCH   1  15
ATOM     15  C   UNL     1       2.046   5.704  20.336  0.00  0.00    +0.000 C 
BRANCH  15  16
ATOM     16  C   UNL     1       2.368   6.916  19.449  0.00  0.00    +0.000 C 
BRANCH  16  17
ATOM     17  C   UNL     1       1.565   8.133  19.874  0.00  0.00    +0.000 A 
ATOM     18  C   UNL     1       1.428   9.222  19.006  0.00  0.00    +0.000 A 
ATOM     19  C   UNL     1       0.724  10.365  19.400  0.00  0.00    +0.000 A 
ATOM     20  C   UNL     1       0.134  10.447  20.671  0.00  0.00    +0.000 A 
ATOM     21  C   UNL     1      -0.582  11.583  21.083  0.00  0.00    +0.000 A 
ATOM     22  C   UNL     1      -1.161  11.641  22.353  0.00  0.00    +0.000 A 
ATOM     23  C   UNL     1      -1.024  10.569  23.230  0.00  0.00    +0.000 A 
ATOM     24  C   UNL     1      -0.315   9.435  22.837  0.00  0.00    +0.000 A 
ATOM     25  C   UNL     1       0.263   9.357  21.559  0.00  0.00    +0.000 A 
ATOM     26  C   UNL     1       0.971   8.215  21.148  0.00  0.00    +0.000 A 
ENDBRANCH  16  17
BRANCH  16  27
ATOM     27  O   UNL     1       2.092   6.596  18.085  0.00  0.00    +0.000 OA
ATOM     28  H   UNL     1       2.872   6.827  17.554  0.00  0.00    +0.000 HD
ENDBRANCH  16  27
ENDBRANCH  15  16
ENDBRANCH   1  15
TORSDOF 9
ENDMDL
MODEL 8
REMARK VINA RESULT:      -6.6      3.255      7.787
REMARK  Name = 
REMARK  11 active torsions:
REMARK  status: ('A' for Active; 'I' for Inactive)
REMARK    1  A    between atoms: C_1  and  C_2
REMARK    2  A    between atoms: C_2  and  C_3
REMARK    3  A    between atoms: C_2  and  N_4
REMARK    4  A    between atoms: N_4  and  C_5
REMARK    5  A    between atoms: N_4  and  C_19
REMARK    6  A    between atoms: C_5  and  C_6
REMARK    7  A    between atoms: C_6  and  C_7
REMARK    8  A    between atoms: C_7  and  O_8
REMARK    9  A    between atoms: C_7  and  C_9
REMARK   10  A    between atoms: C_19  and  C_20
REMARK   11  A    between atoms: C_23  and  C_24
REMARK                            x       y       z     vdW  Elec       q    Type
REMARK                         _______ _______ _______ _____ _____    ______ ____
ROOT
ATOM      1  C   UNL     1       1.953   5.711  20.927  0.00  0.00    +0.000 C 
ENDROOT
BRANCH   1   2
ATOM      2  N   UNL     1       2.018   4.637  19.896  0.00  0.00    +0.000 NA
BRANCH   2   4
ATOM      3  C   UNL     1       0.826   2.554  18.990  0.00  0.00    +0.000 C 
ATOM      4  C   UNL     1       1.030   3.545  20.148  0.00  0.00    +0.000 C 
ATOM      5  C   UNL     1       1.314   2.768  21.444  0.00  0.00    +0.000 C 
ENDBRANCH   2   4
BRANCH   2   6
ATOM      6  C   UNL     1       3.400   4.118  19.791  0.00  0.00    +0.000 C 
BRANCH   6   7
ATOM      7  C   UNL     1       4.176   4.478  18.541  0.00  0.00    +0.000 A 
ATOM      8  C   UNL     1       4.941   5.651  18.475  0.00  0.00    +0.000 A 
ATOM      9  C   UNL     1       5.786   5.887  17.388  0.00  0.00    +0.000 A 
ATOM     10  C   UNL     1       5.880   4.946  16.357  0.00  0.00    +0.000 A 
ATOM     11  C   UNL     1       5.106   3.783  16.406  0.00  0.00    +0.000 A 
ATOM     12  C   UNL     1       4.256   3.555  17.490  0.00  0.00    +0.000 A 
BRANCH  10  13
ATOM     13  C   UNL     1       6.786   5.159  15.268  0.00  0.00    +0.000 C 
ATOM     14  N   UNL     1       7.527   5.344  14.390  0.00  0.00    +0.000 NA
ENDBRANCH  10  13
ENDBRANCH   6   7
ENDBRANCH   2   6
ENDBRANCH   1   2
BRANCH   1  15
ATOM     15  C   UNL     1       0.902   6.799  20.647  0.00  0.00    +0.000 C 
BRANCH  15  16
ATOM     16  C   UNL     1       1.513   8.206  20.566  0.00  0.00    +0.000 C 
BRANCH  16  17
ATOM     17  C   UNL     1       0.619   9.230  21.243  0.00  0.00    +0.000 A 
ATOM     18  C   UNL     1       0.387   9.159  22.621  0.00  0.00    +0.000 A 
ATOM     19  C   UNL     1      -0.465  10.072  23.250  0.00  0.00    +0.000 A 
ATOM     20  C   UNL     1      -1.106  11.083  22.518  0.00  0.00    +0.000 A 
ATOM     21  C   UNL     1      -1.961  12.013  23.132  0.00  0.00    +0.000 A 
ATOM     22  C   UNL     1      -2.587  13.012  22.382  0.00  0.00    +0.000 A 
ATOM     23  C   UNL     1      -2.375  13.088  21.009  0.00  0.00    +0.000 A 
ATOM     24  C   UNL     1      -1.530  12.171  20.384  0.00  0.00    +0.000 A 
ATOM     25  C   UNL     1      -0.884  11.169  21.127  0.00  0.00    +0.000 A 
ATOM     26  C   UNL     1      -0.023  10.247  20.510  0.00  0.00    +0.000 A 
ENDBRANCH  16  17
BRANCH  16  27
ATOM     27  O   UNL     1       1.719   8.559  19.198  0.00  0.00    +0.000 OA
ATOM     28  H   UNL     1       1.045   8.109  18.663  0.00  0.00    +0.000 HD
ENDBRANCH  16  27
ENDBRANCH  15  16
ENDBRANCH   1  15
TORSDOF 9
ENDMDL
MODEL 9
REMARK VINA RESULT:      -6.5      2.413      6.936
REMARK  Name = 
REMARK  11 active torsions:
REMARK  status: ('A' for Active; 'I' for Inactive)
REMARK    1  A    between atoms: C_1  and  C_2
REMARK    2  A    between atoms: C_2  and  C_3
REMARK    3  A    between atoms: C_2  and  N_4
REMARK    4  A    between atoms: N_4  and  C_5
REMARK    5  A    between atoms: N_4  and  C_19
REMARK    6  A    between atoms: C_5  and  C_6
REMARK    7  A    between atoms: C_6  and  C_7
REMARK    8  A    between atoms: C_7  and  O_8
REMARK    9  A    between atoms: C_7  and  C_9
REMARK   10  A    between atoms: C_19  and  C_20
REMARK   11  A    between atoms: C_23  and  C_24
REMARK                            x       y       z     vdW  Elec       q    Type
REMARK                         _______ _______ _______ _____ _____    ______ ____
ROOT
ATOM      1  C   UNL     1       2.776   4.864  20.202  0.00  0.00    +0.000 C 
ENDROOT
BRANCH   1   2
ATOM      2  N   UNL     1       2.887   3.717  19.259  0.00  0.00    +0.000 NA
BRANCH   2   4
ATOM      3  C   UNL     1       1.558   2.577  21.133  0.00  0.00    +0.000 C 
ATOM      4  C   UNL     1       2.047   2.555  19.675  0.00  0.00    +0.000 C 
ATOM      5  C   UNL     1       0.852   2.314  18.738  0.00  0.00    +0.000 C 
ENDBRANCH   2   4
BRANCH   2   6
ATOM      6  C   UNL     1       4.307   3.339  19.086  0.00  0.00    +0.000 C 
BRANCH   6   7
ATOM      7  C   UNL     1       5.045   3.953  17.914  0.00  0.00    +0.000 A 
ATOM      8  C   UNL     1       6.358   4.425  18.051  0.00  0.00    +0.000 A 
ATOM      9  C   UNL     1       7.087   4.829  16.929  0.00  0.00    +0.000 A 
ATOM     10  C   UNL     1       6.511   4.759  15.656  0.00  0.00    +0.000 A 
ATOM     11  C   UNL     1       5.196   4.307  15.514  0.00  0.00    +0.000 A 
ATOM     12  C   UNL     1       4.468   3.912  16.638  0.00  0.00    +0.000 A 
BRANCH  10  13
ATOM     13  C   UNL     1       7.274   5.121  14.500  0.00  0.00    +0.000 C 
ATOM     14  N   UNL     1       7.883   5.419  13.554  0.00  0.00    +0.000 NA
ENDBRANCH  10  13
ENDBRANCH   6   7
ENDBRANCH   2   6
ENDBRANCH   1   2
BRANCH   1  15
ATOM     15  C   UNL     1       3.514   6.137  19.747  0.00  0.00    +0.000 C 
BRANCH  15  16
ATOM     16  C   UNL     1       2.721   6.940  18.706  0.00  0.00    +0.000 C 
BRANCH  16  17
ATOM     17  C   UNL     1       1.868   8.006  19.373  0.00  0.00    +0.000 A 
ATOM     18  C   UNL     1       1.561   7.908  20.735  0.00  0.00    +0.000 A 
ATOM     19  C   UNL     1       0.745   8.862  21.353  0.00  0.00    +0.000 A 
ATOM     20  C   UNL     1       0.218   9.941  20.625  0.00  0.00    +0.000 A 
ATOM     21  C   UNL     1      -0.598  10.912  21.229  0.00  0.00    +0.000 A 
ATOM     22  C   UNL     1      -1.110  11.977  20.485  0.00  0.00    +0.000 A 
ATOM     23  C   UNL     1      -0.821  12.081  19.128  0.00  0.00    +0.000 A 
ATOM     24  C   UNL     1      -0.013  11.125  18.514  0.00  0.00    +0.000 A 
ATOM     25  C   UNL     1       0.519  10.054  19.251  0.00  0.00    +0.000 A 
ATOM     26  C   UNL     1       1.342   9.090  18.646  0.00  0.00    +0.000 A 
ENDBRANCH  16  17
BRANCH  16  27
ATOM     27  O   UNL     1       1.897   6.055  17.946  0.00  0.00    +0.000 OA
ATOM     28  H   UNL     1       1.881   5.194  18.395  0.00  0.00    +0.000 HD
ENDBRANCH  16  27
ENDBRANCH  15  16
ENDBRANCH   1  15
TORSDOF 9
ENDMDL
