MODEL 1
REMARK VINA RESULT:      -6.3      0.000      0.000
REMARK  Name = 
REMARK  4 active torsions:
REMARK  status: ('A' for Active; 'I' for Inactive)
REMARK    1  A    between atoms: C_1  and  C_2
REMARK    2  A    between atoms: C_2  and  C_3
REMARK    3  A    between atoms: C_2  and  C_5
REMARK    4  A    between atoms: C_3  and  S_4
REMARK                            x       y       z     vdW  Elec       q    Type
REMARK                         _______ _______ _______ _____ _____    ______ ____
ROOT
ATOM      1  C   UNL     1       3.288   3.470  19.268  0.00  0.00    +0.000 C 
ATOM      2  O   UNL     1       3.785   2.666  20.057  0.00  0.00    +0.000 OA
ATOM      3  N   UNL     1       4.113   4.278  18.487  0.00  0.00    +0.000 N 
ATOM      4  C   UNL     1       3.643   5.265  17.517  0.00  0.00    +0.000 C 
ATOM      5  C   UNL     1       4.703   5.876  16.599  0.00  0.00    +0.000 C 
ATOM      6  C   UNL     1       5.919   6.270  17.389  0.00  0.00    +0.000 A 
ATOM      7  C   UNL     1       6.651   7.425  17.096  0.00  0.00    +0.000 A 
ATOM      8  C   UNL     1       7.807   7.719  17.818  0.00  0.00    +0.000 A 
ATOM      9  C   UNL     1       8.240   6.856  18.825  0.00  0.00    +0.000 A 
ATOM     10  C   UNL     1       7.514   5.701  19.119  0.00  0.00    +0.000 A 
ATOM     11  C   UNL     1       6.342   5.406  18.412  0.00  0.00    +0.000 A 
ATOM     12  C   UNL     1       5.569   4.133  18.667  0.00  0.00    +0.000 C 
ENDROOT
BRANCH   1  14
ATOM     13  C   UNL     1       1.244   2.074  18.878  0.00  0.00    +0.000 C 
ATOM     14  C   UNL     1       1.745   3.518  19.088  0.00  0.00    +0.000 C 
BRANCH  14  15
ATOM     15  C   UNL     1       0.969   4.163  20.247  0.00  0.00    +0.000 C 
BRANCH  15  16
ATOM     16  S   UNL     1       1.656   5.775  20.784  0.00  0.00    +0.000 S 
ATOM     17  H   UNL     1       2.683   5.286  21.497  0.00  0.00    +0.000 HD
ENDBRANCH  15  16
ENDBRANCH  14  15
ENDBRANCH   1  14
TORSDOF 3
ENDMDL
MODEL 2
REMARK VINA RESULT:      -6.3      2.518      5.810
REMARK  Name = 
REMARK  4 active torsions:
REMARK  status: ('A' for Active; 'I' for Inactive)
REMARK    1  A    between atoms: C_1  and  C_2
REMARK    2  A    between atoms: C_2  and  C_3
REMARK    3  A    between atoms: C_2  and  C_5
REMARK    4  A    between atoms: C_3  and  S_4
REMARK                            x       y       z     vdW  Elec       q    Type
REMARK                         _______ _______ _______ _____ _____    ______ ____
ROOT
ATOM      1  C   UNL     1       6.053   5.566  18.658  0.00  0.00    +0.000 C 
ATOM      2  O   UNL     1       6.712   5.498  19.695  0.00  0.00    +0.000 OA
ATOM      3  N   UNL     1       4.679   5.334  18.692  0.00  0.00    +0.000 N 
ATOM      4  C   UNL     1       3.791   5.389  17.532  0.00  0.00    +0.000 C 
ATOM      5  C   UNL     1       2.290   5.336  17.820  0.00  0.00    +0.000 C 
ATOM      6  C   UNL     1       1.984   4.258  18.821  0.00  0.00    +0.000 A 
ATOM      7  C   UNL     1       0.829   3.474  18.738  0.00  0.00    +0.000 A 
ATOM      8  C   UNL     1       0.558   2.526  19.724  0.00  0.00    +0.000 A 
ATOM      9  C   UNL     1       1.431   2.367  20.799  0.00  0.00    +0.000 A 
ATOM     10  C   UNL     1       2.583   3.150  20.889  0.00  0.00    +0.000 A 
ATOM     11  C   UNL     1       2.874   4.092  19.895  0.00  0.00    +0.000 A 
ATOM     12  C   UNL     1       4.082   4.994  19.997  0.00  0.00    +0.000 C 
ENDROOT
BRANCH   1  14
ATOM     13  C   UNL     1       7.781   7.087  17.667  0.00  0.00    +0.000 C 
ATOM     14  C   UNL     1       6.743   5.995  17.333  0.00  0.00    +0.000 C 
BRANCH  14  15
ATOM     15  C   UNL     1       7.430   4.860  16.555  0.00  0.00    +0.000 C 
BRANCH  15  16
ATOM     16  S   UNL     1       6.639   4.492  14.944  0.00  0.00    +0.000 S 
ATOM     17  H   UNL     1       7.712   3.937  14.357  0.00  0.00    +0.000 HD
ENDBRANCH  15  16
ENDBRANCH  14  15
ENDBRANCH   1  14
TORSDOF 3
ENDMDL
MODEL 3
REMARK VINA RESULT:      -6.2      2.558      5.727
REMARK  Name = 
REMARK  4 active torsions:
REMARK  status: ('A' for Active; 'I' for Inactive)
REMARK    1  A    between atoms: C_1  and  C_2
REMARK    2  A    between atoms: C_2  and  C_3
REMARK    3  A    between atoms: C_2  and  C_5
REMARK    4  A    between atoms: C_3  and  S_4
REMARK                            x       y       z     vdW  Elec       q    Type
REMARK                         _______ _______ _______ _____ _____    ______ ____
ROOT
ATOM      1  C   UNL     1       6.262   5.105  17.891  0.00  0.00    +0.000 C 
ATOM      2  O   UNL     1       7.126   4.319  18.278  0.00  0.00    +0.000 OA
ATOM      3  N   UNL     1       5.055   5.206  18.580  0.00  0.00    +0.000 N 
ATOM      4  C   UNL     1       3.957   6.101  18.221  0.00  0.00    +0.000 C 
ATOM      5  C   UNL     1       2.822   6.228  19.238  0.00  0.00    +0.000 C 
ATOM      6  C   UNL     1       2.415   4.874  19.745  0.00  0.00    +0.000 A 
ATOM      7  C   UNL     1       1.082   4.554  20.019  0.00  0.00    +0.000 A 
ATOM      8  C   UNL     1       0.759   3.304  20.546  0.00  0.00    +0.000 A 
ATOM      9  C   UNL     1       1.767   2.377  20.811  0.00  0.00    +0.000 A 
ATOM     10  C   UNL     1       3.099   2.693  20.543  0.00  0.00    +0.000 A 
ATOM     11  C   UNL     1       3.432   3.939  19.997  0.00  0.00    +0.000 A 
ATOM     12  C   UNL     1       4.870   4.331  19.753  0.00  0.00    +0.000 C 
ENDROOT
BRANCH   1  14
ATOM     13  C   UNL     1       7.516   7.150  17.165  0.00  0.00    +0.000 C 
ATOM     14  C   UNL     1       6.557   6.041  16.686  0.00  0.00    +0.000 C 
BRANCH  14  15
ATOM     15  C   UNL     1       7.156   5.349  15.449  0.00  0.00    +0.000 C 
BRANCH  15  16
ATOM     16  S   UNL     1       6.082   4.041  14.748  0.00  0.00    +0.000 S 
ATOM     17  H   UNL     1       6.386   3.084  15.640  0.00  0.00    +0.000 HD
ENDBRANCH  15  16
ENDBRANCH  14  15
ENDBRANCH   1  14
TORSDOF 3
ENDMDL
MODEL 4
REMARK VINA RESULT:      -6.2      3.009      5.802
REMARK  Name = 
REMARK  4 active torsions:
REMARK  status: ('A' for Active; 'I' for Inactive)
REMARK    1  A    between atoms: C_1  and  C_2
REMARK    2  A    between atoms: C_2  and  C_3
REMARK    3  A    between atoms: C_2  and  C_5
REMARK    4  A    between atoms: C_3  and  S_4
REMARK                            x       y       z     vdW  Elec       q    Type
REMARK                         _______ _______ _______ _____ _____    ______ ____
ROOT
ATOM      1  C   UNL     1       4.901   4.928  16.325  0.00  0.00    +0.000 C 
ATOM      2  O   UNL     1       4.767   6.147  16.223  0.00  0.00    +0.000 OA
ATOM      3  N   UNL     1       3.967   4.184  17.044  0.00  0.00    +0.000 N 
ATOM      4  C   UNL     1       4.015   2.735  17.232  0.00  0.00    +0.000 C 
ATOM      5  C   UNL     1       2.775   2.087  17.849  0.00  0.00    +0.000 C 
ATOM      6  C   UNL     1       2.301   2.880  19.034  0.00  0.00    +0.000 A 
ATOM      7  C   UNL     1       1.778   2.266  20.176  0.00  0.00    +0.000 A 
ATOM      8  C   UNL     1       1.295   3.046  21.227  0.00  0.00    +0.000 A 
ATOM      9  C   UNL     1       1.322   4.437  21.134  0.00  0.00    +0.000 A 
ATOM     10  C   UNL     1       1.839   5.054  19.994  0.00  0.00    +0.000 A 
ATOM     11  C   UNL     1       2.343   4.281  18.941  0.00  0.00    +0.000 A 
ATOM     12  C   UNL     1       2.853   4.920  17.671  0.00  0.00    +0.000 C 
ENDROOT
BRANCH   1  14
ATOM     13  C   UNL     1       5.956   4.567  14.081  0.00  0.00    +0.000 C 
ATOM     14  C   UNL     1       6.064   4.216  15.579  0.00  0.00    +0.000 C 
BRANCH  14  15
ATOM     15  C   UNL     1       7.475   4.561  16.083  0.00  0.00    +0.000 C 
BRANCH  15  16
ATOM     16  S   UNL     1       7.575   4.771  17.900  0.00  0.00    +0.000 S 
ATOM     17  H   UNL     1       8.719   4.092  18.081  0.00  0.00    +0.000 HD
ENDBRANCH  15  16
ENDBRANCH  14  15
ENDBRANCH   1  14
TORSDOF 3
ENDMDL
MODEL 5
REMARK VINA RESULT:      -6.0      3.173      5.739
REMARK  Name = 
REMARK  4 active torsions:
REMARK  status: ('A' for Active; 'I' for Inactive)
REMARK    1  A    between atoms: C_1  and  C_2
REMARK    2  A    between atoms: C_2  and  C_3
REMARK    3  A    between atoms: C_2  and  C_5
REMARK    4  A    between atoms: C_3  and  S_4
REMARK                            x       y       z     vdW  Elec       q    Type
REMARK                         _______ _______ _______ _____ _____    ______ ____
ROOT
ATOM      1  C   UNL     1       5.595   4.568  17.026  0.00  0.00    +0.000 C 
ATOM      2  O   UNL     1       6.675   4.196  17.485  0.00  0.00    +0.000 OA
ATOM      3  N   UNL     1       4.487   4.685  17.864  0.00  0.00    +0.000 N 
ATOM      4  C   UNL     1       3.157   5.118  17.439  0.00  0.00    +0.000 C 
ATOM      5  C   UNL     1       2.147   5.404  18.551  0.00  0.00    +0.000 C 
ATOM      6  C   UNL     1       2.175   4.312  19.582  0.00  0.00    +0.000 A 
ATOM      7  C   UNL     1       1.014   3.862  20.217  0.00  0.00    +0.000 A 
ATOM      8  C   UNL     1       1.097   2.887  21.211  0.00  0.00    +0.000 A 
ATOM      9  C   UNL     1       2.338   2.370  21.580  0.00  0.00    +0.000 A 
ATOM     10  C   UNL     1       3.500   2.819  20.951  0.00  0.00    +0.000 A 
ATOM     11  C   UNL     1       3.426   3.784  19.939  0.00  0.00    +0.000 A 
ATOM     12  C   UNL     1       4.672   4.332  19.284  0.00  0.00    +0.000 C 
ENDROOT
BRANCH   1  14
ATOM     13  C   UNL     1       5.364   6.522  15.473  0.00  0.00    +0.000 C 
ATOM     14  C   UNL     1       5.496   4.986  15.532  0.00  0.00    +0.000 C 
BRANCH  14  15
ATOM     15  C   UNL     1       6.673   4.541  14.647  0.00  0.00    +0.000 C 
BRANCH  15  16
ATOM     16  S   UNL     1       6.153   3.718  13.095  0.00  0.00    +0.000 S 
ATOM     17  H   UNL     1       5.059   4.463  12.873  0.00  0.00    +0.000 HD
ENDBRANCH  15  16
ENDBRANCH  14  15
ENDBRANCH   1  14
TORSDOF 3
ENDMDL
MODEL 6
REMARK VINA RESULT:      -5.9      1.062      1.062
REMARK  Name = 
REMARK  4 active torsions:
REMARK  status: ('A' for Active; 'I' for Inactive)
REMARK    1  A    between atoms: C_1  and  C_2
REMARK    2  A    between atoms: C_2  and  C_3
REMARK    3  A    between atoms: C_2  and  C_5
REMARK    4  A    between atoms: C_3  and  S_4
REMARK                            x       y       z     vdW  Elec       q    Type
REMARK                         _______ _______ _______ _____ _____    ______ ____
ROOT
ATOM      1  C   UNL     1       2.901   3.309  18.561  0.00  0.00    +0.000 C 
ATOM      2  O   UNL     1       3.397   2.195  18.733  0.00  0.00    +0.000 OA
ATOM      3  N   UNL     1       3.673   4.338  18.025  0.00  0.00    +0.000 N 
ATOM      4  C   UNL     1       3.198   5.697  17.771  0.00  0.00    +0.000 C 
ATOM      5  C   UNL     1       4.129   6.604  16.965  0.00  0.00    +0.000 C 
ATOM      6  C   UNL     1       5.539   6.493  17.471  0.00  0.00    +0.000 A 
ATOM      7  C   UNL     1       6.395   7.598  17.529  0.00  0.00    +0.000 A 
ATOM      8  C   UNL     1       7.715   7.435  17.949  0.00  0.00    +0.000 A 
ATOM      9  C   UNL     1       8.185   6.170  18.299  0.00  0.00    +0.000 A 
ATOM     10  C   UNL     1       7.336   5.065  18.239  0.00  0.00    +0.000 A 
ATOM     11  C   UNL     1       6.004   5.220  17.836  0.00  0.00    +0.000 A 
ATOM     12  C   UNL     1       5.080   4.032  17.704  0.00  0.00    +0.000 C 
ENDROOT
BRANCH   1  14
ATOM     13  C   UNL     1       0.651   2.208  18.606  0.00  0.00    +0.000 C 
ATOM     14  C   UNL     1       1.394   3.535  18.862  0.00  0.00    +0.000 C 
BRANCH  14  15
ATOM     15  C   UNL     1       1.076   4.030  20.284  0.00  0.00    +0.000 C 
BRANCH  15  16
ATOM     16  S   UNL     1       1.781   2.974  21.604  0.00  0.00    +0.000 S 
ATOM     17  H   UNL     1       1.284   1.807  21.164  0.00  0.00    +0.000 HD
ENDBRANCH  15  16
ENDBRANCH  14  15
ENDBRANCH   1  14
TORSDOF 3
ENDMDL
MODEL 7
REMARK VINA RESULT:      -5.8      2.453      5.568
REMARK  Name = 
REMARK  4 active torsions:
REMARK  status: ('A' for Active; 'I' for Inactive)
REMARK    1  A    between atoms: C_1  and  C_2
REMARK    2  A    between atoms: C_2  and  C_3
REMARK    3  A    between atoms: C_2  and  C_5
REMARK    4  A    between atoms: C_3  and  S_4
REMARK                            x       y       z     vdW  Elec       q    Type
REMARK                         _______ _______ _______ _____ _____    ______ ____
ROOT
ATOM      1  C   UNL     1       6.516   5.376  18.924  0.00  0.00    +0.000 C 
ATOM      2  O   UNL     1       7.009   5.307  20.050  0.00  0.00    +0.000 OA
ATOM      3  N   UNL     1       5.141   5.220  18.757  0.00  0.00    +0.000 N 
ATOM      4  C   UNL     1       4.441   5.284  17.475  0.00  0.00    +0.000 C 
ATOM      5  C   UNL     1       2.913   5.322  17.536  0.00  0.00    +0.000 C 
ATOM      6  C   UNL     1       2.399   4.297  18.507  0.00  0.00    +0.000 A 
ATOM      7  C   UNL     1       1.225   3.575  18.270  0.00  0.00    +0.000 A 
ATOM      8  C   UNL     1       0.755   2.676  19.227  0.00  0.00    +0.000 A 
ATOM      9  C   UNL     1       1.448   2.507  20.425  0.00  0.00    +0.000 A 
ATOM     10  C   UNL     1       2.618   3.228  20.667  0.00  0.00    +0.000 A 
ATOM     11  C   UNL     1       3.108   4.119  19.705  0.00  0.00    +0.000 A 
ATOM     12  C   UNL     1       4.338   4.957  19.965  0.00  0.00    +0.000 C 
ENDROOT
BRANCH   1  14
ATOM     13  C   UNL     1       7.284   4.587  16.673  0.00  0.00    +0.000 C 
ATOM     14  C   UNL     1       7.420   5.722  17.708  0.00  0.00    +0.000 C 
BRANCH  14  15
ATOM     15  C   UNL     1       7.119   7.070  17.029  0.00  0.00    +0.000 C 
BRANCH  15  16
ATOM     16  S   UNL     1       7.975   8.491  17.807  0.00  0.00    +0.000 S 
ATOM     17  H   UNL     1       8.690   8.860  16.732  0.00  0.00    +0.000 HD
ENDBRANCH  15  16
ENDBRANCH  14  15
ENDBRANCH   1  14
TORSDOF 3
ENDMDL
MODEL 8
REMARK VINA RESULT:      -5.8      2.530      5.901
REMARK  Name = 
REMARK  4 active torsions:
REMARK  status: ('A' for Active; 'I' for Inactive)
REMARK    1  A    between atoms: C_1  and  C_2
REMARK    2  A    between atoms: C_2  and  C_3
REMARK    3  A    between atoms: C_2  and  C_5
REMARK    4  A    between atoms: C_3  and  S_4
REMARK                            x       y       z     vdW  Elec       q    Type
REMARK                         _______ _______ _______ _____ _____    ______ ____
ROOT
ATOM      1  C   UNL     1       5.152   4.325  16.467  0.00  0.00    +0.000 C 
ATOM      2  O   UNL     1       4.488   4.346  15.430  0.00  0.00    +0.000 OA
ATOM      3  N   UNL     1       4.645   3.697  17.603  0.00  0.00    +0.000 N 
ATOM      4  C   UNL     1       5.337   3.603  18.887  0.00  0.00    +0.000 C 
ATOM      5  C   UNL     1       4.713   2.674  19.930  0.00  0.00    +0.000 C 
ATOM      6  C   UNL     1       3.229   2.889  20.006  0.00  0.00    +0.000 A 
ATOM      7  C   UNL     1       2.532   2.830  21.218  0.00  0.00    +0.000 A 
ATOM      8  C   UNL     1       1.146   2.977  21.232  0.00  0.00    +0.000 A 
ATOM      9  C   UNL     1       0.451   3.170  20.038  0.00  0.00    +0.000 A 
ATOM     10  C   UNL     1       1.142   3.225  18.826  0.00  0.00    +0.000 A 
ATOM     11  C   UNL     1       2.536   3.097  18.803  0.00  0.00    +0.000 A 
ATOM     12  C   UNL     1       3.303   3.093  17.501  0.00  0.00    +0.000 C 
ENDROOT
BRANCH   1  14
ATOM     13  C   UNL     1       7.149   4.837  15.042  0.00  0.00    +0.000 C 
ATOM     14  C   UNL     1       6.585   4.924  16.475  0.00  0.00    +0.000 C 
BRANCH  14  15
ATOM     15  C   UNL     1       6.686   6.376  16.974  0.00  0.00    +0.000 C 
BRANCH  15  16
ATOM     16  S   UNL     1       7.751   6.572  18.452  0.00  0.00    +0.000 S 
ATOM     17  H   UNL     1       7.067   5.745  19.259  0.00  0.00    +0.000 HD
ENDBRANCH  15  16
ENDBRANCH  14  15
ENDBRANCH   1  14
TORSDOF 3
ENDMDL
MODEL 9
REMARK VINA RESULT:      -5.8      2.337      3.432
REMARK  Name = 
REMARK  4 active torsions:
REMARK  status: ('A' for Active; 'I' for Inactive)
REMARK    1  A    between atoms: C_1  and  C_2
REMARK    2  A    between atoms: C_2  and  C_3
REMARK    3  A    between atoms: C_2  and  C_5
REMARK    4  A    between atoms: C_3  and  S_4
REMARK                            x       y       z     vdW  Elec       q    Type
REMARK                         _______ _______ _______ _____ _____    ______ ____
ROOT
ATOM      1  C   UNL     1       2.551   6.546  19.119  0.00  0.00    +0.000 C 
ATOM      2  O   UNL     1       1.850   7.294  18.439  0.00  0.00    +0.000 OA
ATOM      3  N   UNL     1       3.836   6.217  18.690  0.00  0.00    +0.000 N 
ATOM      4  C   UNL     1       4.762   5.345  19.410  0.00  0.00    +0.000 C 
ATOM      5  C   UNL     1       6.200   5.302  18.890  0.00  0.00    +0.000 C 
ATOM      6  C   UNL     1       6.214   5.170  17.394  0.00  0.00    +0.000 A 
ATOM      7  C   UNL     1       7.168   4.394  16.727  0.00  0.00    +0.000 A 
ATOM      8  C   UNL     1       7.179   4.350  15.333  0.00  0.00    +0.000 A 
ATOM      9  C   UNL     1       6.247   5.088  14.604  0.00  0.00    +0.000 A 
ATOM     10  C   UNL     1       5.296   5.866  15.265  0.00  0.00    +0.000 A 
ATOM     11  C   UNL     1       5.265   5.904  16.664  0.00  0.00    +0.000 A 
ATOM     12  C   UNL     1       4.286   6.783  17.405  0.00  0.00    +0.000 C 
ENDROOT
BRANCH   1  14
ATOM     13  C   UNL     1       1.143   7.147  21.103  0.00  0.00    +0.000 C 
ATOM     14  C   UNL     1       2.031   6.042  20.494  0.00  0.00    +0.000 C 
BRANCH  14  15
ATOM     15  C   UNL     1       1.245   4.721  20.455  0.00  0.00    +0.000 C 
BRANCH  15  16
ATOM     16  S   UNL     1       2.035   3.368  21.405  0.00  0.00    +0.000 S 
ATOM     17  H   UNL     1       3.120   4.054  21.796  0.00  0.00    +0.000 HD
ENDBRANCH  15  16
ENDBRANCH  14  15
ENDBRANCH   1  14
TORSDOF 3
ENDMDL
