MODEL 1
REMARK VINA RESULT:      -7.5      0.000      0.000
REMARK  Name = 
REMARK  7 active torsions:
REMARK  status: ('A' for Active; 'I' for Inactive)
REMARK    1  A    between atoms: C_1  and  N_2
REMARK    2  A    between atoms: C_3  and  C_5
REMARK    3  A    between atoms: N_8  and  S_9
REMARK    4  A    between atoms: S_9  and  N_12
REMARK    5  A    between atoms: N_12  and  C_13
REMARK    6  A    between atoms: N_12  and  C_14
REMARK    7  A    between atoms: C_14  and  C_15
REMARK                            x       y       z     vdW  Elec       q    Type
REMARK                         _______ _______ _______ _____ _____    ______ ____
ROOT
ATOM      1  S   UNL     1       4.304   4.078  18.246  0.00  0.00    +0.000 S 
ATOM      2  O   UNL     1       4.036   2.671  18.096  0.00  0.00    +0.000 OA
ATOM      3  O   UNL     1       5.285   4.553  19.198  0.00  0.00    +0.000 OA
ENDROOT
BRANCH   1   7
ATOM      4  C   UNL     1       6.742   6.069  16.505  0.00  0.00    +0.000 C 
ATOM      5  C   UNL     1       7.124   4.593  16.529  0.00  0.00    +0.000 C 
ATOM      6  C   UNL     1       5.861   3.908  16.058  0.00  0.00    +0.000 C 
ATOM      7  N   UNL     1       4.769   4.672  16.719  0.00  0.00    +0.000 NA
ATOM      8  C   UNL     1       5.223   6.108  16.693  0.00  0.00    +0.000 C 
BRANCH   4  11
ATOM      9  C   UNL     1       8.332   9.115  18.139  0.00  0.00    +0.000 C 
ATOM     10  N   UNL     1       7.617   8.235  17.253  0.00  0.00    +0.000 N 
ATOM     11  C   UNL     1       7.481   6.895  17.542  0.00  0.00    +0.000 C 
ATOM     12  O   UNL     1       7.917   6.383  18.565  0.00  0.00    +0.000 OA
ATOM     13  H   UNL     1       7.442   8.571  16.304  0.00  0.00    +0.000 HD
ENDBRANCH   4  11
ENDBRANCH   1   7
BRANCH   1  14
ATOM     14  N   UNL     1       2.850   4.885  18.512  0.00  0.00    +0.000 NA
ATOM     15  C   UNL     1       1.583   4.168  18.314  0.00  0.00    +0.000 C 
BRANCH  14  16
ATOM     16  C   UNL     1       2.814   5.812  19.669  0.00  0.00    +0.000 C 
BRANCH  16  17
ATOM     17  C   UNL     1       2.217   7.180  19.413  0.00  0.00    +0.000 A 
ATOM     18  C   UNL     1       1.587   7.920  20.424  0.00  0.00    +0.000 A 
ATOM     19  C   UNL     1       1.051   9.181  20.152  0.00  0.00    +0.000 A 
ATOM     20  C   UNL     1       1.164   9.727  18.876  0.00  0.00    +0.000 A 
ATOM     21  C   UNL     1       1.797   9.007  17.865  0.00  0.00    +0.000 A 
ATOM     22  C   UNL     1       2.320   7.742  18.131  0.00  0.00    +0.000 A 
ENDBRANCH  16  17
ENDBRANCH  14  16
ENDBRANCH   1  14
TORSDOF 5
ENDMDL
MODEL 2
REMARK VINA RESULT:      -7.5      0.268      1.086
REMARK  Name = 
REMARK  7 active torsions:
REMARK  status: ('A' for Active; 'I' for Inactive)
REMARK    1  A    between atoms: C_1  and  N_2
REMARK    2  A    between atoms: C_3  and  C_5
REMARK    3  A    between atoms: N_8  and  S_9
REMARK    4  A    between atoms: S_9  and  N_12
REMARK    5  A    between atoms: N_12  and  C_13
REMARK    6  A    between atoms: N_12  and  C_14
REMARK    7  A    between atoms: C_14  and  C_15
REMARK                            x       y       z     vdW  Elec       q    Type
REMARK                         _______ _______ _______ _____ _____    ______ ____
ROOT
ATOM      1  S   UNL     1       4.307   4.348  18.456  0.00  0.00    +0.000 S 
ATOM      2  O   UNL     1       4.185   2.914  18.417  0.00  0.00    +0.000 OA
ATOM      3  O   UNL     1       5.169   4.997  19.421  0.00  0.00    +0.000 OA
ENDROOT
BRANCH   1   7
ATOM      4  C   UNL     1       6.847   6.175  16.679  0.00  0.00    +0.000 C 
ATOM      5  C   UNL     1       7.176   4.689  16.776  0.00  0.00    +0.000 C 
ATOM      6  C   UNL     1       5.899   4.027  16.310  0.00  0.00    +0.000 C 
ATOM      7  N   UNL     1       4.822   4.857  16.914  0.00  0.00    +0.000 NA
ATOM      8  C   UNL     1       5.326   6.273  16.834  0.00  0.00    +0.000 C 
BRANCH   4  11
ATOM      9  C   UNL     1       8.441   9.253  18.244  0.00  0.00    +0.000 C 
ATOM     10  N   UNL     1       7.719   8.356  17.381  0.00  0.00    +0.000 N 
ATOM     11  C   UNL     1       7.595   7.020  17.692  0.00  0.00    +0.000 C 
ATOM     12  O   UNL     1       8.045   6.527  18.718  0.00  0.00    +0.000 OA
ATOM     13  H   UNL     1       7.531   8.676  16.428  0.00  0.00    +0.000 HD
ENDBRANCH   4  11
ENDBRANCH   1   7
BRANCH   1  14
ATOM     14  N   UNL     1       2.769   5.025  18.557  0.00  0.00    +0.000 NA
ATOM     15  C   UNL     1       1.600   4.212  18.191  0.00  0.00    +0.000 C 
BRANCH  14  16
ATOM     16  C   UNL     1       2.514   5.911  19.719  0.00  0.00    +0.000 C 
BRANCH  16  17
ATOM     17  C   UNL     1       2.092   7.330  19.398  0.00  0.00    +0.000 A 
ATOM     18  C   UNL     1       2.249   7.883  18.119  0.00  0.00    +0.000 A 
ATOM     19  C   UNL     1       1.845   9.195  17.859  0.00  0.00    +0.000 A 
ATOM     20  C   UNL     1       1.253   9.956  18.865  0.00  0.00    +0.000 A 
ATOM     21  C   UNL     1       1.080   9.414  20.136  0.00  0.00    +0.000 A 
ATOM     22  C   UNL     1       1.497   8.110  20.402  0.00  0.00    +0.000 A 
ENDBRANCH  16  17
ENDBRANCH  14  16
ENDBRANCH   1  14
TORSDOF 5
ENDMDL
MODEL 3
REMARK VINA RESULT:      -6.9      2.447      6.374
REMARK  Name = 
REMARK  7 active torsions:
REMARK  status: ('A' for Active; 'I' for Inactive)
REMARK    1  A    between atoms: C_1  and  N_2
REMARK    2  A    between atoms: C_3  and  C_5
REMARK    3  A    between atoms: N_8  and  S_9
REMARK    4  A    between atoms: S_9  and  N_12
REMARK    5  A    between atoms: N_12  and  C_13
REMARK    6  A    between atoms: N_12  and  C_14
REMARK    7  A    between atoms: C_14  and  C_15
REMARK                            x       y       z     vdW  Elec       q    Type
REMARK                         _______ _______ _______ _____ _____    ______ ____
ROOT
ATOM      1  S   UNL     1       5.853   4.827  18.340  0.00  0.00    +0.000 S 
ATOM      2  O   UNL     1       5.126   5.720  19.205  0.00  0.00    +0.000 OA
ATOM      3  O   UNL     1       7.221   4.453  18.633  0.00  0.00    +0.000 OA
ENDROOT
BRANCH   1   7
ATOM      4  C   UNL     1       2.689   3.288  19.090  0.00  0.00    +0.000 C 
ATOM      5  C   UNL     1       2.714   3.885  17.687  0.00  0.00    +0.000 C 
ATOM      6  C   UNL     1       3.992   3.327  17.103  0.00  0.00    +0.000 C 
ATOM      7  N   UNL     1       4.958   3.382  18.233  0.00  0.00    +0.000 NA
ATOM      8  C   UNL     1       4.153   3.027  19.456  0.00  0.00    +0.000 C 
BRANCH   4  11
ATOM      9  C   UNL     1       1.568   6.464  20.858  0.00  0.00    +0.000 C 
ATOM     10  N   UNL     1       2.156   5.526  19.939  0.00  0.00    +0.000 N 
ATOM     11  C   UNL     1       1.982   4.169  20.102  0.00  0.00    +0.000 C 
ATOM     12  O   UNL     1       1.299   3.685  20.996  0.00  0.00    +0.000 OA
ATOM     13  H   UNL     1       2.901   5.874  19.331  0.00  0.00    +0.000 HD
ENDBRANCH   4  11
ENDBRANCH   1   7
BRANCH   1  14
ATOM     14  N   UNL     1       5.774   5.410  16.763  0.00  0.00    +0.000 NA
ATOM     15  C   UNL     1       4.959   6.599  16.476  0.00  0.00    +0.000 C 
BRANCH  14  16
ATOM     16  C   UNL     1       7.035   5.374  15.983  0.00  0.00    +0.000 C 
BRANCH  16  17
ATOM     17  C   UNL     1       6.924   4.885  14.553  0.00  0.00    +0.000 A 
ATOM     18  C   UNL     1       5.949   3.958  14.157  0.00  0.00    +0.000 A 
ATOM     19  C   UNL     1       5.874   3.533  12.828  0.00  0.00    +0.000 A 
ATOM     20  C   UNL     1       6.752   4.050  11.878  0.00  0.00    +0.000 A 
ATOM     21  C   UNL     1       7.718   4.980  12.258  0.00  0.00    +0.000 A 
ATOM     22  C   UNL     1       7.804   5.394  13.586  0.00  0.00    +0.000 A 
ENDBRANCH  16  17
ENDBRANCH  14  16
ENDBRANCH   1  14
TORSDOF 5
ENDMDL
MODEL 4
REMARK VINA RESULT:      -6.9      1.352      1.571
REMARK  Name = 
REMARK  7 active torsions:
REMARK  status: ('A' for Active; 'I' for Inactive)
REMARK    1  A    between atoms: C_1  and  N_2
REMARK    2  A    between atoms: C_3  and  C_5
REMARK    3  A    between atoms: N_8  and  S_9
REMARK    4  A    between atoms: S_9  and  N_12
REMARK    5  A    between atoms: N_12  and  C_13
REMARK    6  A    between atoms: N_12  and  C_14
REMARK    7  A    between atoms: C_14  and  C_15
REMARK                            x       y       z     vdW  Elec       q    Type
REMARK                         _______ _______ _______ _____ _____    ______ ____
ROOT
ATOM      1  S   UNL     1       3.620   4.624  19.283  0.00  0.00    +0.000 S 
ATOM      2  O   UNL     1       3.632   3.213  19.565  0.00  0.00    +0.000 OA
ATOM      3  O   UNL     1       4.726   5.472  19.673  0.00  0.00    +0.000 OA
ENDROOT
BRANCH   1   7
ATOM      4  C   UNL     1       5.351   5.312  16.204  0.00  0.00    +0.000 C 
ATOM      5  C   UNL     1       5.270   3.816  16.491  0.00  0.00    +0.000 C 
ATOM      6  C   UNL     1       3.804   3.608  16.798  0.00  0.00    +0.000 C 
ATOM      7  N   UNL     1       3.430   4.804  17.599  0.00  0.00    +0.000 NA
ATOM      8  C   UNL     1       4.192   5.946  16.980  0.00  0.00    +0.000 C 
BRANCH   4  11
ATOM      9  C   UNL     1       7.978   7.167  18.235  0.00  0.00    +0.000 C 
ATOM     10  N   UNL     1       6.769   6.522  17.797  0.00  0.00    +0.000 N 
ATOM     11  C   UNL     1       6.695   5.917  16.562  0.00  0.00    +0.000 C 
ATOM     12  O   UNL     1       7.642   5.855  15.789  0.00  0.00    +0.000 OA
ATOM     13  H   UNL     1       5.911   6.746  18.305  0.00  0.00    +0.000 HD
ENDBRANCH   4  11
ENDBRANCH   1   7
BRANCH   1  14
ATOM     14  N   UNL     1       2.190   5.288  19.873  0.00  0.00    +0.000 NA
ATOM     15  C   UNL     1       1.146   4.396  20.399  0.00  0.00    +0.000 C 
BRANCH  14  16
ATOM     16  C   UNL     1       2.318   6.545  20.649  0.00  0.00    +0.000 C 
BRANCH  16  17
ATOM     17  C   UNL     1       1.794   7.801  19.982  0.00  0.00    +0.000 A 
ATOM     18  C   UNL     1       1.028   8.748  20.676  0.00  0.00    +0.000 A 
ATOM     19  C   UNL     1       0.564   9.897  20.029  0.00  0.00    +0.000 A 
ATOM     20  C   UNL     1       0.886  10.123  18.693  0.00  0.00    +0.000 A 
ATOM     21  C   UNL     1       1.657   9.195  17.996  0.00  0.00    +0.000 A 
ATOM     22  C   UNL     1       2.108   8.042  18.636  0.00  0.00    +0.000 A 
ENDBRANCH  16  17
ENDBRANCH  14  16
ENDBRANCH   1  14
TORSDOF 5
ENDMDL
MODEL 5
REMARK VINA RESULT:      -6.9      2.348      6.305
REMARK  Name = 
REMARK  7 active torsions:
REMARK  status: ('A' for Active; 'I' for Inactive)
REMARK    1  A    between atoms: C_1  and  N_2
REMARK    2  A    between atoms: C_3  and  C_5
REMARK    3  A    between atoms: N_8  and  S_9
REMARK    4  A    between atoms: S_9  and  N_12
REMARK    5  A    between atoms: N_12  and  C_13
REMARK    6  A    between atoms: N_12  and  C_14
REMARK    7  A    between atoms: C_14  and  C_15
REMARK                            x       y       z     vdW  Elec       q    Type
REMARK                         _______ _______ _______ _____ _____    ______ ____
ROOT
ATOM      1  S   UNL     1       5.900   4.792  18.423  0.00  0.00    +0.000 S 
ATOM      2  O   UNL     1       5.326   5.704  19.378  0.00  0.00    +0.000 OA
ATOM      3  O   UNL     1       7.244   4.282  18.593  0.00  0.00    +0.000 OA
ENDROOT
BRANCH   1   7
ATOM      4  C   UNL     1       2.549   3.628  19.020  0.00  0.00    +0.000 C 
ATOM      5  C   UNL     1       2.730   4.137  17.593  0.00  0.00    +0.000 C 
ATOM      6  C   UNL     1       3.979   3.419  17.133  0.00  0.00    +0.000 C 
ATOM      7  N   UNL     1       4.867   3.441  18.326  0.00  0.00    +0.000 NA
ATOM      8  C   UNL     1       3.950   3.242  19.503  0.00  0.00    +0.000 C 
BRANCH   4  11
ATOM      9  C   UNL     1       1.791   6.969  20.674  0.00  0.00    +0.000 C 
ATOM     10  N   UNL     1       2.327   5.931  19.833  0.00  0.00    +0.000 N 
ATOM     11  C   UNL     1       1.872   4.634  19.931  0.00  0.00    +0.000 C 
ATOM     12  O   UNL     1       0.976   4.295  20.694  0.00  0.00    +0.000 OA
ATOM     13  H   UNL     1       3.211   6.125  19.359  0.00  0.00    +0.000 HD
ENDBRANCH   4  11
ENDBRANCH   1   7
BRANCH   1  14
ATOM     14  N   UNL     1       5.761   5.456  16.882  0.00  0.00    +0.000 NA
ATOM     15  C   UNL     1       4.950   6.668  16.692  0.00  0.00    +0.000 C 
BRANCH  14  16
ATOM     16  C   UNL     1       6.987   5.446  16.047  0.00  0.00    +0.000 C 
BRANCH  16  17
ATOM     17  C   UNL     1       6.835   4.898  14.643  0.00  0.00    +0.000 A 
ATOM     18  C   UNL     1       7.744   5.209  13.621  0.00  0.00    +0.000 A 
ATOM     19  C   UNL     1       7.575   4.682  12.337  0.00  0.00    +0.000 A 
ATOM     20  C   UNL     1       6.515   3.819  12.071  0.00  0.00    +0.000 A 
ATOM     21  C   UNL     1       5.612   3.493  13.081  0.00  0.00    +0.000 A 
ATOM     22  C   UNL     1       5.771   4.030  14.358  0.00  0.00    +0.000 A 
ENDBRANCH  16  17
ENDBRANCH  14  16
ENDBRANCH   1  14
TORSDOF 5
ENDMDL
MODEL 6
REMARK VINA RESULT:      -6.9      2.301      3.567
REMARK  Name = 
REMARK  7 active torsions:
REMARK  status: ('A' for Active; 'I' for Inactive)
REMARK    1  A    between atoms: C_1  and  N_2
REMARK    2  A    between atoms: C_3  and  C_5
REMARK    3  A    between atoms: N_8  and  S_9
REMARK    4  A    between atoms: S_9  and  N_12
REMARK    5  A    between atoms: N_12  and  C_13
REMARK    6  A    between atoms: N_12  and  C_14
REMARK    7  A    between atoms: C_14  and  C_15
REMARK                            x       y       z     vdW  Elec       q    Type
REMARK                         _______ _______ _______ _____ _____    ______ ____
ROOT
ATOM      1  S   UNL     1       4.759   4.727  16.463  0.00  0.00    +0.000 S 
ATOM      2  O   UNL     1       5.256   5.665  15.489  0.00  0.00    +0.000 OA
ATOM      3  O   UNL     1       4.069   3.522  16.053  0.00  0.00    +0.000 OA
ENDROOT
BRANCH   1   7
ATOM      4  C   UNL     1       7.554   5.899  18.402  0.00  0.00    +0.000 C 
ATOM      5  C   UNL     1       6.307   5.704  19.259  0.00  0.00    +0.000 C 
ATOM      6  C   UNL     1       5.853   4.310  18.886  0.00  0.00    +0.000 C 
ATOM      7  N   UNL     1       6.082   4.238  17.418  0.00  0.00    +0.000 NA
ATOM      8  C   UNL     1       7.365   4.992  17.182  0.00  0.00    +0.000 C 
BRANCH   4  11
ATOM      9  C   UNL     1       8.871   9.458  18.654  0.00  0.00    +0.000 C 
ATOM     10  N   UNL     1       8.598   8.064  18.884  0.00  0.00    +0.000 N 
ATOM     11  C   UNL     1       7.797   7.347  18.023  0.00  0.00    +0.000 C 
ATOM     12  O   UNL     1       7.309   7.826  17.007  0.00  0.00    +0.000 OA
ATOM     13  H   UNL     1       8.795   7.699  19.818  0.00  0.00    +0.000 HD
ENDBRANCH   4  11
ENDBRANCH   1   7
BRANCH   1  14
ATOM     14  N   UNL     1       3.803   5.551  17.577  0.00  0.00    +0.000 NA
ATOM     15  C   UNL     1       3.869   7.018  17.635  0.00  0.00    +0.000 C 
BRANCH  14  16
ATOM     16  C   UNL     1       2.431   5.027  17.783  0.00  0.00    +0.000 C 
BRANCH  16  17
ATOM     17  C   UNL     1       2.178   4.309  19.093  0.00  0.00    +0.000 A 
ATOM     18  C   UNL     1       2.458   4.901  20.333  0.00  0.00    +0.000 A 
ATOM     19  C   UNL     1       2.208   4.211  21.521  0.00  0.00    +0.000 A 
ATOM     20  C   UNL     1       1.651   2.935  21.484  0.00  0.00    +0.000 A 
ATOM     21  C   UNL     1       1.357   2.340  20.258  0.00  0.00    +0.000 A 
ATOM     22  C   UNL     1       1.620   3.022  19.071  0.00  0.00    +0.000 A 
ENDBRANCH  16  17
ENDBRANCH  14  16
ENDBRANCH   1  14
TORSDOF 5
ENDMDL
MODEL 7
REMARK VINA RESULT:      -6.8      1.106      1.121
REMARK  Name = 
REMARK  7 active torsions:
REMARK  status: ('A' for Active; 'I' for Inactive)
REMARK    1  A    between atoms: C_1  and  N_2
REMARK    2  A    between atoms: C_3  and  C_5
REMARK    3  A    between atoms: N_8  and  S_9
REMARK    4  A    between atoms: S_9  and  N_12
REMARK    5  A    between atoms: N_12  and  C_13
REMARK    6  A    between atoms: N_12  and  C_14
REMARK    7  A    between atoms: C_14  and  C_15
REMARK                            x       y       z     vdW  Elec       q    Type
REMARK                         _______ _______ _______ _____ _____    ______ ____
ROOT
ATOM      1  S   UNL     1       3.922   3.823  18.342  0.00  0.00    +0.000 S 
ATOM      2  O   UNL     1       3.593   2.429  18.192  0.00  0.00    +0.000 OA
ATOM      3  O   UNL     1       5.076   4.239  19.110  0.00  0.00    +0.000 OA
ENDROOT
BRANCH   1   7
ATOM      4  C   UNL     1       6.137   5.668  16.189  0.00  0.00    +0.000 C 
ATOM      5  C   UNL     1       6.340   4.162  16.059  0.00  0.00    +0.000 C 
ATOM      6  C   UNL     1       4.933   3.647  15.854  0.00  0.00    +0.000 C 
ATOM      7  N   UNL     1       4.109   4.472  16.777  0.00  0.00    +0.000 NA
ATOM      8  C   UNL     1       4.711   5.851  16.716  0.00  0.00    +0.000 C 
BRANCH   4  11
ATOM      9  C   UNL     1       8.237   6.387  19.279  0.00  0.00    +0.000 C 
ATOM     10  N   UNL     1       7.313   5.814  18.337  0.00  0.00    +0.000 N 
ATOM     11  C   UNL     1       7.176   6.337  17.069  0.00  0.00    +0.000 C 
ATOM     12  O   UNL     1       7.844   7.277  16.658  0.00  0.00    +0.000 OA
ATOM     13  H   UNL     1       6.593   5.191  18.709  0.00  0.00    +0.000 HD
ENDBRANCH   4  11
ENDBRANCH   1   7
BRANCH   1  14
ATOM     14  N   UNL     1       2.566   4.647  18.906  0.00  0.00    +0.000 NA
ATOM     15  C   UNL     1       1.330   3.897  19.176  0.00  0.00    +0.000 C 
BRANCH  14  16
ATOM     16  C   UNL     1       2.814   5.724  19.895  0.00  0.00    +0.000 C 
BRANCH  16  17
ATOM     17  C   UNL     1       2.221   7.080  19.570  0.00  0.00    +0.000 A 
ATOM     18  C   UNL     1       1.615   7.881  20.548  0.00  0.00    +0.000 A 
ATOM     19  C   UNL     1       1.082   9.129  20.213  0.00  0.00    +0.000 A 
ATOM     20  C   UNL     1       1.175   9.599  18.905  0.00  0.00    +0.000 A 
ATOM     21  C   UNL     1       1.785   8.817  17.926  0.00  0.00    +0.000 A 
ATOM     22  C   UNL     1       2.304   7.566  18.256  0.00  0.00    +0.000 A 
ENDBRANCH  16  17
ENDBRANCH  14  16
ENDBRANCH   1  14
TORSDOF 5
ENDMDL
MODEL 8
REMARK VINA RESULT:      -6.8      1.830      2.895
REMARK  Name = 
REMARK  7 active torsions:
REMARK  status: ('A' for Active; 'I' for Inactive)
REMARK    1  A    between atoms: C_1  and  N_2
REMARK    2  A    between atoms: C_3  and  C_5
REMARK    3  A    between atoms: N_8  and  S_9
REMARK    4  A    between atoms: S_9  and  N_12
REMARK    5  A    between atoms: N_12  and  C_13
REMARK    6  A    between atoms: N_12  and  C_14
REMARK    7  A    between atoms: C_14  and  C_15
REMARK                            x       y       z     vdW  Elec       q    Type
REMARK                         _______ _______ _______ _____ _____    ______ ____
ROOT
ATOM      1  S   UNL     1       4.662   3.923  18.245  0.00  0.00    +0.000 S 
ATOM      2  O   UNL     1       4.663   3.299  16.947  0.00  0.00    +0.000 OA
ATOM      3  O   UNL     1       4.790   3.134  19.452  0.00  0.00    +0.000 OA
ENDROOT
BRANCH   1   7
ATOM      4  C   UNL     1       6.956   5.771  16.180  0.00  0.00    +0.000 C 
ATOM      5  C   UNL     1       5.672   6.550  16.443  0.00  0.00    +0.000 C 
ATOM      6  C   UNL     1       5.520   6.456  17.945  0.00  0.00    +0.000 C 
ATOM      7  N   UNL     1       5.929   5.061  18.262  0.00  0.00    +0.000 NA
ATOM      8  C   UNL     1       7.076   4.767  17.331  0.00  0.00    +0.000 C 
BRANCH   4  11
ATOM      9  C   UNL     1       5.856   3.545  13.298  0.00  0.00    +0.000 C 
ATOM     10  N   UNL     1       5.925   4.266  14.542  0.00  0.00    +0.000 N 
ATOM     11  C   UNL     1       6.982   5.105  14.817  0.00  0.00    +0.000 C 
ATOM     12  O   UNL     1       7.891   5.318  14.026  0.00  0.00    +0.000 OA
ATOM     13  H   UNL     1       5.319   3.945  15.301  0.00  0.00    +0.000 HD
ENDBRANCH   4  11
ENDBRANCH   1   7
BRANCH   1  14
ATOM     14  N   UNL     1       3.301   4.906  18.378  0.00  0.00    +0.000 NA
ATOM     15  C   UNL     1       2.041   4.477  17.754  0.00  0.00    +0.000 C 
BRANCH  14  16
ATOM     16  C   UNL     1       3.098   5.575  19.686  0.00  0.00    +0.000 C 
BRANCH  16  17
ATOM     17  C   UNL     1       2.387   6.912  19.649  0.00  0.00    +0.000 A 
ATOM     18  C   UNL     1       2.396   7.730  18.510  0.00  0.00    +0.000 A 
ATOM     19  C   UNL     1       1.726   8.956  18.511  0.00  0.00    +0.000 A 
ATOM     20  C   UNL     1       1.017   9.363  19.639  0.00  0.00    +0.000 A 
ATOM     21  C   UNL     1       0.990   8.554  20.773  0.00  0.00    +0.000 A 
ATOM     22  C   UNL     1       1.671   7.337  20.779  0.00  0.00    +0.000 A 
ENDBRANCH  16  17
ENDBRANCH  14  16
ENDBRANCH   1  14
TORSDOF 5
ENDMDL
MODEL 9
REMARK VINA RESULT:      -6.7      2.577      4.432
REMARK  Name = 
REMARK  7 active torsions:
REMARK  status: ('A' for Active; 'I' for Inactive)
REMARK    1  A    between atoms: C_1  and  N_2
REMARK    2  A    between atoms: C_3  and  C_5
REMARK    3  A    between atoms: N_8  and  S_9
REMARK    4  A    between atoms: S_9  and  N_12
REMARK    5  A    between atoms: N_12  and  C_13
REMARK    6  A    between atoms: N_12  and  C_14
REMARK    7  A    between atoms: C_14  and  C_15
REMARK                            x       y       z     vdW  Elec       q    Type
REMARK                         _______ _______ _______ _____ _____    ______ ____
ROOT
ATOM      1  S   UNL     1       4.789   6.528  17.295  0.00  0.00    +0.000 S 
ATOM      2  O   UNL     1       5.749   7.308  18.031  0.00  0.00    +0.000 OA
ATOM      3  O   UNL     1       4.533   6.788  15.894  0.00  0.00    +0.000 OA
ENDROOT
BRANCH   1   7
ATOM      4  C   UNL     1       6.684   3.909  15.715  0.00  0.00    +0.000 C 
ATOM      5  C   UNL     1       7.515   4.676  16.739  0.00  0.00    +0.000 C 
ATOM      6  C   UNL     1       6.627   4.679  17.963  0.00  0.00    +0.000 C 
ATOM      7  N   UNL     1       5.260   4.895  17.416  0.00  0.00    +0.000 NA
ATOM      8  C   UNL     1       5.223   4.114  16.130  0.00  0.00    +0.000 C 
BRANCH   4  11
ATOM      9  C   UNL     1       6.666   3.791  11.913  0.00  0.00    +0.000 C 
ATOM     10  N   UNL     1       6.444   3.512  13.307  0.00  0.00    +0.000 N 
ATOM     11  C   UNL     1       6.952   4.339  14.285  0.00  0.00    +0.000 C 
ATOM     12  O   UNL     1       7.576   5.363  14.039  0.00  0.00    +0.000 OA
ATOM     13  H   UNL     1       6.133   2.569  13.550  0.00  0.00    +0.000 HD
ENDBRANCH   4  11
ENDBRANCH   1   7
BRANCH   1  14
ATOM     14  N   UNL     1       3.325   6.536  18.127  0.00  0.00    +0.000 NA
ATOM     15  C   UNL     1       2.549   7.782  18.203  0.00  0.00    +0.000 C 
BRANCH  14  16
ATOM     16  C   UNL     1       2.471   5.334  17.970  0.00  0.00    +0.000 C 
BRANCH  16  17
ATOM     17  C   UNL     1       2.375   4.420  19.174  0.00  0.00    +0.000 A 
ATOM     18  C   UNL     1       1.263   4.430  20.030  0.00  0.00    +0.000 A 
ATOM     19  C   UNL     1       1.206   3.570  21.130  0.00  0.00    +0.000 A 
ATOM     20  C   UNL     1       2.244   2.673  21.368  0.00  0.00    +0.000 A 
ATOM     21  C   UNL     1       3.349   2.644  20.519  0.00  0.00    +0.000 A 
ATOM     22  C   UNL     1       3.414   3.512  19.430  0.00  0.00    +0.000 A 
ENDBRANCH  16  17
ENDBRANCH  14  16
ENDBRANCH   1  14
TORSDOF 5
ENDMDL
