MODEL 1
REMARK VINA RESULT:      -7.3      0.000      0.000
REMARK  Name = 
REMARK  7 active torsions:
REMARK  status: ('A' for Active; 'I' for Inactive)
REMARK    1  A    between atoms: C_1  and  O_2
REMARK    2  A    between atoms: O_2  and  C_3
REMARK    3  A    between atoms: C_7  and  O_8
REMARK    4  A    between atoms: O_8  and  C_9
REMARK    5  A    between atoms: C_10  and  C_11
REMARK    6  A    between atoms: N_17  and  C_18
REMARK    7  A    between atoms: C_18  and  C_19
REMARK                            x       y       z     vdW  Elec       q    Type
REMARK                         _______ _______ _______ _____ _____    ______ ____
ROOT
ATOM      1  C   UNL     1       5.482   4.986  17.984  0.00  0.00    +0.000 C 
ATOM      2  C   UNL     1       5.943   5.066  19.446  0.00  0.00    +0.000 C 
ATOM      3  C   UNL     1       7.459   5.177  19.472  0.00  0.00    +0.000 C 
ATOM      4  C   UNL     1       7.864   6.476  18.810  0.00  0.00    +0.000 C 
ATOM      5  C   UNL     1       7.273   6.678  17.428  0.00  0.00    +0.000 C 
ATOM      6  O   UNL     1       7.822   7.477  16.665  0.00  0.00    +0.000 OA
ATOM      7  N   UNL     1       6.086   6.025  17.112  0.00  0.00    +0.000 N 
ENDROOT
BRANCH   1  13
ATOM      8  C   UNL     1       3.426   3.510  17.690  0.00  0.00    +0.000 A 
ATOM      9  C   UNL     1       2.042   3.299  17.705  0.00  0.00    +0.000 A 
ATOM     10  C   UNL     1       1.170   4.371  17.819  0.00  0.00    +0.000 A 
ATOM     11  C   UNL     1       1.676   5.658  17.958  0.00  0.00    +0.000 A 
ATOM     12  C   UNL     1       3.059   5.885  18.036  0.00  0.00    +0.000 A 
ATOM     13  C   UNL     1       3.962   4.806  17.893  0.00  0.00    +0.000 A 
BRANCH   8  15
ATOM     14  C   UNL     1       4.009   1.286  18.245  0.00  0.00    +0.000 C 
ATOM     15  O   UNL     1       4.309   2.472  17.507  0.00  0.00    +0.000 OA
ENDBRANCH   8  15
BRANCH  12  16
ATOM     16  O   UNL     1       3.601   7.135  18.207  0.00  0.00    +0.000 OA
ATOM     17  C   UNL     1       2.789   8.246  17.843  0.00  0.00    +0.000 C 
ENDBRANCH  12  16
ENDBRANCH   1  13
BRANCH   7  18
ATOM     18  C   UNL     1       5.574   6.218  15.752  0.00  0.00    +0.000 C 
BRANCH  18  19
ATOM     19  C   UNL     1       5.981   5.218  14.682  0.00  0.00    +0.000 A 
ATOM     20  C   UNL     1       5.164   4.183  14.200  0.00  0.00    +0.000 A 
ATOM     21  C   UNL     1       5.550   3.401  13.108  0.00  0.00    +0.000 A 
ATOM     22  C   UNL     1       6.774   3.629  12.506  0.00  0.00    +0.000 A 
ATOM     23  F   UNL     1       7.137   2.893  11.453  0.00  0.00    +0.000 F 
ATOM     24  C   UNL     1       7.629   4.610  12.983  0.00  0.00    +0.000 A 
ATOM     25  C   UNL     1       7.231   5.406  14.060  0.00  0.00    +0.000 A 
ENDBRANCH  18  19
ENDBRANCH   7  18
TORSDOF 5
ENDMDL
MODEL 2
REMARK VINA RESULT:      -7.2      0.092      2.601
REMARK  Name = 
REMARK  7 active torsions:
REMARK  status: ('A' for Active; 'I' for Inactive)
REMARK    1  A    between atoms: C_1  and  O_2
REMARK    2  A    between atoms: O_2  and  C_3
REMARK    3  A    between atoms: C_7  and  O_8
REMARK    4  A    between atoms: O_8  and  C_9
REMARK    5  A    between atoms: C_10  and  C_11
REMARK    6  A    between atoms: N_17  and  C_18
REMARK    7  A    between atoms: C_18  and  C_19
REMARK                            x       y       z     vdW  Elec       q    Type
REMARK                         _______ _______ _______ _____ _____    ______ ____
ROOT
ATOM      1  C   UNL     1       5.520   4.984  18.013  0.00  0.00    +0.000 C 
ATOM      2  C   UNL     1       5.989   5.077  19.471  0.00  0.00    +0.000 C 
ATOM      3  C   UNL     1       7.498   5.256  19.487  0.00  0.00    +0.000 C 
ATOM      4  C   UNL     1       7.839   6.575  18.829  0.00  0.00    +0.000 C 
ATOM      5  C   UNL     1       7.229   6.758  17.453  0.00  0.00    +0.000 C 
ATOM      6  O   UNL     1       7.735   7.585  16.690  0.00  0.00    +0.000 OA
ATOM      7  N   UNL     1       6.070   6.053  17.142  0.00  0.00    +0.000 N 
ENDROOT
BRANCH   1  13
ATOM      8  C   UNL     1       3.118   5.833  18.029  0.00  0.00    +0.000 A 
ATOM      9  C   UNL     1       1.740   5.652  17.857  0.00  0.00    +0.000 A 
ATOM     10  C   UNL     1       1.215   4.379  17.689  0.00  0.00    +0.000 A 
ATOM     11  C   UNL     1       2.069   3.282  17.651  0.00  0.00    +0.000 A 
ATOM     12  C   UNL     1       3.461   3.447  17.731  0.00  0.00    +0.000 A 
ATOM     13  C   UNL     1       4.010   4.735  17.932  0.00  0.00    +0.000 A 
BRANCH   8  15
ATOM     14  C   UNL     1       2.806   8.175  17.935  0.00  0.00    +0.000 C 
ATOM     15  O   UNL     1       3.655   7.076  18.268  0.00  0.00    +0.000 OA
ENDBRANCH   8  15
BRANCH  12  16
ATOM     16  O   UNL     1       4.341   2.397  17.666  0.00  0.00    +0.000 OA
ATOM     17  C   UNL     1       3.991   1.216  18.380  0.00  0.00    +0.000 C 
ENDBRANCH  12  16
ENDBRANCH   1  13
BRANCH   7  18
ATOM     18  C   UNL     1       5.539   6.231  15.787  0.00  0.00    +0.000 C 
BRANCH  18  19
ATOM     19  C   UNL     1       5.954   5.233  14.717  0.00  0.00    +0.000 A 
ATOM     20  C   UNL     1       5.136   4.206  14.218  0.00  0.00    +0.000 A 
ATOM     21  C   UNL     1       5.532   3.428  13.127  0.00  0.00    +0.000 A 
ATOM     22  C   UNL     1       6.765   3.651  12.543  0.00  0.00    +0.000 A 
ATOM     23  F   UNL     1       7.137   2.918  11.491  0.00  0.00    +0.000 F 
ATOM     24  C   UNL     1       7.620   4.624  13.036  0.00  0.00    +0.000 A 
ATOM     25  C   UNL     1       7.213   5.416  14.113  0.00  0.00    +0.000 A 
ENDBRANCH  18  19
ENDBRANCH   7  18
TORSDOF 5
ENDMDL
MODEL 3
REMARK VINA RESULT:      -6.5      2.768      5.124
REMARK  Name = 
REMARK  7 active torsions:
REMARK  status: ('A' for Active; 'I' for Inactive)
REMARK    1  A    between atoms: C_1  and  O_2
REMARK    2  A    between atoms: O_2  and  C_3
REMARK    3  A    between atoms: C_7  and  O_8
REMARK    4  A    between atoms: O_8  and  C_9
REMARK    5  A    between atoms: C_10  and  C_11
REMARK    6  A    between atoms: N_17  and  C_18
REMARK    7  A    between atoms: C_18  and  C_19
REMARK                            x       y       z     vdW  Elec       q    Type
REMARK                         _______ _______ _______ _____ _____    ______ ____
ROOT
ATOM      1  C   UNL     1       4.688   5.176  17.174  0.00  0.00    +0.000 C 
ATOM      2  C   UNL     1       4.089   4.227  16.128  0.00  0.00    +0.000 C 
ATOM      3  C   UNL     1       4.990   4.221  14.904  0.00  0.00    +0.000 C 
ATOM      4  C   UNL     1       6.337   3.654  15.293  0.00  0.00    +0.000 C 
ATOM      5  C   UNL     1       6.968   4.325  16.497  0.00  0.00    +0.000 C 
ATOM      6  O   UNL     1       8.187   4.219  16.659  0.00  0.00    +0.000 OA
ATOM      7  N   UNL     1       6.137   4.955  17.418  0.00  0.00    +0.000 N 
ENDROOT
BRANCH   1  13
ATOM      8  C   UNL     1       3.127   6.498  18.694  0.00  0.00    +0.000 A 
ATOM      9  C   UNL     1       2.219   6.590  19.756  0.00  0.00    +0.000 A 
ATOM     10  C   UNL     1       2.026   5.515  20.609  0.00  0.00    +0.000 A 
ATOM     11  C   UNL     1       2.710   4.326  20.384  0.00  0.00    +0.000 A 
ATOM     12  C   UNL     1       3.558   4.179  19.274  0.00  0.00    +0.000 A 
ATOM     13  C   UNL     1       3.787   5.276  18.411  0.00  0.00    +0.000 A 
BRANCH   8  15
ATOM     14  C   UNL     1       2.334   8.530  17.781  0.00  0.00    +0.000 C 
ATOM     15  O   UNL     1       3.389   7.572  17.877  0.00  0.00    +0.000 OA
ENDBRANCH   8  15
BRANCH  12  16
ATOM     16  O   UNL     1       4.227   3.014  18.995  0.00  0.00    +0.000 OA
ATOM     17  C   UNL     1       3.435   1.849  18.788  0.00  0.00    +0.000 C 
ENDBRANCH  12  16
ENDBRANCH   1  13
BRANCH   7  18
ATOM     18  C   UNL     1       6.794   5.625  18.544  0.00  0.00    +0.000 C 
BRANCH  18  19
ATOM     19  C   UNL     1       7.409   6.994  18.305  0.00  0.00    +0.000 A 
ATOM     20  C   UNL     1       6.934   7.936  17.379  0.00  0.00    +0.000 A 
ATOM     21  C   UNL     1       7.457   9.231  17.326  0.00  0.00    +0.000 A 
ATOM     22  C   UNL     1       8.483   9.587  18.182  0.00  0.00    +0.000 A 
ATOM     23  F   UNL     1       8.972  10.828  18.143  0.00  0.00    +0.000 F 
ATOM     24  C   UNL     1       9.010   8.670  19.079  0.00  0.00    +0.000 A 
ATOM     25  C   UNL     1       8.470   7.384  19.146  0.00  0.00    +0.000 A 
ENDBRANCH  18  19
ENDBRANCH   7  18
TORSDOF 5
ENDMDL
MODEL 4
REMARK VINA RESULT:      -6.3      2.757      4.443
REMARK  Name = 
REMARK  7 active torsions:
REMARK  status: ('A' for Active; 'I' for Inactive)
REMARK    1  A    between atoms: C_1  and  O_2
REMARK    2  A    between atoms: O_2  and  C_3
REMARK    3  A    between atoms: C_7  and  O_8
REMARK    4  A    between atoms: O_8  and  C_9
REMARK    5  A    between atoms: C_10  and  C_11
REMARK    6  A    between atoms: N_17  and  C_18
REMARK    7  A    between atoms: C_18  and  C_19
REMARK                            x       y       z     vdW  Elec       q    Type
REMARK                         _______ _______ _______ _____ _____    ______ ____
ROOT
ATOM      1  C   UNL     1       4.665   5.161  17.093  0.00  0.00    +0.000 C 
ATOM      2  C   UNL     1       4.097   4.212  16.029  0.00  0.00    +0.000 C 
ATOM      3  C   UNL     1       5.029   4.216  14.828  0.00  0.00    +0.000 C 
ATOM      4  C   UNL     1       6.369   3.656  15.249  0.00  0.00    +0.000 C 
ATOM      5  C   UNL     1       6.966   4.327  16.470  0.00  0.00    +0.000 C 
ATOM      6  O   UNL     1       8.181   4.228  16.662  0.00  0.00    +0.000 OA
ATOM      7  N   UNL     1       6.108   4.949  17.372  0.00  0.00    +0.000 N 
ENDROOT
BRANCH   1  13
ATOM      8  C   UNL     1       3.500   4.094  19.093  0.00  0.00    +0.000 A 
ATOM      9  C   UNL     1       2.736   4.168  20.264  0.00  0.00    +0.000 A 
ATOM     10  C   UNL     1       2.111   5.353  20.621  0.00  0.00    +0.000 A 
ATOM     11  C   UNL     1       2.278   6.484  19.830  0.00  0.00    +0.000 A 
ATOM     12  C   UNL     1       3.111   6.459  18.700  0.00  0.00    +0.000 A 
ATOM     13  C   UNL     1       3.732   5.251  18.307  0.00  0.00    +0.000 A 
BRANCH   8  15
ATOM     14  C   UNL     1       3.199   1.782  18.699  0.00  0.00    +0.000 C 
ATOM     15  O   UNL     1       4.070   2.913  18.680  0.00  0.00    +0.000 OA
ENDBRANCH   8  15
BRANCH  12  16
ATOM     16  O   UNL     1       3.330   7.560  17.910  0.00  0.00    +0.000 OA
ATOM     17  C   UNL     1       2.260   8.491  17.790  0.00  0.00    +0.000 C 
ENDBRANCH  12  16
ENDBRANCH   1  13
BRANCH   7  18
ATOM     18  C   UNL     1       6.732   5.619  18.516  0.00  0.00    +0.000 C 
BRANCH  18  19
ATOM     19  C   UNL     1       7.367   6.982  18.291  0.00  0.00    +0.000 A 
ATOM     20  C   UNL     1       6.900   7.944  17.382  0.00  0.00    +0.000 A 
ATOM     21  C   UNL     1       7.443   9.231  17.342  0.00  0.00    +0.000 A 
ATOM     22  C   UNL     1       8.482   9.558  18.194  0.00  0.00    +0.000 A 
ATOM     23  F   UNL     1       8.990  10.792  18.169  0.00  0.00    +0.000 F 
ATOM     24  C   UNL     1       9.001   8.621  19.074  0.00  0.00    +0.000 A 
ATOM     25  C   UNL     1       8.442   7.342  19.127  0.00  0.00    +0.000 A 
ENDBRANCH  18  19
ENDBRANCH   7  18
TORSDOF 5
ENDMDL
MODEL 5
REMARK VINA RESULT:      -6.3      3.075      6.321
REMARK  Name = 
REMARK  7 active torsions:
REMARK  status: ('A' for Active; 'I' for Inactive)
REMARK    1  A    between atoms: C_1  and  O_2
REMARK    2  A    between atoms: O_2  and  C_3
REMARK    3  A    between atoms: C_7  and  O_8
REMARK    4  A    between atoms: O_8  and  C_9
REMARK    5  A    between atoms: C_10  and  C_11
REMARK    6  A    between atoms: N_17  and  C_18
REMARK    7  A    between atoms: C_18  and  C_19
REMARK                            x       y       z     vdW  Elec       q    Type
REMARK                         _______ _______ _______ _____ _____    ______ ____
ROOT
ATOM      1  C   UNL     1       4.791   4.051  18.510  0.00  0.00    +0.000 C 
ATOM      2  C   UNL     1       4.618   2.942  17.463  0.00  0.00    +0.000 C 
ATOM      3  C   UNL     1       3.686   1.882  18.027  0.00  0.00    +0.000 C 
ATOM      4  C   UNL     1       2.322   2.498  18.247  0.00  0.00    +0.000 C 
ATOM      5  C   UNL     1       2.342   3.774  19.065  0.00  0.00    +0.000 C 
ATOM      6  O   UNL     1       1.300   4.135  19.619  0.00  0.00    +0.000 OA
ATOM      7  N   UNL     1       3.509   4.532  19.084  0.00  0.00    +0.000 N 
ENDROOT
BRANCH   1  13
ATOM      8  C   UNL     1       5.638   5.649  16.715  0.00  0.00    +0.000 A 
ATOM      9  C   UNL     1       6.456   6.699  16.279  0.00  0.00    +0.000 A 
ATOM     10  C   UNL     1       7.481   7.171  17.085  0.00  0.00    +0.000 A 
ATOM     11  C   UNL     1       7.670   6.624  18.349  0.00  0.00    +0.000 A 
ATOM     12  C   UNL     1       6.807   5.634  18.844  0.00  0.00    +0.000 A 
ATOM     13  C   UNL     1       5.775   5.121  18.024  0.00  0.00    +0.000 A 
BRANCH   8  15
ATOM     14  C   UNL     1       5.103   4.718  14.609  0.00  0.00    +0.000 C 
ATOM     15  O   UNL     1       4.662   5.116  15.907  0.00  0.00    +0.000 OA
ENDBRANCH   8  15
BRANCH  12  16
ATOM     16  O   UNL     1       6.936   5.090  20.097  0.00  0.00    +0.000 OA
ATOM     17  C   UNL     1       8.215   5.189  20.716  0.00  0.00    +0.000 C 
ENDBRANCH  12  16
ENDBRANCH   1  13
BRANCH   7  18
ATOM     18  C   UNL     1       3.495   5.736  19.921  0.00  0.00    +0.000 C 
BRANCH  18  19
ATOM     19  C   UNL     1       2.671   6.925  19.455  0.00  0.00    +0.000 A 
ATOM     20  C   UNL     1       1.820   7.682  20.276  0.00  0.00    +0.000 A 
ATOM     21  C   UNL     1       1.216   8.854  19.813  0.00  0.00    +0.000 A 
ATOM     22  C   UNL     1       1.436   9.265  18.511  0.00  0.00    +0.000 A 
ATOM     23  F   UNL     1       0.873  10.393  18.073  0.00  0.00    +0.000 F 
ATOM     24  C   UNL     1       2.233   8.520  17.656  0.00  0.00    +0.000 A 
ATOM     25  C   UNL     1       2.854   7.361  18.128  0.00  0.00    +0.000 A 
ENDBRANCH  18  19
ENDBRANCH   7  18
TORSDOF 5
ENDMDL
MODEL 6
REMARK VINA RESULT:      -6.2      9.016     12.124
REMARK  Name = 
REMARK  7 active torsions:
REMARK  status: ('A' for Active; 'I' for Inactive)
REMARK    1  A    between atoms: C_1  and  O_2
REMARK    2  A    between atoms: O_2  and  C_3
REMARK    3  A    between atoms: C_7  and  O_8
REMARK    4  A    between atoms: O_8  and  C_9
REMARK    5  A    between atoms: C_10  and  C_11
REMARK    6  A    between atoms: N_17  and  C_18
REMARK    7  A    between atoms: C_18  and  C_19
REMARK                            x       y       z     vdW  Elec       q    Type
REMARK                         _______ _______ _______ _____ _____    ______ ____
ROOT
ATOM      1  C   UNL     1      -1.438  11.401  22.120  0.00  0.00    +0.000 C 
ATOM      2  C   UNL     1      -0.522  10.499  22.959  0.00  0.00    +0.000 C 
ATOM      3  C   UNL     1      -0.469   9.124  22.313  0.00  0.00    +0.000 C 
ATOM      4  C   UNL     1       0.169   9.252  20.947  0.00  0.00    +0.000 C 
ATOM      5  C   UNL     1      -0.468  10.305  20.061  0.00  0.00    +0.000 C 
ATOM      6  O   UNL     1      -0.297  10.229  18.841  0.00  0.00    +0.000 OA
ATOM      7  N   UNL     1      -1.140  11.362  20.666  0.00  0.00    +0.000 N 
ENDROOT
BRANCH   1  13
ATOM      8  C   UNL     1      -2.758  13.094  23.493  0.00  0.00    +0.000 A 
ATOM      9  C   UNL     1      -2.876  14.312  24.173  0.00  0.00    +0.000 A 
ATOM     10  C   UNL     1      -1.890  15.280  24.057  0.00  0.00    +0.000 A 
ATOM     11  C   UNL     1      -0.758  15.020  23.292  0.00  0.00    +0.000 A 
ATOM     12  C   UNL     1      -0.574  13.773  22.674  0.00  0.00    +0.000 A 
ATOM     13  C   UNL     1      -1.584  12.786  22.759  0.00  0.00    +0.000 A 
BRANCH   8  15
ATOM     14  C   UNL     1      -4.681  12.294  24.611  0.00  0.00    +0.000 C 
ATOM     15  O   UNL     1      -3.754  12.148  23.535  0.00  0.00    +0.000 OA
ENDBRANCH   8  15
BRANCH  12  16
ATOM     16  O   UNL     1       0.541  13.463  21.938  0.00  0.00    +0.000 OA
ATOM     17  C   UNL     1       1.428  14.533  21.626  0.00  0.00    +0.000 C 
ENDBRANCH  12  16
ENDBRANCH   1  13
BRANCH   7  18
ATOM     18  C   UNL     1      -1.774  12.334  19.770  0.00  0.00    +0.000 C 
BRANCH  18  19
ATOM     19  C   UNL     1      -3.218  12.096  19.359  0.00  0.00    +0.000 A 
ATOM     20  C   UNL     1      -4.339  12.567  20.061  0.00  0.00    +0.000 A 
ATOM     21  C   UNL     1      -5.629  12.441  19.538  0.00  0.00    +0.000 A 
ATOM     22  C   UNL     1      -5.812  11.815  18.319  0.00  0.00    +0.000 A 
ATOM     23  F   UNL     1      -7.042  11.709  17.811  0.00  0.00    +0.000 F 
ATOM     24  C   UNL     1      -4.735  11.297  17.618  0.00  0.00    +0.000 A 
ATOM     25  C   UNL     1      -3.444  11.444  18.131  0.00  0.00    +0.000 A 
ENDBRANCH  18  19
ENDBRANCH   7  18
TORSDOF 5
ENDMDL
MODEL 7
REMARK VINA RESULT:      -6.1      6.495      9.387
REMARK  Name = 
REMARK  7 active torsions:
REMARK  status: ('A' for Active; 'I' for Inactive)
REMARK    1  A    between atoms: C_1  and  O_2
REMARK    2  A    between atoms: O_2  and  C_3
REMARK    3  A    between atoms: C_7  and  O_8
REMARK    4  A    between atoms: O_8  and  C_9
REMARK    5  A    between atoms: C_10  and  C_11
REMARK    6  A    between atoms: N_17  and  C_18
REMARK    7  A    between atoms: C_18  and  C_19
REMARK                            x       y       z     vdW  Elec       q    Type
REMARK                         _______ _______ _______ _____ _____    ______ ____
ROOT
ATOM      1  C   UNL     1       0.890  12.821  21.026  0.00  0.00    +0.000 C 
ATOM      2  C   UNL     1       1.567  14.123  21.477  0.00  0.00    +0.000 C 
ATOM      3  C   UNL     1       3.023  14.088  21.045  0.00  0.00    +0.000 C 
ATOM      4  C   UNL     1       3.082  14.062  19.533  0.00  0.00    +0.000 C 
ATOM      5  C   UNL     1       2.243  12.969  18.899  0.00  0.00    +0.000 C 
ATOM      6  O   UNL     1       2.511  12.615  17.747  0.00  0.00    +0.000 OA
ATOM      7  N   UNL     1       1.151  12.476  19.606  0.00  0.00    +0.000 N 
ENDROOT
BRANCH   1  13
ATOM      8  C   UNL     1      -0.949  11.828  22.485  0.00  0.00    +0.000 A 
ATOM      9  C   UNL     1      -2.249  11.824  23.005  0.00  0.00    +0.000 A 
ATOM     10  C   UNL     1      -3.215  12.672  22.485  0.00  0.00    +0.000 A 
ATOM     11  C   UNL     1      -2.878  13.559  21.469  0.00  0.00    +0.000 A 
ATOM     12  C   UNL     1      -1.560  13.645  20.994  0.00  0.00    +0.000 A 
ATOM     13  C   UNL     1      -0.570  12.767  21.493  0.00  0.00    +0.000 A 
BRANCH   8  15
ATOM     14  C   UNL     1      -0.487   9.670  23.333  0.00  0.00    +0.000 C 
ATOM     15  O   UNL     1       0.008  10.949  22.934  0.00  0.00    +0.000 OA
ENDBRANCH   8  15
BRANCH  12  16
ATOM     16  O   UNL     1      -1.176  14.528  20.016  0.00  0.00    +0.000 OA
ATOM     17  C   UNL     1      -1.483  15.902  20.230  0.00  0.00    +0.000 C 
ENDBRANCH  12  16
ENDBRANCH   1  13
BRANCH   7  18
ATOM     18  C   UNL     1       0.394  11.393  18.971  0.00  0.00    +0.000 C 
BRANCH  18  19
ATOM     19  C   UNL     1       0.998   9.998  18.974  0.00  0.00    +0.000 A 
ATOM     20  C   UNL     1       1.641   9.399  17.879  0.00  0.00    +0.000 A 
ATOM     21  C   UNL     1       2.305   8.177  18.005  0.00  0.00    +0.000 A 
ATOM     22  C   UNL     1       2.308   7.525  19.225  0.00  0.00    +0.000 A 
ATOM     23  F   UNL     1       2.957   6.366  19.350  0.00  0.00    +0.000 F 
ATOM     24  C   UNL     1       1.645   8.062  20.317  0.00  0.00    +0.000 A 
ATOM     25  C   UNL     1       1.001   9.295  20.195  0.00  0.00    +0.000 A 
ENDBRANCH  18  19
ENDBRANCH   7  18
TORSDOF 5
ENDMDL
MODEL 8
REMARK VINA RESULT:      -6.1      9.155     12.350
REMARK  Name = 
REMARK  7 active torsions:
REMARK  status: ('A' for Active; 'I' for Inactive)
REMARK    1  A    between atoms: C_1  and  O_2
REMARK    2  A    between atoms: O_2  and  C_3
REMARK    3  A    between atoms: C_7  and  O_8
REMARK    4  A    between atoms: O_8  and  C_9
REMARK    5  A    between atoms: C_10  and  C_11
REMARK    6  A    between atoms: N_17  and  C_18
REMARK    7  A    between atoms: C_18  and  C_19
REMARK                            x       y       z     vdW  Elec       q    Type
REMARK                         _______ _______ _______ _____ _____    ______ ____
ROOT
ATOM      1  C   UNL     1      -1.537  11.443  22.296  0.00  0.00    +0.000 C 
ATOM      2  C   UNL     1      -0.573  10.528  23.063  0.00  0.00    +0.000 C 
ATOM      3  C   UNL     1      -0.430   9.222  22.298  0.00  0.00    +0.000 C 
ATOM      4  C   UNL     1       0.208   9.510  20.957  0.00  0.00    +0.000 C 
ATOM      5  C   UNL     1      -0.487  10.597  20.160  0.00  0.00    +0.000 C 
ATOM      6  O   UNL     1      -0.303  10.641  18.940  0.00  0.00    +0.000 OA
ATOM      7  N   UNL     1      -1.227  11.553  20.848  0.00  0.00    +0.000 N 
ENDROOT
BRANCH   1  13
ATOM      8  C   UNL     1      -0.791  13.776  23.001  0.00  0.00    +0.000 A 
ATOM      9  C   UNL     1      -1.023  15.022  23.596  0.00  0.00    +0.000 A 
ATOM     10  C   UNL     1      -2.176  15.243  24.334  0.00  0.00    +0.000 A 
ATOM     11  C   UNL     1      -3.124  14.233  24.449  0.00  0.00    +0.000 A 
ATOM     12  C   UNL     1      -2.957  13.006  23.787  0.00  0.00    +0.000 A 
ATOM     13  C   UNL     1      -1.773  12.755  23.054  0.00  0.00    +0.000 A 
BRANCH   8  15
ATOM     14  C   UNL     1       0.907  14.607  21.581  0.00  0.00    +0.000 C 
ATOM     15  O   UNL     1       0.375  13.509  22.324  0.00  0.00    +0.000 OA
ENDBRANCH   8  15
BRANCH  12  16
ATOM     16  O   UNL     1      -3.882  11.994  23.845  0.00  0.00    +0.000 OA
ATOM     17  C   UNL     1      -5.077  12.253  24.575  0.00  0.00    +0.000 C 
ENDBRANCH  12  16
ENDBRANCH   1  13
BRANCH   7  18
ATOM     18  C   UNL     1      -1.914  12.561  20.034  0.00  0.00    +0.000 C 
BRANCH  18  19
ATOM     19  C   UNL     1      -3.314  12.245  19.531  0.00  0.00    +0.000 A 
ATOM     20  C   UNL     1      -3.602  11.507  18.372  0.00  0.00    +0.000 A 
ATOM     21  C   UNL     1      -4.910  11.127  18.060  0.00  0.00    +0.000 A 
ATOM     22  C   UNL     1      -5.947  11.507  18.891  0.00  0.00    +0.000 A 
ATOM     23  F   UNL     1      -7.195  11.130  18.602  0.00  0.00    +0.000 F 
ATOM     24  C   UNL     1      -5.708  12.276  20.019  0.00  0.00    +0.000 A 
ATOM     25  C   UNL     1      -4.397  12.635  20.342  0.00  0.00    +0.000 A 
ENDBRANCH  18  19
ENDBRANCH   7  18
TORSDOF 5
ENDMDL
MODEL 9
REMARK VINA RESULT:      -6.1      8.963     12.001
REMARK  Name = 
REMARK  7 active torsions:
REMARK  status: ('A' for Active; 'I' for Inactive)
REMARK    1  A    between atoms: C_1  and  O_2
REMARK    2  A    between atoms: O_2  and  C_3
REMARK    3  A    between atoms: C_7  and  O_8
REMARK    4  A    between atoms: O_8  and  C_9
REMARK    5  A    between atoms: C_10  and  C_11
REMARK    6  A    between atoms: N_17  and  C_18
REMARK    7  A    between atoms: C_18  and  C_19
REMARK                            x       y       z     vdW  Elec       q    Type
REMARK                         _______ _______ _______ _____ _____    ______ ____
ROOT
ATOM      1  C   UNL     1      -1.426  11.413  22.063  0.00  0.00    +0.000 C 
ATOM      2  C   UNL     1      -0.563  10.520  22.965  0.00  0.00    +0.000 C 
ATOM      3  C   UNL     1      -0.493   9.132  22.351  0.00  0.00    +0.000 C 
ATOM      4  C   UNL     1       0.213   9.224  21.016  0.00  0.00    +0.000 C 
ATOM      5  C   UNL     1      -0.367  10.265  20.078  0.00  0.00    +0.000 C 
ATOM      6  O   UNL     1      -0.137  10.161  18.870  0.00  0.00    +0.000 OA
ATOM      7  N   UNL     1      -1.057  11.341  20.626  0.00  0.00    +0.000 N 
ENDROOT
BRANCH   1  13
ATOM      8  C   UNL     1      -2.810  13.162  23.297  0.00  0.00    +0.000 A 
ATOM      9  C   UNL     1      -2.952  14.395  23.945  0.00  0.00    +0.000 A 
ATOM     10  C   UNL     1      -1.936  15.337  23.892  0.00  0.00    +0.000 A 
ATOM     11  C   UNL     1      -0.754  15.037  23.226  0.00  0.00    +0.000 A 
ATOM     12  C   UNL     1      -0.552  13.775  22.645  0.00  0.00    +0.000 A 
ATOM     13  C   UNL     1      -1.589  12.813  22.665  0.00  0.00    +0.000 A 
BRANCH   8  15
ATOM     14  C   UNL     1      -5.139  12.783  23.442  0.00  0.00    +0.000 C 
ATOM     15  O   UNL     1      -3.829  12.240  23.274  0.00  0.00    +0.000 OA
ENDBRANCH   8  15
BRANCH  12  16
ATOM     16  O   UNL     1       0.611  13.425  22.006  0.00  0.00    +0.000 OA
ATOM     17  C   UNL     1       1.413  14.486  21.498  0.00  0.00    +0.000 C 
ENDBRANCH  12  16
ENDBRANCH   1  13
BRANCH   7  18
ATOM     18  C   UNL     1      -1.635  12.300  19.680  0.00  0.00    +0.000 C 
BRANCH  18  19
ATOM     19  C   UNL     1      -3.016  12.007  19.114  0.00  0.00    +0.000 A 
ATOM     20  C   UNL     1      -3.268  11.207  17.989  0.00  0.00    +0.000 A 
ATOM     21  C   UNL     1      -4.570  10.858  17.623  0.00  0.00    +0.000 A 
ATOM     22  C   UNL     1      -5.637  11.333  18.363  0.00  0.00    +0.000 A 
ATOM     23  F   UNL     1      -6.881  10.987  18.024  0.00  0.00    +0.000 F 
ATOM     24  C   UNL     1      -5.430  12.164  19.454  0.00  0.00    +0.000 A 
ATOM     25  C   UNL     1      -4.126  12.493  19.832  0.00  0.00    +0.000 A 
ENDBRANCH  18  19
ENDBRANCH   7  18
TORSDOF 5
ENDMDL
