MODEL 1
REMARK VINA RESULT:      -7.5      0.000      0.000
REMARK  Name = 
REMARK  7 active torsions:
REMARK  status: ('A' for Active; 'I' for Inactive)
REMARK    1  A    between atoms: O_1  and  C_2
REMARK    2  A    between atoms: C_2  and  C_3
REMARK    3  A    between atoms: C_3  and  N_4
REMARK    4  A    between atoms: N_4  and  C_5
REMARK    5  A    between atoms: C_5  and  N_7
REMARK    6  A    between atoms: C_8  and  C_16
REMARK    7  A    between atoms: N_9  and  C_10
REMARK                            x       y       z     vdW  Elec       q    Type
REMARK                         _______ _______ _______ _____ _____    ______ ____
ROOT
ATOM      1  N   UNL     1       5.262   3.930  17.167  0.00  0.00    +0.000 N 
ATOM      2  C   UNL     1       4.241   4.675  17.778  0.00  0.00    +0.000 C 
ATOM      3  N   UNL     1       4.268   5.963  17.655  0.00  0.00    +0.000 NA
ATOM      4  H   UNL     1       5.249   2.928  17.296  0.00  0.00    +0.000 HD
ENDROOT
BRANCH   3   5
ATOM      5  C   UNL     1       3.344   6.866  18.195  0.00  0.00    +0.000 A 
ATOM      6  C   UNL     1       2.849   6.783  19.497  0.00  0.00    +0.000 A 
ATOM      7  C   UNL     1       1.916   7.712  19.964  0.00  0.00    +0.000 A 
ATOM      8  C   UNL     1       1.527   8.779  19.155  0.00  0.00    +0.000 A 
ATOM      9  C   UNL     1       2.070   8.915  17.881  0.00  0.00    +0.000 A 
ATOM     10  C   UNL     1       2.969   7.959  17.404  0.00  0.00    +0.000 A 
ENDBRANCH   3   5
BRANCH   2  11
ATOM     11  C   UNL     1       3.227   3.821  18.475  0.00  0.00    +0.000 A 
ATOM     12  C   UNL     1       1.999   3.549  17.855  0.00  0.00    +0.000 A 
ATOM     13  C   UNL     1       1.024   2.799  18.518  0.00  0.00    +0.000 A 
ATOM     14  C   UNL     1       1.285   2.288  19.789  0.00  0.00    +0.000 A 
ATOM     15  C   UNL     1       2.510   2.537  20.404  0.00  0.00    +0.000 A 
ATOM     16  C   UNL     1       3.471   3.322  19.760  0.00  0.00    +0.000 A 
ENDBRANCH   2  11
BRANCH   1  17
ATOM     17  C   UNL     1       6.248   4.314  16.277  0.00  0.00    +0.000 C 
ATOM     18  S   UNL     1       5.946   4.138  14.645  0.00  0.00    +0.000 S 
BRANCH  17  19
ATOM     19  N   UNL     1       7.345   4.894  16.831  0.00  0.00    +0.000 N 
ATOM     20  H   UNL     1       7.762   5.643  16.271  0.00  0.00    +0.000 HD
BRANCH  19  21
ATOM     21  C   UNL     1       7.925   4.653  18.142  0.00  0.00    +0.000 C 
BRANCH  21  22
ATOM     22  C   UNL     1       7.661   5.833  19.080  0.00  0.00    +0.000 C 
BRANCH  22  23
ATOM     23  O   UNL     1       7.987   5.480  20.421  0.00  0.00    +0.000 OA
ATOM     24  H   UNL     1       7.257   4.934  20.759  0.00  0.00    +0.000 HD
ENDBRANCH  22  23
ENDBRANCH  21  22
ENDBRANCH  19  21
ENDBRANCH  17  19
ENDBRANCH   1  17
TORSDOF 7
ENDMDL
MODEL 2
REMARK VINA RESULT:      -7.4      1.373      4.252
REMARK  Name = 
REMARK  7 active torsions:
REMARK  status: ('A' for Active; 'I' for Inactive)
REMARK    1  A    between atoms: O_1  and  C_2
REMARK    2  A    between atoms: C_2  and  C_3
REMARK    3  A    between atoms: C_3  and  N_4
REMARK    4  A    between atoms: N_4  and  C_5
REMARK    5  A    between atoms: C_5  and  N_7
REMARK    6  A    between atoms: C_8  and  C_16
REMARK    7  A    between atoms: N_9  and  C_10
REMARK                            x       y       z     vdW  Elec       q    Type
REMARK                         _______ _______ _______ _____ _____    ______ ____
ROOT
ATOM      1  N   UNL     1       4.516   6.966  17.006  0.00  0.00    +0.000 N 
ATOM      2  C   UNL     1       3.570   6.426  17.890  0.00  0.00    +0.000 C 
ATOM      3  N   UNL     1       3.604   5.153  18.118  0.00  0.00    +0.000 NA
ATOM      4  H   UNL     1       4.461   7.956  16.811  0.00  0.00    +0.000 HD
ENDROOT
BRANCH   3   5
ATOM      5  C   UNL     1       2.743   4.438  18.961  0.00  0.00    +0.000 A 
ATOM      6  C   UNL     1       1.512   3.920  18.553  0.00  0.00    +0.000 A 
ATOM      7  C   UNL     1       0.697   3.230  19.453  0.00  0.00    +0.000 A 
ATOM      8  C   UNL     1       1.142   2.987  20.752  0.00  0.00    +0.000 A 
ATOM      9  C   UNL     1       2.398   3.434  21.150  0.00  0.00    +0.000 A 
ATOM     10  C   UNL     1       3.190   4.161  20.258  0.00  0.00    +0.000 A 
ENDBRANCH   3   5
BRANCH   2  11
ATOM     11  C   UNL     1       2.656   7.459  18.475  0.00  0.00    +0.000 A 
ATOM     12  C   UNL     1       2.289   7.381  19.827  0.00  0.00    +0.000 A 
ATOM     13  C   UNL     1       1.396   8.308  20.370  0.00  0.00    +0.000 A 
ATOM     14  C   UNL     1       0.890   9.336  19.575  0.00  0.00    +0.000 A 
ATOM     15  C   UNL     1       1.264   9.431  18.236  0.00  0.00    +0.000 A 
ATOM     16  C   UNL     1       2.127   8.482  17.680  0.00  0.00    +0.000 A 
ENDBRANCH   2  11
BRANCH   1  17
ATOM     17  C   UNL     1       5.637   6.398  16.430  0.00  0.00    +0.000 C 
ATOM     18  S   UNL     1       5.426   5.428  15.088  0.00  0.00    +0.000 S 
BRANCH  17  19
ATOM     19  N   UNL     1       6.828   6.772  16.969  0.00  0.00    +0.000 N 
ATOM     20  H   UNL     1       7.244   7.609  16.550  0.00  0.00    +0.000 HD
BRANCH  19  21
ATOM     21  C   UNL     1       7.517   6.198  18.114  0.00  0.00    +0.000 C 
BRANCH  21  22
ATOM     22  C   UNL     1       7.617   4.677  17.984  0.00  0.00    +0.000 C 
BRANCH  22  23
ATOM     23  O   UNL     1       6.504   4.053  18.618  0.00  0.00    +0.000 OA
ATOM     24  H   UNL     1       6.765   3.139  18.820  0.00  0.00    +0.000 HD
ENDBRANCH  22  23
ENDBRANCH  21  22
ENDBRANCH  19  21
ENDBRANCH  17  19
ENDBRANCH   1  17
TORSDOF 7
ENDMDL
MODEL 3
REMARK VINA RESULT:      -7.4      1.386      4.076
REMARK  Name = 
REMARK  7 active torsions:
REMARK  status: ('A' for Active; 'I' for Inactive)
REMARK    1  A    between atoms: O_1  and  C_2
REMARK    2  A    between atoms: C_2  and  C_3
REMARK    3  A    between atoms: C_3  and  N_4
REMARK    4  A    between atoms: N_4  and  C_5
REMARK    5  A    between atoms: C_5  and  N_7
REMARK    6  A    between atoms: C_8  and  C_16
REMARK    7  A    between atoms: N_9  and  C_10
REMARK                            x       y       z     vdW  Elec       q    Type
REMARK                         _______ _______ _______ _____ _____    ______ ____
ROOT
ATOM      1  N   UNL     1       4.470   6.937  17.003  0.00  0.00    +0.000 N 
ATOM      2  C   UNL     1       3.555   6.401  17.923  0.00  0.00    +0.000 C 
ATOM      3  N   UNL     1       3.640   5.140  18.203  0.00  0.00    +0.000 NA
ATOM      4  H   UNL     1       4.375   7.915  16.768  0.00  0.00    +0.000 HD
ENDROOT
BRANCH   3   5
ATOM      5  C   UNL     1       2.817   4.431  19.087  0.00  0.00    +0.000 A 
ATOM      6  C   UNL     1       3.066   4.316  20.456  0.00  0.00    +0.000 A 
ATOM      7  C   UNL     1       2.209   3.578  21.276  0.00  0.00    +0.000 A 
ATOM      8  C   UNL     1       1.051   3.012  20.744  0.00  0.00    +0.000 A 
ATOM      9  C   UNL     1       0.752   3.182  19.396  0.00  0.00    +0.000 A 
ATOM     10  C   UNL     1       1.635   3.883  18.573  0.00  0.00    +0.000 A 
ENDBRANCH   3   5
BRANCH   2  11
ATOM     11  C   UNL     1       2.612   7.423  18.477  0.00  0.00    +0.000 A 
ATOM     12  C   UNL     1       2.116   8.439  17.647  0.00  0.00    +0.000 A 
ATOM     13  C   UNL     1       1.278   9.429  18.167  0.00  0.00    +0.000 A 
ATOM     14  C   UNL     1       0.903   9.389  19.509  0.00  0.00    +0.000 A 
ATOM     15  C   UNL     1       1.376   8.372  20.337  0.00  0.00    +0.000 A 
ATOM     16  C   UNL     1       2.247   7.404  19.829  0.00  0.00    +0.000 A 
ENDBRANCH   2  11
BRANCH   1  17
ATOM     17  C   UNL     1       5.604   6.387  16.435  0.00  0.00    +0.000 C 
ATOM     18  S   UNL     1       5.416   5.402  15.100  0.00  0.00    +0.000 S 
BRANCH  17  19
ATOM     19  N   UNL     1       6.785   6.787  16.974  0.00  0.00    +0.000 N 
ATOM     20  H   UNL     1       7.168   7.648  16.575  0.00  0.00    +0.000 HD
BRANCH  19  21
ATOM     21  C   UNL     1       7.503   6.209  18.099  0.00  0.00    +0.000 C 
BRANCH  21  22
ATOM     22  C   UNL     1       7.595   4.688  17.963  0.00  0.00    +0.000 C 
BRANCH  22  23
ATOM     23  O   UNL     1       6.527   4.063  18.667  0.00  0.00    +0.000 OA
ATOM     24  H   UNL     1       6.238   4.683  19.358  0.00  0.00    +0.000 HD
ENDBRANCH  22  23
ENDBRANCH  21  22
ENDBRANCH  19  21
ENDBRANCH  17  19
ENDBRANCH   1  17
TORSDOF 7
ENDMDL
MODEL 4
REMARK VINA RESULT:      -7.4      0.832      4.038
REMARK  Name = 
REMARK  7 active torsions:
REMARK  status: ('A' for Active; 'I' for Inactive)
REMARK    1  A    between atoms: O_1  and  C_2
REMARK    2  A    between atoms: C_2  and  C_3
REMARK    3  A    between atoms: C_3  and  N_4
REMARK    4  A    between atoms: N_4  and  C_5
REMARK    5  A    between atoms: C_5  and  N_7
REMARK    6  A    between atoms: C_8  and  C_16
REMARK    7  A    between atoms: N_9  and  C_10
REMARK                            x       y       z     vdW  Elec       q    Type
REMARK                         _______ _______ _______ _____ _____    ______ ____
ROOT
ATOM      1  N   UNL     1       4.878   5.685  16.886  0.00  0.00    +0.000 N 
ATOM      2  C   UNL     1       3.891   5.406  17.844  0.00  0.00    +0.000 C 
ATOM      3  N   UNL     1       3.768   4.185  18.256  0.00  0.00    +0.000 NA
ATOM      4  H   UNL     1       4.945   6.635  16.549  0.00  0.00    +0.000 HD
ENDROOT
BRANCH   3   5
ATOM      5  C   UNL     1       2.843   3.717  19.197  0.00  0.00    +0.000 A 
ATOM      6  C   UNL     1       1.496   3.482  18.911  0.00  0.00    +0.000 A 
ATOM      7  C   UNL     1       0.626   3.030  19.905  0.00  0.00    +0.000 A 
ATOM      8  C   UNL     1       1.113   2.736  21.178  0.00  0.00    +0.000 A 
ATOM      9  C   UNL     1       2.467   2.895  21.456  0.00  0.00    +0.000 A 
ATOM     10  C   UNL     1       3.324   3.389  20.470  0.00  0.00    +0.000 A 
ENDBRANCH   3   5
BRANCH   2  11
ATOM     11  C   UNL     1       3.130   6.621  18.275  0.00  0.00    +0.000 A 
ATOM     12  C   UNL     1       2.630   6.705  19.583  0.00  0.00    +0.000 A 
ATOM     13  C   UNL     1       1.873   7.810  19.981  0.00  0.00    +0.000 A 
ATOM     14  C   UNL     1       1.640   8.852  19.085  0.00  0.00    +0.000 A 
ATOM     15  C   UNL     1       2.149   8.786  17.789  0.00  0.00    +0.000 A 
ATOM     16  C   UNL     1       2.872   7.663  17.376  0.00  0.00    +0.000 A 
ENDBRANCH   2  11
BRANCH   1  17
ATOM     17  C   UNL     1       5.904   4.900  16.395  0.00  0.00    +0.000 C 
ATOM     18  S   UNL     1       6.129   4.843  14.742  0.00  0.00    +0.000 S 
BRANCH  17  19
ATOM     19  N   UNL     1       6.699   4.318  17.332  0.00  0.00    +0.000 N 
ATOM     20  H   UNL     1       6.579   3.306  17.427  0.00  0.00    +0.000 HD
BRANCH  19  21
ATOM     21  C   UNL     1       7.751   4.932  18.126  0.00  0.00    +0.000 C 
BRANCH  21  22
ATOM     22  C   UNL     1       7.179   5.559  19.398  0.00  0.00    +0.000 C 
BRANCH  22  23
ATOM     23  O   UNL     1       8.092   5.403  20.480  0.00  0.00    +0.000 OA
ATOM     24  H   UNL     1       8.227   4.448  20.604  0.00  0.00    +0.000 HD
ENDBRANCH  22  23
ENDBRANCH  21  22
ENDBRANCH  19  21
ENDBRANCH  17  19
ENDBRANCH   1  17
TORSDOF 7
ENDMDL
MODEL 5
REMARK VINA RESULT:      -7.3      2.013      4.528
REMARK  Name = 
REMARK  7 active torsions:
REMARK  status: ('A' for Active; 'I' for Inactive)
REMARK    1  A    between atoms: O_1  and  C_2
REMARK    2  A    between atoms: C_2  and  C_3
REMARK    3  A    between atoms: C_3  and  N_4
REMARK    4  A    between atoms: N_4  and  C_5
REMARK    5  A    between atoms: C_5  and  N_7
REMARK    6  A    between atoms: C_8  and  C_16
REMARK    7  A    between atoms: N_9  and  C_10
REMARK                            x       y       z     vdW  Elec       q    Type
REMARK                         _______ _______ _______ _____ _____    ______ ____
ROOT
ATOM      1  N   UNL     1       4.712   7.182  17.201  0.00  0.00    +0.000 N 
ATOM      2  C   UNL     1       3.682   6.545  17.911  0.00  0.00    +0.000 C 
ATOM      3  N   UNL     1       3.721   5.256  18.020  0.00  0.00    +0.000 NA
ATOM      4  H   UNL     1       4.655   8.185  17.095  0.00  0.00    +0.000 HD
ENDROOT
BRANCH   3   5
ATOM      5  C   UNL     1       2.786   4.452  18.683  0.00  0.00    +0.000 A 
ATOM      6  C   UNL     1       1.633   3.945  18.080  0.00  0.00    +0.000 A 
ATOM      7  C   UNL     1       0.736   3.161  18.809  0.00  0.00    +0.000 A 
ATOM      8  C   UNL     1       1.023   2.814  20.128  0.00  0.00    +0.000 A 
ATOM      9  C   UNL     1       2.206   3.250  20.717  0.00  0.00    +0.000 A 
ATOM     10  C   UNL     1       3.078   4.070  19.998  0.00  0.00    +0.000 A 
ENDBRANCH   3   5
BRANCH   2  11
ATOM     11  C   UNL     1       2.681   7.503  18.480  0.00  0.00    +0.000 A 
ATOM     12  C   UNL     1       2.160   8.528  17.675  0.00  0.00    +0.000 A 
ATOM     13  C   UNL     1       1.267   9.459  18.210  0.00  0.00    +0.000 A 
ATOM     14  C   UNL     1       0.863   9.353  19.540  0.00  0.00    +0.000 A 
ATOM     15  C   UNL     1       1.361   8.327  20.341  0.00  0.00    +0.000 A 
ATOM     16  C   UNL     1       2.287   7.418  19.820  0.00  0.00    +0.000 A 
ENDBRANCH   2  11
BRANCH   1  17
ATOM     17  C   UNL     1       5.906   6.688  16.710  0.00  0.00    +0.000 C 
ATOM     18  S   UNL     1       7.265   6.819  17.670  0.00  0.00    +0.000 S 
BRANCH  17  19
ATOM     19  N   UNL     1       5.830   6.049  15.513  0.00  0.00    +0.000 N 
ATOM     20  H   UNL     1       5.133   6.430  14.867  0.00  0.00    +0.000 HD
BRANCH  19  21
ATOM     21  C   UNL     1       6.675   4.977  15.010  0.00  0.00    +0.000 C 
BRANCH  21  22
ATOM     22  C   UNL     1       5.992   3.619  15.182  0.00  0.00    +0.000 C 
BRANCH  22  23
ATOM     23  O   UNL     1       5.667   3.400  16.552  0.00  0.00    +0.000 OA
ATOM     24  H   UNL     1       4.731   3.137  16.585  0.00  0.00    +0.000 HD
ENDBRANCH  22  23
ENDBRANCH  21  22
ENDBRANCH  19  21
ENDBRANCH  17  19
ENDBRANCH   1  17
TORSDOF 7
ENDMDL
MODEL 6
REMARK VINA RESULT:      -7.2      0.851      4.024
REMARK  Name = 
REMARK  7 active torsions:
REMARK  status: ('A' for Active; 'I' for Inactive)
REMARK    1  A    between atoms: O_1  and  C_2
REMARK    2  A    between atoms: C_2  and  C_3
REMARK    3  A    between atoms: C_3  and  N_4
REMARK    4  A    between atoms: N_4  and  C_5
REMARK    5  A    between atoms: C_5  and  N_7
REMARK    6  A    between atoms: C_8  and  C_16
REMARK    7  A    between atoms: N_9  and  C_10
REMARK                            x       y       z     vdW  Elec       q    Type
REMARK                         _______ _______ _______ _____ _____    ______ ____
ROOT
ATOM      1  N   UNL     1       4.843   6.477  16.772  0.00  0.00    +0.000 N 
ATOM      2  C   UNL     1       3.880   5.954  17.649  0.00  0.00    +0.000 C 
ATOM      3  N   UNL     1       3.874   4.676  17.858  0.00  0.00    +0.000 NA
ATOM      4  H   UNL     1       4.819   7.471  16.592  0.00  0.00    +0.000 HD
ENDROOT
BRANCH   3   5
ATOM      5  C   UNL     1       2.992   3.977  18.690  0.00  0.00    +0.000 A 
ATOM      6  C   UNL     1       1.708   3.585  18.304  0.00  0.00    +0.000 A 
ATOM      7  C   UNL     1       0.875   2.903  19.194  0.00  0.00    +0.000 A 
ATOM      8  C   UNL     1       1.348   2.539  20.454  0.00  0.00    +0.000 A 
ATOM      9  C   UNL     1       2.652   2.858  20.823  0.00  0.00    +0.000 A 
ATOM     10  C   UNL     1       3.464   3.579  19.946  0.00  0.00    +0.000 A 
ENDBRANCH   3   5
BRANCH   2  11
ATOM     11  C   UNL     1       3.000   7.006  18.250  0.00  0.00    +0.000 A 
ATOM     12  C   UNL     1       2.624   8.122  17.487  0.00  0.00    +0.000 A 
ATOM     13  C   UNL     1       1.848   9.135  18.055  0.00  0.00    +0.000 A 
ATOM     14  C   UNL     1       1.414   9.023  19.375  0.00  0.00    +0.000 A 
ATOM     15  C   UNL     1       1.767   7.908  20.134  0.00  0.00    +0.000 A 
ATOM     16  C   UNL     1       2.578   6.913  19.582  0.00  0.00    +0.000 A 
ENDBRANCH   2  11
BRANCH   1  17
ATOM     17  C   UNL     1       5.945   5.883  16.186  0.00  0.00    +0.000 C 
ATOM     18  S   UNL     1       5.697   4.895  14.864  0.00  0.00    +0.000 S 
BRANCH  17  19
ATOM     19  N   UNL     1       7.151   6.246  16.699  0.00  0.00    +0.000 N 
ATOM     20  H   UNL     1       7.895   6.361  16.005  0.00  0.00    +0.000 HD
BRANCH  19  21
ATOM     21  C   UNL     1       7.478   6.586  18.075  0.00  0.00    +0.000 C 
BRANCH  21  22
ATOM     22  C   UNL     1       7.848   5.334  18.872  0.00  0.00    +0.000 C 
BRANCH  22  23
ATOM     23  O   UNL     1       7.777   5.599  20.270  0.00  0.00    +0.000 OA
ATOM     24  H   UNL     1       8.195   4.849  20.725  0.00  0.00    +0.000 HD
ENDBRANCH  22  23
ENDBRANCH  21  22
ENDBRANCH  19  21
ENDBRANCH  17  19
ENDBRANCH   1  17
TORSDOF 7
ENDMDL
MODEL 7
REMARK VINA RESULT:      -7.2      1.448      4.176
REMARK  Name = 
REMARK  7 active torsions:
REMARK  status: ('A' for Active; 'I' for Inactive)
REMARK    1  A    between atoms: O_1  and  C_2
REMARK    2  A    between atoms: C_2  and  C_3
REMARK    3  A    between atoms: C_3  and  N_4
REMARK    4  A    between atoms: N_4  and  C_5
REMARK    5  A    between atoms: C_5  and  N_7
REMARK    6  A    between atoms: C_8  and  C_16
REMARK    7  A    between atoms: N_9  and  C_10
REMARK                            x       y       z     vdW  Elec       q    Type
REMARK                         _______ _______ _______ _____ _____    ______ ____
ROOT
ATOM      1  N   UNL     1       4.533   6.949  16.977  0.00  0.00    +0.000 N 
ATOM      2  C   UNL     1       3.607   6.421  17.891  0.00  0.00    +0.000 C 
ATOM      3  N   UNL     1       3.665   5.156  18.157  0.00  0.00    +0.000 NA
ATOM      4  H   UNL     1       4.459   7.931  16.754  0.00  0.00    +0.000 HD
ENDROOT
BRANCH   3   5
ATOM      5  C   UNL     1       2.827   4.454  19.032  0.00  0.00    +0.000 A 
ATOM      6  C   UNL     1       3.094   4.284  20.392  0.00  0.00    +0.000 A 
ATOM      7  C   UNL     1       2.219   3.557  21.202  0.00  0.00    +0.000 A 
ATOM      8  C   UNL     1       1.029   3.057  20.674  0.00  0.00    +0.000 A 
ATOM      9  C   UNL     1       0.716   3.284  19.337  0.00  0.00    +0.000 A 
ATOM     10  C   UNL     1       1.615   3.974  18.522  0.00  0.00    +0.000 A 
ENDBRANCH   3   5
BRANCH   2  11
ATOM     11  C   UNL     1       2.685   7.456  18.457  0.00  0.00    +0.000 A 
ATOM     12  C   UNL     1       2.309   7.393  19.807  0.00  0.00    +0.000 A 
ATOM     13  C   UNL     1       1.407   8.321  20.333  0.00  0.00    +0.000 A 
ATOM     14  C   UNL     1       0.903   9.338  19.522  0.00  0.00    +0.000 A 
ATOM     15  C   UNL     1       1.286   9.419  18.184  0.00  0.00    +0.000 A 
ATOM     16  C   UNL     1       2.156   8.468  17.646  0.00  0.00    +0.000 A 
ENDBRANCH   2  11
BRANCH   1  17
ATOM     17  C   UNL     1       5.655   6.382  16.404  0.00  0.00    +0.000 C 
ATOM     18  S   UNL     1       5.439   5.326  15.129  0.00  0.00    +0.000 S 
BRANCH  17  19
ATOM     19  N   UNL     1       6.848   6.824  16.884  0.00  0.00    +0.000 N 
ATOM     20  H   UNL     1       7.249   7.615  16.373  0.00  0.00    +0.000 HD
BRANCH  19  21
ATOM     21  C   UNL     1       7.558   6.382  18.074  0.00  0.00    +0.000 C 
BRANCH  21  22
ATOM     22  C   UNL     1       7.370   4.880  18.295  0.00  0.00    +0.000 C 
BRANCH  22  23
ATOM     23  O   UNL     1       8.136   4.143  17.347  0.00  0.00    +0.000 OA
ATOM     24  H   UNL     1       7.692   4.235  16.486  0.00  0.00    +0.000 HD
ENDBRANCH  22  23
ENDBRANCH  21  22
ENDBRANCH  19  21
ENDBRANCH  17  19
ENDBRANCH   1  17
TORSDOF 7
ENDMDL
MODEL 8
REMARK VINA RESULT:      -7.2      1.181      1.664
REMARK  Name = 
REMARK  7 active torsions:
REMARK  status: ('A' for Active; 'I' for Inactive)
REMARK    1  A    between atoms: O_1  and  C_2
REMARK    2  A    between atoms: C_2  and  C_3
REMARK    3  A    between atoms: C_3  and  N_4
REMARK    4  A    between atoms: N_4  and  C_5
REMARK    5  A    between atoms: C_5  and  N_7
REMARK    6  A    between atoms: C_8  and  C_16
REMARK    7  A    between atoms: N_9  and  C_10
REMARK                            x       y       z     vdW  Elec       q    Type
REMARK                         _______ _______ _______ _____ _____    ______ ____
ROOT
ATOM      1  N   UNL     1       4.614   5.006  17.452  0.00  0.00    +0.000 N 
ATOM      2  C   UNL     1       3.561   5.674  18.097  0.00  0.00    +0.000 C 
ATOM      3  N   UNL     1       3.476   6.958  17.958  0.00  0.00    +0.000 NA
ATOM      4  H   UNL     1       4.689   4.009  17.593  0.00  0.00    +0.000 HD
ENDROOT
BRANCH   3   5
ATOM      5  C   UNL     1       2.504   7.791  18.526  0.00  0.00    +0.000 A 
ATOM      6  C   UNL     1       2.141   7.752  19.873  0.00  0.00    +0.000 A 
ATOM      7  C   UNL     1       1.150   8.603  20.368  0.00  0.00    +0.000 A 
ATOM      8  C   UNL     1       0.567   9.555  19.533  0.00  0.00    +0.000 A 
ATOM      9  C   UNL     1       0.974   9.655  18.206  0.00  0.00    +0.000 A 
ATOM     10  C   UNL     1       1.933   8.772  17.706  0.00  0.00    +0.000 A 
ENDBRANCH   3   5
BRANCH   2  11
ATOM     11  C   UNL     1       2.650   4.751  18.845  0.00  0.00    +0.000 A 
ATOM     12  C   UNL     1       2.862   4.517  20.212  0.00  0.00    +0.000 A 
ATOM     13  C   UNL     1       2.052   3.617  20.908  0.00  0.00    +0.000 A 
ATOM     14  C   UNL     1       1.005   2.972  20.252  0.00  0.00    +0.000 A 
ATOM     15  C   UNL     1       0.775   3.213  18.898  0.00  0.00    +0.000 A 
ATOM     16  C   UNL     1       1.610   4.082  18.190  0.00  0.00    +0.000 A 
ENDBRANCH   2  11
BRANCH   1  17
ATOM     17  C   UNL     1       5.527   5.456  16.517  0.00  0.00    +0.000 C 
ATOM     18  S   UNL     1       5.658   4.619  15.079  0.00  0.00    +0.000 S 
BRANCH  17  19
ATOM     19  N   UNL     1       6.170   6.611  16.833  0.00  0.00    +0.000 N 
ATOM     20  H   UNL     1       5.777   7.452  16.400  0.00  0.00    +0.000 HD
BRANCH  19  21
ATOM     21  C   UNL     1       7.262   6.806  17.773  0.00  0.00    +0.000 C 
BRANCH  21  22
ATOM     22  C   UNL     1       7.607   5.497  18.486  0.00  0.00    +0.000 C 
BRANCH  22  23
ATOM     23  O   UNL     1       6.894   5.402  19.716  0.00  0.00    +0.000 OA
ATOM     24  H   UNL     1       6.060   5.888  19.601  0.00  0.00    +0.000 HD
ENDBRANCH  22  23
ENDBRANCH  21  22
ENDBRANCH  19  21
ENDBRANCH  17  19
ENDBRANCH   1  17
TORSDOF 7
ENDMDL
MODEL 9
REMARK VINA RESULT:      -7.2      1.165      1.289
REMARK  Name = 
REMARK  7 active torsions:
REMARK  status: ('A' for Active; 'I' for Inactive)
REMARK    1  A    between atoms: O_1  and  C_2
REMARK    2  A    between atoms: C_2  and  C_3
REMARK    3  A    between atoms: C_3  and  N_4
REMARK    4  A    between atoms: N_4  and  C_5
REMARK    5  A    between atoms: C_5  and  N_7
REMARK    6  A    between atoms: C_8  and  C_16
REMARK    7  A    between atoms: N_9  and  C_10
REMARK                            x       y       z     vdW  Elec       q    Type
REMARK                         _______ _______ _______ _____ _____    ______ ____
ROOT
ATOM      1  N   UNL     1       4.691   5.068  17.339  0.00  0.00    +0.000 N 
ATOM      2  C   UNL     1       3.629   5.707  17.998  0.00  0.00    +0.000 C 
ATOM      3  N   UNL     1       3.534   6.994  17.897  0.00  0.00    +0.000 NA
ATOM      4  H   UNL     1       4.774   4.067  17.450  0.00  0.00    +0.000 HD
ENDROOT
BRANCH   3   5
ATOM      5  C   UNL     1       2.552   7.800  18.484  0.00  0.00    +0.000 A 
ATOM      6  C   UNL     1       2.194   7.729  19.832  0.00  0.00    +0.000 A 
ATOM      7  C   UNL     1       1.193   8.556  20.347  0.00  0.00    +0.000 A 
ATOM      8  C   UNL     1       0.592   9.516  19.533  0.00  0.00    +0.000 A 
ATOM      9  C   UNL     1       0.993   9.648  18.206  0.00  0.00    +0.000 A 
ATOM     10  C   UNL     1       1.963   8.789  17.686  0.00  0.00    +0.000 A 
ENDBRANCH   3   5
BRANCH   2  11
ATOM     11  C   UNL     1       2.723   4.754  18.714  0.00  0.00    +0.000 A 
ATOM     12  C   UNL     1       1.682   4.122  18.017  0.00  0.00    +0.000 A 
ATOM     13  C   UNL     1       0.798   3.273  18.686  0.00  0.00    +0.000 A 
ATOM     14  C   UNL     1       0.969   3.023  20.047  0.00  0.00    +0.000 A 
ATOM     15  C   UNL     1       2.012   3.631  20.743  0.00  0.00    +0.000 A 
ATOM     16  C   UNL     1       2.874   4.513  20.085  0.00  0.00    +0.000 A 
ENDBRANCH   2  11
BRANCH   1  17
ATOM     17  C   UNL     1       5.605   5.553  16.422  0.00  0.00    +0.000 C 
ATOM     18  S   UNL     1       5.711   4.795  14.939  0.00  0.00    +0.000 S 
BRANCH  17  19
ATOM     19  N   UNL     1       6.270   6.678  16.795  0.00  0.00    +0.000 N 
ATOM     20  H   UNL     1       5.949   7.537  16.339  0.00  0.00    +0.000 HD
BRANCH  19  21
ATOM     21  C   UNL     1       7.292   6.822  17.820  0.00  0.00    +0.000 C 
BRANCH  21  22
ATOM     22  C   UNL     1       7.593   5.476  18.481  0.00  0.00    +0.000 C 
BRANCH  22  23
ATOM     23  O   UNL     1       6.846   5.339  19.687  0.00  0.00    +0.000 OA
ATOM     24  H   UNL     1       7.467   5.051  20.377  0.00  0.00    +0.000 HD
ENDBRANCH  22  23
ENDBRANCH  21  22
ENDBRANCH  19  21
ENDBRANCH  17  19
ENDBRANCH   1  17
TORSDOF 7
ENDMDL
