MODEL 1
REMARK VINA RESULT:      -9.0      0.000      0.000
REMARK  Name = 
REMARK  7 active torsions:
REMARK  status: ('A' for Active; 'I' for Inactive)
REMARK    1  A    between atoms: C_1  and  C_2
REMARK    2  A    between atoms: C_6  and  C_7
REMARK    3  A    between atoms: C_7  and  N_8
REMARK    4  A    between atoms: C_9  and  C_11
REMARK    5  A    between atoms: C_16  and  C_17
REMARK    6  A    between atoms: C_19  and  C_20
REMARK    7  A    between atoms: C_20  and  C_21
REMARK                            x       y       z     vdW  Elec       q    Type
REMARK                         _______ _______ _______ _____ _____    ______ ____
ROOT
ATOM      1  C   UNL     1       2.731   6.394  19.191  0.00  0.00    +0.000 A 
ATOM      2  C   UNL     1       2.137   6.311  20.456  0.00  0.00    +0.000 A 
ATOM      3  C   UNL     1       1.396   7.380  20.967  0.00  0.00    +0.000 A 
ATOM      4  C   UNL     1       1.248   8.547  20.197  0.00  0.00    +0.000 A 
ATOM      5  C   UNL     1       0.575   9.775  20.418  0.00  0.00    +0.000 A 
ATOM      6  C   UNL     1       0.736  10.547  19.288  0.00  0.00    +0.000 A 
ATOM      7  N   UNL     1       1.525   9.852  18.409  0.00  0.00    +0.000 N 
ATOM      8  C   UNL     1       1.849   8.617  18.939  0.00  0.00    +0.000 A 
ATOM      9  C   UNL     1       2.613   7.563  18.415  0.00  0.00    +0.000 A 
ATOM     10  H   UNL     1       1.803  10.206  17.504  0.00  0.00    +0.000 HD
ENDROOT
BRANCH   6  11
ATOM     11  C   UNL     1       0.166  11.895  19.051  0.00  0.00    +0.000 A 
ATOM     12  C   UNL     1       0.308  13.012  19.899  0.00  0.00    +0.000 A 
ATOM     13  C   UNL     1      -0.327  14.046  19.253  0.00  0.00    +0.000 A 
ATOM     14  N   UNL     1      -0.861  13.486  18.120  0.00  0.00    +0.000 N 
ATOM     15  N   UNL     1      -0.550  12.185  17.960  0.00  0.00    +0.000 NA
ATOM     16  H   UNL     1      -1.417  13.938  17.403  0.00  0.00    +0.000 HD
BRANCH  13  17
ATOM     17  C   UNL     1      -0.423  15.495  19.571  0.00  0.00    +0.000 C 
BRANCH  17  18
ATOM     18  C   UNL     1       0.213  16.398  18.542  0.00  0.00    +0.000 A 
ATOM     19  C   UNL     1      -0.565  17.305  17.807  0.00  0.00    +0.000 A 
ATOM     20  C   UNL     1       0.035  18.187  16.904  0.00  0.00    +0.000 A 
ATOM     21  C   UNL     1       1.415  18.165  16.722  0.00  0.00    +0.000 A 
ATOM     22  C   UNL     1       2.196  17.252  17.429  0.00  0.00    +0.000 A 
ATOM     23  C   UNL     1       1.599  16.369  18.331  0.00  0.00    +0.000 A 
ENDBRANCH  17  18
ENDBRANCH  13  17
ENDBRANCH   6  11
BRANCH   1  25
ATOM     24  N   UNL     1       3.754   5.255  17.293  0.00  0.00    +0.000 N 
ATOM     25  C   UNL     1       3.528   5.254  18.656  0.00  0.00    +0.000 C 
ATOM     26  O   UNL     1       3.962   4.391  19.410  0.00  0.00    +0.000 OA
ATOM     27  H   UNL     1       3.645   6.125  16.791  0.00  0.00    +0.000 HD
BRANCH  24  28
ATOM     28  C   UNL     1       4.575   4.234  16.689  0.00  0.00    +0.000 C 
BRANCH  28  34
ATOM     29  C   UNL     1       6.914   6.211  18.099  0.00  0.00    +0.000 C 
ATOM     30  C   UNL     1       6.737   5.667  16.738  0.00  0.00    +0.000 A 
ATOM     31  O   UNL     1       7.683   6.029  15.829  0.00  0.00    +0.000 OA
ATOM     32  N   UNL     1       7.390   5.460  14.604  0.00  0.00    +0.000 NA
ATOM     33  C   UNL     1       6.268   4.767  14.799  0.00  0.00    +0.000 A 
ATOM     34  C   UNL     1       5.803   4.849  16.132  0.00  0.00    +0.000 A 
ENDBRANCH  28  34
ENDBRANCH  24  28
ENDBRANCH   1  25
TORSDOF 6
ENDMDL
MODEL 2
REMARK VINA RESULT:      -9.0      3.631      4.917
REMARK  Name = 
REMARK  7 active torsions:
REMARK  status: ('A' for Active; 'I' for Inactive)
REMARK    1  A    between atoms: C_1  and  C_2
REMARK    2  A    between atoms: C_6  and  C_7
REMARK    3  A    between atoms: C_7  and  N_8
REMARK    4  A    between atoms: C_9  and  C_11
REMARK    5  A    between atoms: C_16  and  C_17
REMARK    6  A    between atoms: C_19  and  C_20
REMARK    7  A    between atoms: C_20  and  C_21
REMARK                            x       y       z     vdW  Elec       q    Type
REMARK                         _______ _______ _______ _____ _____    ______ ____
ROOT
ATOM      1  C   UNL     1       2.754   7.111  18.761  0.00  0.00    +0.000 A 
ATOM      2  C   UNL     1       2.578   7.989  17.685  0.00  0.00    +0.000 A 
ATOM      3  C   UNL     1       1.775   9.126  17.817  0.00  0.00    +0.000 A 
ATOM      4  C   UNL     1       1.144   9.386  19.046  0.00  0.00    +0.000 A 
ATOM      5  C   UNL     1       0.291  10.425  19.497  0.00  0.00    +0.000 A 
ATOM      6  C   UNL     1       0.006  10.183  20.823  0.00  0.00    +0.000 A 
ATOM      7  N   UNL     1       0.614   9.008  21.180  0.00  0.00    +0.000 N 
ATOM      8  C   UNL     1       1.325   8.500  20.109  0.00  0.00    +0.000 A 
ATOM      9  C   UNL     1       2.110   7.342  19.992  0.00  0.00    +0.000 A 
ATOM     10  H   UNL     1       0.551   8.600  22.103  0.00  0.00    +0.000 HD
ENDROOT
BRANCH   6  11
ATOM     11  C   UNL     1      -0.815  11.032  21.719  0.00  0.00    +0.000 A 
ATOM     12  C   UNL     1      -1.472  12.225  21.353  0.00  0.00    +0.000 A 
ATOM     13  C   UNL     1      -2.151  12.630  22.477  0.00  0.00    +0.000 A 
ATOM     14  N   UNL     1      -1.813  11.719  23.447  0.00  0.00    +0.000 N 
ATOM     15  N   UNL     1      -1.023  10.722  23.003  0.00  0.00    +0.000 NA
ATOM     16  H   UNL     1      -2.107  11.703  24.417  0.00  0.00    +0.000 HD
BRANCH  13  17
ATOM     17  C   UNL     1      -3.116  13.738  22.699  0.00  0.00    +0.000 C 
BRANCH  17  18
ATOM     18  C   UNL     1      -4.553  13.292  22.830  0.00  0.00    +0.000 A 
ATOM     19  C   UNL     1      -5.052  12.836  24.059  0.00  0.00    +0.000 A 
ATOM     20  C   UNL     1      -6.398  12.488  24.194  0.00  0.00    +0.000 A 
ATOM     21  C   UNL     1      -7.255  12.583  23.101  0.00  0.00    +0.000 A 
ATOM     22  C   UNL     1      -6.766  13.010  21.868  0.00  0.00    +0.000 A 
ATOM     23  C   UNL     1      -5.420  13.358  21.730  0.00  0.00    +0.000 A 
ENDBRANCH  17  18
ENDBRANCH  13  17
ENDBRANCH   6  11
BRANCH   1  25
ATOM     24  N   UNL     1       3.824   5.462  17.319  0.00  0.00    +0.000 N 
ATOM     25  C   UNL     1       3.603   5.895  18.611  0.00  0.00    +0.000 C 
ATOM     26  O   UNL     1       4.081   5.345  19.597  0.00  0.00    +0.000 OA
ATOM     27  H   UNL     1       3.671   6.116  16.563  0.00  0.00    +0.000 HD
BRANCH  24  28
ATOM     28  C   UNL     1       4.692   4.338  17.064  0.00  0.00    +0.000 C 
BRANCH  28  34
ATOM     29  C   UNL     1       7.386   6.172  17.925  0.00  0.00    +0.000 C 
ATOM     30  C   UNL     1       6.950   5.548  16.660  0.00  0.00    +0.000 A 
ATOM     31  O   UNL     1       7.769   5.744  15.590  0.00  0.00    +0.000 OA
ATOM     32  N   UNL     1       7.238   5.118  14.479  0.00  0.00    +0.000 NA
ATOM     33  C   UNL     1       6.104   4.556  14.901  0.00  0.00    +0.000 A 
ATOM     34  C   UNL     1       5.865   4.784  16.276  0.00  0.00    +0.000 A 
ENDBRANCH  28  34
ENDBRANCH  24  28
ENDBRANCH   1  25
TORSDOF 6
ENDMDL
MODEL 3
REMARK VINA RESULT:      -8.9      4.415     10.969
REMARK  Name = 
REMARK  7 active torsions:
REMARK  status: ('A' for Active; 'I' for Inactive)
REMARK    1  A    between atoms: C_1  and  C_2
REMARK    2  A    between atoms: C_6  and  C_7
REMARK    3  A    between atoms: C_7  and  N_8
REMARK    4  A    between atoms: C_9  and  C_11
REMARK    5  A    between atoms: C_16  and  C_17
REMARK    6  A    between atoms: C_19  and  C_20
REMARK    7  A    between atoms: C_20  and  C_21
REMARK                            x       y       z     vdW  Elec       q    Type
REMARK                         _______ _______ _______ _____ _____    ______ ____
ROOT
ATOM      1  C   UNL     1       0.153  10.485  21.075  0.00  0.00    +0.000 A 
ATOM      2  C   UNL     1       0.021  11.100  19.825  0.00  0.00    +0.000 A 
ATOM      3  C   UNL     1       0.598  10.530  18.686  0.00  0.00    +0.000 A 
ATOM      4  C   UNL     1       1.315   9.327  18.805  0.00  0.00    +0.000 A 
ATOM      5  C   UNL     1       1.999   8.510  17.870  0.00  0.00    +0.000 A 
ATOM      6  C   UNL     1       2.488   7.417  18.551  0.00  0.00    +0.000 A 
ATOM      7  N   UNL     1       2.167   7.566  19.875  0.00  0.00    +0.000 N 
ATOM      8  C   UNL     1       1.441   8.727  20.059  0.00  0.00    +0.000 A 
ATOM      9  C   UNL     1       0.887   9.292  21.218  0.00  0.00    +0.000 A 
ATOM     10  H   UNL     1       2.423   6.900  20.593  0.00  0.00    +0.000 HD
ENDROOT
BRANCH   6  11
ATOM     11  C   UNL     1       3.233   6.274  17.970  0.00  0.00    +0.000 A 
ATOM     12  C   UNL     1       4.573   6.299  17.535  0.00  0.00    +0.000 A 
ATOM     13  C   UNL     1       4.852   5.014  17.134  0.00  0.00    +0.000 A 
ATOM     14  N   UNL     1       3.672   4.329  17.281  0.00  0.00    +0.000 N 
ATOM     15  N   UNL     1       2.680   5.067  17.815  0.00  0.00    +0.000 NA
ATOM     16  H   UNL     1       3.485   3.356  17.066  0.00  0.00    +0.000 HD
BRANCH  13  17
ATOM     17  C   UNL     1       6.118   4.374  16.690  0.00  0.00    +0.000 C 
BRANCH  17  18
ATOM     18  C   UNL     1       6.320   4.373  15.194  0.00  0.00    +0.000 A 
ATOM     19  C   UNL     1       7.408   5.045  14.618  0.00  0.00    +0.000 A 
ATOM     20  C   UNL     1       7.631   4.986  13.240  0.00  0.00    +0.000 A 
ATOM     21  C   UNL     1       6.764   4.262  12.424  0.00  0.00    +0.000 A 
ATOM     22  C   UNL     1       5.666   3.610  12.982  0.00  0.00    +0.000 A 
ATOM     23  C   UNL     1       5.440   3.669  14.359  0.00  0.00    +0.000 A 
ENDBRANCH  17  18
ENDBRANCH  13  17
ENDBRANCH   6  11
BRANCH   1  25
ATOM     24  N   UNL     1      -0.929  12.393  22.141  0.00  0.00    +0.000 N 
ATOM     25  C   UNL     1      -0.456  11.103  22.287  0.00  0.00    +0.000 C 
ATOM     26  O   UNL     1      -0.537  10.471  23.334  0.00  0.00    +0.000 OA
ATOM     27  H   UNL     1      -1.114  12.732  21.207  0.00  0.00    +0.000 HD
BRANCH  24  28
ATOM     28  C   UNL     1      -1.602  13.052  23.235  0.00  0.00    +0.000 C 
BRANCH  28  34
ATOM     29  C   UNL     1      -3.795  12.945  20.676  0.00  0.00    +0.000 C 
ATOM     30  C   UNL     1      -3.922  12.705  22.128  0.00  0.00    +0.000 A 
ATOM     31  O   UNL     1      -5.171  12.391  22.568  0.00  0.00    +0.000 OA
ATOM     32  N   UNL     1      -5.146  12.205  23.937  0.00  0.00    +0.000 NA
ATOM     33  C   UNL     1      -3.879  12.414  24.296  0.00  0.00    +0.000 A 
ATOM     34  C   UNL     1      -3.048  12.728  23.197  0.00  0.00    +0.000 A 
ENDBRANCH  28  34
ENDBRANCH  24  28
ENDBRANCH   1  25
TORSDOF 6
ENDMDL
MODEL 4
REMARK VINA RESULT:      -8.6      3.466      4.260
REMARK  Name = 
REMARK  7 active torsions:
REMARK  status: ('A' for Active; 'I' for Inactive)
REMARK    1  A    between atoms: C_1  and  C_2
REMARK    2  A    between atoms: C_6  and  C_7
REMARK    3  A    between atoms: C_7  and  N_8
REMARK    4  A    between atoms: C_9  and  C_11
REMARK    5  A    between atoms: C_16  and  C_17
REMARK    6  A    between atoms: C_19  and  C_20
REMARK    7  A    between atoms: C_20  and  C_21
REMARK                            x       y       z     vdW  Elec       q    Type
REMARK                         _______ _______ _______ _____ _____    ______ ____
ROOT
ATOM      1  C   UNL     1       2.782   7.131  18.793  0.00  0.00    +0.000 A 
ATOM      2  C   UNL     1       2.635   8.033  17.732  0.00  0.00    +0.000 A 
ATOM      3  C   UNL     1       1.832   9.169  17.868  0.00  0.00    +0.000 A 
ATOM      4  C   UNL     1       1.170   9.403  19.085  0.00  0.00    +0.000 A 
ATOM      5  C   UNL     1       0.308  10.434  19.537  0.00  0.00    +0.000 A 
ATOM      6  C   UNL     1      -0.012  10.165  20.849  0.00  0.00    +0.000 A 
ATOM      7  N   UNL     1       0.585   8.981  21.196  0.00  0.00    +0.000 N 
ATOM      8  C   UNL     1       1.322   8.494  20.134  0.00  0.00    +0.000 A 
ATOM      9  C   UNL     1       2.108   7.337  20.012  0.00  0.00    +0.000 A 
ATOM     10  H   UNL     1       0.497   8.554  22.108  0.00  0.00    +0.000 HD
ENDROOT
BRANCH   6  11
ATOM     11  C   UNL     1      -0.853  10.997  21.742  0.00  0.00    +0.000 A 
ATOM     12  C   UNL     1      -1.449  12.229  21.403  0.00  0.00    +0.000 A 
ATOM     13  C   UNL     1      -2.178  12.601  22.508  0.00  0.00    +0.000 A 
ATOM     14  N   UNL     1      -1.924  11.632  23.446  0.00  0.00    +0.000 N 
ATOM     15  N   UNL     1      -1.143  10.631  22.995  0.00  0.00    +0.000 NA
ATOM     16  H   UNL     1      -2.273  11.577  24.397  0.00  0.00    +0.000 HD
BRANCH  13  17
ATOM     17  C   UNL     1      -3.117  13.731  22.734  0.00  0.00    +0.000 C 
BRANCH  17  18
ATOM     18  C   UNL     1      -4.302  13.747  21.798  0.00  0.00    +0.000 A 
ATOM     19  C   UNL     1      -5.139  12.626  21.684  0.00  0.00    +0.000 A 
ATOM     20  C   UNL     1      -6.273  12.667  20.869  0.00  0.00    +0.000 A 
ATOM     21  C   UNL     1      -6.576  13.824  20.155  0.00  0.00    +0.000 A 
ATOM     22  C   UNL     1      -5.739  14.935  20.241  0.00  0.00    +0.000 A 
ATOM     23  C   UNL     1      -4.604  14.896  21.054  0.00  0.00    +0.000 A 
ENDBRANCH  17  18
ENDBRANCH  13  17
ENDBRANCH   6  11
BRANCH   1  25
ATOM     24  N   UNL     1       3.637   5.332  17.388  0.00  0.00    +0.000 N 
ATOM     25  C   UNL     1       3.632   5.917  18.639  0.00  0.00    +0.000 C 
ATOM     26  O   UNL     1       4.294   5.497  19.581  0.00  0.00    +0.000 OA
ATOM     27  H   UNL     1       3.333   5.886  16.599  0.00  0.00    +0.000 HD
BRANCH  24  28
ATOM     28  C   UNL     1       4.485   4.195  17.117  0.00  0.00    +0.000 C 
BRANCH  28  34
ATOM     29  C   UNL     1       7.526   5.304  18.056  0.00  0.00    +0.000 C 
ATOM     30  C   UNL     1       6.890   5.090  16.741  0.00  0.00    +0.000 A 
ATOM     31  O   UNL     1       7.649   5.411  15.658  0.00  0.00    +0.000 OA
ATOM     32  N   UNL     1       6.930   5.171  14.502  0.00  0.00    +0.000 NA
ATOM     33  C   UNL     1       5.748   4.712  14.913  0.00  0.00    +0.000 A 
ATOM     34  C   UNL     1       5.658   4.628  16.322  0.00  0.00    +0.000 A 
ENDBRANCH  28  34
ENDBRANCH  24  28
ENDBRANCH   1  25
TORSDOF 6
ENDMDL
MODEL 5
REMARK VINA RESULT:      -8.6      1.043      1.412
REMARK  Name = 
REMARK  7 active torsions:
REMARK  status: ('A' for Active; 'I' for Inactive)
REMARK    1  A    between atoms: C_1  and  C_2
REMARK    2  A    between atoms: C_6  and  C_7
REMARK    3  A    between atoms: C_7  and  N_8
REMARK    4  A    between atoms: C_9  and  C_11
REMARK    5  A    between atoms: C_16  and  C_17
REMARK    6  A    between atoms: C_19  and  C_20
REMARK    7  A    between atoms: C_20  and  C_21
REMARK                            x       y       z     vdW  Elec       q    Type
REMARK                         _______ _______ _______ _____ _____    ______ ____
ROOT
ATOM      1  C   UNL     1       2.279   7.035  19.195  0.00  0.00    +0.000 A 
ATOM      2  C   UNL     1       1.741   6.867  20.476  0.00  0.00    +0.000 A 
ATOM      3  C   UNL     1       1.080   7.919  21.116  0.00  0.00    +0.000 A 
ATOM      4  C   UNL     1       0.956   9.156  20.459  0.00  0.00    +0.000 A 
ATOM      5  C   UNL     1       0.357  10.389  20.820  0.00  0.00    +0.000 A 
ATOM      6  C   UNL     1       0.504  11.251  19.755  0.00  0.00    +0.000 A 
ATOM      7  N   UNL     1       1.214  10.601  18.780  0.00  0.00    +0.000 N 
ATOM      8  C   UNL     1       1.500   9.311  19.183  0.00  0.00    +0.000 A 
ATOM      9  C   UNL     1       2.184   8.273  18.531  0.00  0.00    +0.000 A 
ATOM     10  H   UNL     1       1.467  11.022  17.896  0.00  0.00    +0.000 HD
ENDROOT
BRANCH   6  11
ATOM     11  C   UNL     1      -0.007  12.640  19.666  0.00  0.00    +0.000 A 
ATOM     12  C   UNL     1       0.611  13.783  20.212  0.00  0.00    +0.000 A 
ATOM     13  C   UNL     1      -0.179  14.843  19.832  0.00  0.00    +0.000 A 
ATOM     14  N   UNL     1      -1.234  14.280  19.160  0.00  0.00    +0.000 N 
ATOM     15  N   UNL     1      -1.138  12.944  19.022  0.00  0.00    +0.000 NA
ATOM     16  H   UNL     1      -2.033  14.750  18.748  0.00  0.00    +0.000 HD
BRANCH  13  17
ATOM     17  C   UNL     1      -0.000  16.310  19.991  0.00  0.00    +0.000 C 
BRANCH  17  18
ATOM     18  C   UNL     1       0.252  17.047  18.698  0.00  0.00    +0.000 A 
ATOM     19  C   UNL     1      -0.793  17.706  18.034  0.00  0.00    +0.000 A 
ATOM     20  C   UNL     1      -0.544  18.444  16.874  0.00  0.00    +0.000 A 
ATOM     21  C   UNL     1       0.749  18.522  16.362  0.00  0.00    +0.000 A 
ATOM     22  C   UNL     1       1.791  17.850  16.999  0.00  0.00    +0.000 A 
ATOM     23  C   UNL     1       1.544  17.112  18.158  0.00  0.00    +0.000 A 
ENDBRANCH  17  18
ENDBRANCH  13  17
ENDBRANCH   6  11
BRANCH   1  25
ATOM     24  N   UNL     1       4.352   5.835  18.741  0.00  0.00    +0.000 N 
ATOM     25  C   UNL     1       2.991   5.912  18.522  0.00  0.00    +0.000 C 
ATOM     26  O   UNL     1       2.373   5.106  17.836  0.00  0.00    +0.000 OA
ATOM     27  H   UNL     1       4.736   6.322  19.540  0.00  0.00    +0.000 HD
BRANCH  24  28
ATOM     28  C   UNL     1       5.120   4.742  18.194  0.00  0.00    +0.000 C 
BRANCH  28  34
ATOM     29  C   UNL     1       5.966   3.690  15.105  0.00  0.00    +0.000 C 
ATOM     30  C   UNL     1       6.433   4.801  15.958  0.00  0.00    +0.000 A 
ATOM     31  O   UNL     1       7.422   5.574  15.432  0.00  0.00    +0.000 OA
ATOM     32  N   UNL     1       7.767   6.562  16.335  0.00  0.00    +0.000 NA
ATOM     33  C   UNL     1       6.978   6.362  17.392  0.00  0.00    +0.000 A 
ATOM     34  C   UNL     1       6.102   5.266  17.216  0.00  0.00    +0.000 A 
ENDBRANCH  28  34
ENDBRANCH  24  28
ENDBRANCH   1  25
TORSDOF 6
ENDMDL
MODEL 6
REMARK VINA RESULT:      -8.6      3.463      5.540
REMARK  Name = 
REMARK  7 active torsions:
REMARK  status: ('A' for Active; 'I' for Inactive)
REMARK    1  A    between atoms: C_1  and  C_2
REMARK    2  A    between atoms: C_6  and  C_7
REMARK    3  A    between atoms: C_7  and  N_8
REMARK    4  A    between atoms: C_9  and  C_11
REMARK    5  A    between atoms: C_16  and  C_17
REMARK    6  A    between atoms: C_19  and  C_20
REMARK    7  A    between atoms: C_20  and  C_21
REMARK                            x       y       z     vdW  Elec       q    Type
REMARK                         _______ _______ _______ _____ _____    ______ ____
ROOT
ATOM      1  C   UNL     1       5.438   5.028  16.006  0.00  0.00    +0.000 A 
ATOM      2  C   UNL     1       4.903   4.008  16.802  0.00  0.00    +0.000 A 
ATOM      3  C   UNL     1       3.945   4.294  17.779  0.00  0.00    +0.000 A 
ATOM      4  C   UNL     1       3.518   5.621  17.957  0.00  0.00    +0.000 A 
ATOM      5  C   UNL     1       2.583   6.229  18.834  0.00  0.00    +0.000 A 
ATOM      6  C   UNL     1       2.541   7.572  18.530  0.00  0.00    +0.000 A 
ATOM      7  N   UNL     1       3.452   7.810  17.535  0.00  0.00    +0.000 N 
ATOM      8  C   UNL     1       4.062   6.629  17.159  0.00  0.00    +0.000 A 
ATOM      9  C   UNL     1       5.039   6.366  16.186  0.00  0.00    +0.000 A 
ATOM     10  H   UNL     1       3.624   8.725  17.138  0.00  0.00    +0.000 HD
ENDROOT
BRANCH   6  11
ATOM     11  C   UNL     1       1.671   8.593  19.162  0.00  0.00    +0.000 A 
ATOM     12  C   UNL     1       1.189   9.764  18.542  0.00  0.00    +0.000 A 
ATOM     13  C   UNL     1       0.382  10.368  19.477  0.00  0.00    +0.000 A 
ATOM     14  N   UNL     1       0.483   9.583  20.598  0.00  0.00    +0.000 N 
ATOM     15  N   UNL     1       1.239   8.482  20.422  0.00  0.00    +0.000 NA
ATOM     16  H   UNL     1       0.041   9.723  21.500  0.00  0.00    +0.000 HD
BRANCH  13  17
ATOM     17  C   UNL     1      -0.502  11.560  19.392  0.00  0.00    +0.000 C 
BRANCH  17  18
ATOM     18  C   UNL     1      -1.856  11.284  18.782  0.00  0.00    +0.000 A 
ATOM     19  C   UNL     1      -2.008  10.302  17.791  0.00  0.00    +0.000 A 
ATOM     20  C   UNL     1      -3.272  10.001  17.278  0.00  0.00    +0.000 A 
ATOM     21  C   UNL     1      -4.393  10.684  17.743  0.00  0.00    +0.000 A 
ATOM     22  C   UNL     1      -4.252  11.678  18.709  0.00  0.00    +0.000 A 
ATOM     23  C   UNL     1      -2.989  11.981  19.223  0.00  0.00    +0.000 A 
ENDBRANCH  17  18
ENDBRANCH  13  17
ENDBRANCH   6  11
BRANCH   1  25
ATOM     24  N   UNL     1       5.990   4.375  13.723  0.00  0.00    +0.000 N 
ATOM     25  C   UNL     1       6.467   4.718  14.973  0.00  0.00    +0.000 C 
ATOM     26  O   UNL     1       7.660   4.792  15.242  0.00  0.00    +0.000 OA
ATOM     27  H   UNL     1       5.041   4.630  13.486  0.00  0.00    +0.000 HD
BRANCH  24  28
ATOM     28  C   UNL     1       6.906   4.127  12.635  0.00  0.00    +0.000 C 
BRANCH  28  34
ATOM     29  C   UNL     1       3.884   3.280  11.406  0.00  0.00    +0.000 C 
ATOM     30  C   UNL     1       5.204   2.619  11.388  0.00  0.00    +0.000 A 
ATOM     31  O   UNL     1       5.249   1.406  10.772  0.00  0.00    +0.000 OA
ATOM     32  N   UNL     1       6.534   0.902  10.839  0.00  0.00    +0.000 NA
ATOM     33  C   UNL     1       7.239   1.822  11.497  0.00  0.00    +0.000 A 
ATOM     34  C   UNL     1       6.458   2.941  11.868  0.00  0.00    +0.000 A 
ENDBRANCH  28  34
ENDBRANCH  24  28
ENDBRANCH   1  25
TORSDOF 6
ENDMDL
MODEL 7
REMARK VINA RESULT:      -8.6      3.425      4.136
REMARK  Name = 
REMARK  7 active torsions:
REMARK  status: ('A' for Active; 'I' for Inactive)
REMARK    1  A    between atoms: C_1  and  C_2
REMARK    2  A    between atoms: C_6  and  C_7
REMARK    3  A    between atoms: C_7  and  N_8
REMARK    4  A    between atoms: C_9  and  C_11
REMARK    5  A    between atoms: C_16  and  C_17
REMARK    6  A    between atoms: C_19  and  C_20
REMARK    7  A    between atoms: C_20  and  C_21
REMARK                            x       y       z     vdW  Elec       q    Type
REMARK                         _______ _______ _______ _____ _____    ______ ____
ROOT
ATOM      1  C   UNL     1       3.099   4.632  18.951  0.00  0.00    +0.000 A 
ATOM      2  C   UNL     1       2.477   4.143  20.106  0.00  0.00    +0.000 A 
ATOM      3  C   UNL     1       1.768   5.001  20.951  0.00  0.00    +0.000 A 
ATOM      4  C   UNL     1       1.680   6.367  20.630  0.00  0.00    +0.000 A 
ATOM      5  C   UNL     1       1.051   7.472  21.258  0.00  0.00    +0.000 A 
ATOM      6  C   UNL     1       1.264   8.578  20.466  0.00  0.00    +0.000 A 
ATOM      7  N   UNL     1       2.043   8.195  19.405  0.00  0.00    +0.000 N 
ATOM      8  C   UNL     1       2.308   6.841  19.477  0.00  0.00    +0.000 A 
ATOM      9  C   UNL     1       3.042   6.000  18.626  0.00  0.00    +0.000 A 
ATOM     10  H   UNL     1       2.352   8.827  18.679  0.00  0.00    +0.000 HD
ENDROOT
BRANCH   6  11
ATOM     11  C   UNL     1       0.752   9.948  20.705  0.00  0.00    +0.000 A 
ATOM     12  C   UNL     1      -0.056  10.349  21.789  0.00  0.00    +0.000 A 
ATOM     13  C   UNL     1      -0.232  11.704  21.633  0.00  0.00    +0.000 A 
ATOM     14  N   UNL     1       0.403  12.015  20.457  0.00  0.00    +0.000 N 
ATOM     15  N   UNL     1       1.033  10.969  19.888  0.00  0.00    +0.000 NA
ATOM     16  H   UNL     1       0.471  12.920  20.005  0.00  0.00    +0.000 HD
BRANCH  13  17
ATOM     17  C   UNL     1      -0.881  12.719  22.504  0.00  0.00    +0.000 C 
BRANCH  17  18
ATOM     18  C   UNL     1      -2.388  12.730  22.425  0.00  0.00    +0.000 A 
ATOM     19  C   UNL     1      -3.167  12.714  23.592  0.00  0.00    +0.000 A 
ATOM     20  C   UNL     1      -4.560  12.793  23.517  0.00  0.00    +0.000 A 
ATOM     21  C   UNL     1      -5.188  12.880  22.277  0.00  0.00    +0.000 A 
ATOM     22  C   UNL     1      -4.426  12.872  21.110  0.00  0.00    +0.000 A 
ATOM     23  C   UNL     1      -3.034  12.792  21.181  0.00  0.00    +0.000 A 
ENDBRANCH  17  18
ENDBRANCH  13  17
ENDBRANCH   6  11
BRANCH   1  25
ATOM     24  N   UNL     1       4.298   4.247  16.863  0.00  0.00    +0.000 N 
ATOM     25  C   UNL     1       3.862   3.713  18.059  0.00  0.00    +0.000 C 
ATOM     26  O   UNL     1       4.091   2.559  18.404  0.00  0.00    +0.000 OA
ATOM     27  H   UNL     1       4.350   5.254  16.779  0.00  0.00    +0.000 HD
BRANCH  24  28
ATOM     28  C   UNL     1       5.107   3.460  15.963  0.00  0.00    +0.000 C 
BRANCH  28  34
ATOM     29  C   UNL     1       7.241   5.632  17.412  0.00  0.00    +0.000 C 
ATOM     30  C   UNL     1       7.033   5.197  16.016  0.00  0.00    +0.000 A 
ATOM     31  O   UNL     1       7.838   5.784  15.088  0.00  0.00    +0.000 OA
ATOM     32  N   UNL     1       7.529   5.295  13.833  0.00  0.00    +0.000 NA
ATOM     33  C   UNL     1       6.541   4.422  14.029  0.00  0.00    +0.000 A 
ATOM     34  C   UNL     1       6.182   4.306  15.392  0.00  0.00    +0.000 A 
ENDBRANCH  28  34
ENDBRANCH  24  28
ENDBRANCH   1  25
TORSDOF 6
ENDMDL
MODEL 8
REMARK VINA RESULT:      -8.6      2.919      4.153
REMARK  Name = 
REMARK  7 active torsions:
REMARK  status: ('A' for Active; 'I' for Inactive)
REMARK    1  A    between atoms: C_1  and  C_2
REMARK    2  A    between atoms: C_6  and  C_7
REMARK    3  A    between atoms: C_7  and  N_8
REMARK    4  A    between atoms: C_9  and  C_11
REMARK    5  A    between atoms: C_16  and  C_17
REMARK    6  A    between atoms: C_19  and  C_20
REMARK    7  A    between atoms: C_20  and  C_21
REMARK                            x       y       z     vdW  Elec       q    Type
REMARK                         _______ _______ _______ _____ _____    ______ ____
ROOT
ATOM      1  C   UNL     1       3.361   4.901  19.228  0.00  0.00    +0.000 A 
ATOM      2  C   UNL     1       2.673   4.379  20.329  0.00  0.00    +0.000 A 
ATOM      3  C   UNL     1       1.801   5.182  21.070  0.00  0.00    +0.000 A 
ATOM      4  C   UNL     1       1.616   6.525  20.698  0.00  0.00    +0.000 A 
ATOM      5  C   UNL     1       0.822   7.576  21.223  0.00  0.00    +0.000 A 
ATOM      6  C   UNL     1       1.010   8.680  20.421  0.00  0.00    +0.000 A 
ATOM      7  N   UNL     1       1.927   8.352  19.457  0.00  0.00    +0.000 N 
ATOM      8  C   UNL     1       2.312   7.033  19.599  0.00  0.00    +0.000 A 
ATOM      9  C   UNL     1       3.207   6.249  18.855  0.00  0.00    +0.000 A 
ATOM     10  H   UNL     1       2.248   8.995  18.746  0.00  0.00    +0.000 HD
ENDROOT
BRANCH   6  11
ATOM     11  C   UNL     1       0.346   9.998  20.563  0.00  0.00    +0.000 A 
ATOM     12  C   UNL     1      -0.375  10.672  19.556  0.00  0.00    +0.000 A 
ATOM     13  C   UNL     1      -0.857  11.814  20.151  0.00  0.00    +0.000 A 
ATOM     14  N   UNL     1      -0.349  11.794  21.426  0.00  0.00    +0.000 N 
ATOM     15  N   UNL     1       0.362  10.685  21.709  0.00  0.00    +0.000 NA
ATOM     16  H   UNL     1      -0.474  12.484  22.158  0.00  0.00    +0.000 HD
BRANCH  13  17
ATOM     17  C   UNL     1      -1.780  12.868  19.656  0.00  0.00    +0.000 C 
BRANCH  17  18
ATOM     18  C   UNL     1      -3.229  12.447  19.603  0.00  0.00    +0.000 A 
ATOM     19  C   UNL     1      -4.120  12.820  20.620  0.00  0.00    +0.000 A 
ATOM     20  C   UNL     1      -5.474  12.487  20.535  0.00  0.00    +0.000 A 
ATOM     21  C   UNL     1      -5.948  11.771  19.438  0.00  0.00    +0.000 A 
ATOM     22  C   UNL     1      -5.068  11.374  18.434  0.00  0.00    +0.000 A 
ATOM     23  C   UNL     1      -3.714  11.704  18.517  0.00  0.00    +0.000 A 
ENDBRANCH  17  18
ENDBRANCH  13  17
ENDBRANCH   6  11
BRANCH   1  25
ATOM     24  N   UNL     1       4.109   4.022  17.080  0.00  0.00    +0.000 N 
ATOM     25  C   UNL     1       4.297   4.042  18.448  0.00  0.00    +0.000 C 
ATOM     26  O   UNL     1       5.186   3.416  19.015  0.00  0.00    +0.000 OA
ATOM     27  H   UNL     1       3.583   4.775  16.658  0.00  0.00    +0.000 HD
BRANCH  24  28
ATOM     28  C   UNL     1       5.008   3.279  16.230  0.00  0.00    +0.000 C 
BRANCH  28  34
ATOM     29  C   UNL     1       6.140   3.663  13.078  0.00  0.00    +0.000 C 
ATOM     30  C   UNL     1       6.473   4.318  14.358  0.00  0.00    +0.000 A 
ATOM     31  O   UNL     1       7.446   5.268  14.302  0.00  0.00    +0.000 OA
ATOM     32  N   UNL     1       7.661   5.787  15.564  0.00  0.00    +0.000 NA
ATOM     33  C   UNL     1       6.812   5.136  16.360  0.00  0.00    +0.000 A 
ATOM     34  C   UNL     1       6.023   4.195  15.659  0.00  0.00    +0.000 A 
ENDBRANCH  28  34
ENDBRANCH  24  28
ENDBRANCH   1  25
TORSDOF 6
ENDMDL
MODEL 9
REMARK VINA RESULT:      -8.5      2.810      3.936
REMARK  Name = 
REMARK  7 active torsions:
REMARK  status: ('A' for Active; 'I' for Inactive)
REMARK    1  A    between atoms: C_1  and  C_2
REMARK    2  A    between atoms: C_6  and  C_7
REMARK    3  A    between atoms: C_7  and  N_8
REMARK    4  A    between atoms: C_9  and  C_11
REMARK    5  A    between atoms: C_16  and  C_17
REMARK    6  A    between atoms: C_19  and  C_20
REMARK    7  A    between atoms: C_20  and  C_21
REMARK                            x       y       z     vdW  Elec       q    Type
REMARK                         _______ _______ _______ _____ _____    ______ ____
ROOT
ATOM      1  C   UNL     1       3.362   4.865  19.253  0.00  0.00    +0.000 A 
ATOM      2  C   UNL     1       2.639   4.356  20.339  0.00  0.00    +0.000 A 
ATOM      3  C   UNL     1       1.782   5.180  21.074  0.00  0.00    +0.000 A 
ATOM      4  C   UNL     1       1.647   6.531  20.712  0.00  0.00    +0.000 A 
ATOM      5  C   UNL     1       0.879   7.603  21.235  0.00  0.00    +0.000 A 
ATOM      6  C   UNL     1       1.114   8.707  20.446  0.00  0.00    +0.000 A 
ATOM      7  N   UNL     1       2.036   8.359  19.493  0.00  0.00    +0.000 N 
ATOM      8  C   UNL     1       2.376   7.026  19.629  0.00  0.00    +0.000 A 
ATOM      9  C   UNL     1       3.257   6.221  18.891  0.00  0.00    +0.000 A 
ATOM     10  H   UNL     1       2.389   8.998  18.793  0.00  0.00    +0.000 HD
ENDROOT
BRANCH   6  11
ATOM     11  C   UNL     1       0.491  10.045  20.590  0.00  0.00    +0.000 A 
ATOM     12  C   UNL     1      -0.239  10.727  19.595  0.00  0.00    +0.000 A 
ATOM     13  C   UNL     1      -0.672  11.888  20.190  0.00  0.00    +0.000 A 
ATOM     14  N   UNL     1      -0.131  11.869  21.451  0.00  0.00    +0.000 N 
ATOM     15  N   UNL     1       0.558  10.744  21.728  0.00  0.00    +0.000 NA
ATOM     16  H   UNL     1      -0.216  12.571  22.177  0.00  0.00    +0.000 HD
BRANCH  13  17
ATOM     17  C   UNL     1      -1.580  12.962  19.707  0.00  0.00    +0.000 C 
BRANCH  17  18
ATOM     18  C   UNL     1      -3.048  12.632  19.828  0.00  0.00    +0.000 A 
ATOM     19  C   UNL     1      -3.721  11.971  18.788  0.00  0.00    +0.000 A 
ATOM     20  C   UNL     1      -5.062  11.607  18.930  0.00  0.00    +0.000 A 
ATOM     21  C   UNL     1      -5.745  11.905  20.106  0.00  0.00    +0.000 A 
ATOM     22  C   UNL     1      -5.094  12.583  21.135  0.00  0.00    +0.000 A 
ATOM     23  C   UNL     1      -3.754  12.950  20.996  0.00  0.00    +0.000 A 
ENDBRANCH  17  18
ENDBRANCH  13  17
ENDBRANCH   6  11
BRANCH   1  25
ATOM     24  N   UNL     1       4.284   4.158  17.110  0.00  0.00    +0.000 N 
ATOM     25  C   UNL     1       4.282   3.983  18.480  0.00  0.00    +0.000 C 
ATOM     26  O   UNL     1       4.998   3.173  19.057  0.00  0.00    +0.000 OA
ATOM     27  H   UNL     1       3.920   5.024  16.737  0.00  0.00    +0.000 HD
BRANCH  24  28
ATOM     28  C   UNL     1       5.192   3.404  16.280  0.00  0.00    +0.000 C 
BRANCH  28  34
ATOM     29  C   UNL     1       7.248   5.673  17.690  0.00  0.00    +0.000 C 
ATOM     30  C   UNL     1       7.018   5.246  16.296  0.00  0.00    +0.000 A 
ATOM     31  O   UNL     1       7.757   5.889  15.351  0.00  0.00    +0.000 OA
ATOM     32  N   UNL     1       7.436   5.400  14.100  0.00  0.00    +0.000 NA
ATOM     33  C   UNL     1       6.504   4.470  14.315  0.00  0.00    +0.000 A 
ATOM     34  C   UNL     1       6.198   4.316  15.687  0.00  0.00    +0.000 A 
ENDBRANCH  28  34
ENDBRANCH  24  28
ENDBRANCH   1  25
TORSDOF 6
ENDMDL
