MODEL 1
REMARK VINA RESULT:      -9.3      0.000      0.000
REMARK  Name = 
REMARK  7 active torsions:
REMARK  status: ('A' for Active; 'I' for Inactive)
REMARK    1  A    between atoms: O_1  and  C_2
REMARK    2  A    between atoms: C_5  and  C_6
REMARK    3  A    between atoms: C_8  and  C_9
REMARK    4  A    between atoms: C_12  and  N_13
REMARK    5  A    between atoms: N_13  and  C_14
REMARK    6  A    between atoms: N_13  and  C_21
REMARK    7  A    between atoms: C_14  and  C_15
REMARK                            x       y       z     vdW  Elec       q    Type
REMARK                         _______ _______ _______ _____ _____    ______ ____
ROOT
ATOM      1  C   UNL     1       1.219   9.713  19.091  0.00  0.00    +0.000 A 
ATOM      2  C   UNL     1       1.202   8.932  20.248  0.00  0.00    +0.000 A 
ATOM      3  C   UNL     1       1.766   7.651  20.254  0.00  0.00    +0.000 A 
ATOM      4  C   UNL     1       2.414   7.105  19.131  0.00  0.00    +0.000 A 
ATOM      5  C   UNL     1       2.375   7.887  17.963  0.00  0.00    +0.000 A 
ATOM      6  C   UNL     1       1.789   9.168  17.939  0.00  0.00    +0.000 A 
ENDROOT
BRANCH   1   9
ATOM      7  C   UNL     1       0.594  13.155  18.954  0.00  0.00    +0.000 A 
ATOM      8  N   UNL     1       1.451  12.164  18.881  0.00  0.00    +0.000 NA
ATOM      9  C   UNL     1       0.663  11.060  19.121  0.00  0.00    +0.000 A 
ATOM     10  N   UNL     1      -0.630  11.350  19.345  0.00  0.00    +0.000 NA
ATOM     11  O   UNL     1      -0.677  12.743  19.234  0.00  0.00    +0.000 OA
BRANCH   7  15
ATOM     12  C   UNL     1       1.327  17.300  18.304  0.00  0.00    +0.000 A 
ATOM     13  C   UNL     1       2.385  16.400  18.309  0.00  0.00    +0.000 A 
ATOM     14  C   UNL     1       2.129  15.044  18.534  0.00  0.00    +0.000 A 
ATOM     15  C   UNL     1       0.819  14.580  18.757  0.00  0.00    +0.000 A 
ATOM     16  C   UNL     1      -0.230  15.513  18.756  0.00  0.00    +0.000 A 
ATOM     17  C   UNL     1       0.025  16.867  18.532  0.00  0.00    +0.000 A 
BRANCH  12  18
ATOM     18  O   UNL     1       1.524  18.629  18.075  0.00  0.00    +0.000 OA
ATOM     19  H   UNL     1       2.452  18.764  17.821  0.00  0.00    +0.000 HD
ENDBRANCH  12  18
ENDBRANCH   7  15
ENDBRANCH   1   9
BRANCH   4  20
ATOM     20  N   UNL     1       3.053   5.840  19.226  0.00  0.00    +0.000 N 
BRANCH  20  21
ATOM     21  C   UNL     1       2.405   4.575  19.394  0.00  0.00    +0.000 A 
ATOM     22  C   UNL     1       1.903   3.837  18.306  0.00  0.00    +0.000 A 
ATOM     23  C   UNL     1       1.283   2.594  18.474  0.00  0.00    +0.000 A 
ATOM     24  C   UNL     1       1.128   2.061  19.746  0.00  0.00    +0.000 A 
ATOM     25  C   UNL     1       1.605   2.764  20.846  0.00  0.00    +0.000 A 
ATOM     26  C   UNL     1       2.248   3.994  20.667  0.00  0.00    +0.000 A 
ENDBRANCH  20  21
BRANCH  20  27
ATOM     27  C   UNL     1       4.531   5.785  19.336  0.00  0.00    +0.000 C 
BRANCH  27  28
ATOM     28  C   UNL     1       5.251   5.396  18.052  0.00  0.00    +0.000 A 
ATOM     29  C   UNL     1       4.718   5.647  16.781  0.00  0.00    +0.000 A 
ATOM     30  C   UNL     1       5.451   5.348  15.630  0.00  0.00    +0.000 A 
ATOM     31  C   UNL     1       6.726   4.797  15.733  0.00  0.00    +0.000 A 
ATOM     32  C   UNL     1       7.263   4.523  16.988  0.00  0.00    +0.000 A 
ATOM     33  C   UNL     1       6.532   4.822  18.139  0.00  0.00    +0.000 A 
ENDBRANCH  27  28
ENDBRANCH  20  27
ENDBRANCH   4  20
TORSDOF 7
ENDMDL
MODEL 2
REMARK VINA RESULT:      -9.3      2.835      3.886
REMARK  Name = 
REMARK  7 active torsions:
REMARK  status: ('A' for Active; 'I' for Inactive)
REMARK    1  A    between atoms: O_1  and  C_2
REMARK    2  A    between atoms: C_5  and  C_6
REMARK    3  A    between atoms: C_8  and  C_9
REMARK    4  A    between atoms: C_12  and  N_13
REMARK    5  A    between atoms: N_13  and  C_14
REMARK    6  A    between atoms: N_13  and  C_21
REMARK    7  A    between atoms: C_14  and  C_15
REMARK                            x       y       z     vdW  Elec       q    Type
REMARK                         _______ _______ _______ _____ _____    ______ ____
ROOT
ATOM      1  C   UNL     1       1.458   9.387  19.622  0.00  0.00    +0.000 A 
ATOM      2  C   UNL     1       1.809   9.275  18.276  0.00  0.00    +0.000 A 
ATOM      3  C   UNL     1       2.346   8.083  17.774  0.00  0.00    +0.000 A 
ATOM      4  C   UNL     1       2.513   6.936  18.570  0.00  0.00    +0.000 A 
ATOM      5  C   UNL     1       2.201   7.087  19.933  0.00  0.00    +0.000 A 
ATOM      6  C   UNL     1       1.683   8.288  20.453  0.00  0.00    +0.000 A 
ENDROOT
BRANCH   1   9
ATOM      7  C   UNL     1      -0.307  11.894  21.313  0.00  0.00    +0.000 A 
ATOM      8  N   UNL     1      -0.048  10.619  21.145  0.00  0.00    +0.000 NA
ATOM      9  C   UNL     1       0.863  10.624  20.112  0.00  0.00    +0.000 A 
ATOM     10  N   UNL     1       1.153  11.851  19.647  0.00  0.00    +0.000 NA
ATOM     11  O   UNL     1       0.375  12.696  20.444  0.00  0.00    +0.000 OA
BRANCH   7  15
ATOM     12  C   UNL     1      -2.877  13.669  24.208  0.00  0.00    +0.000 A 
ATOM     13  C   UNL     1      -3.220  12.455  23.626  0.00  0.00    +0.000 A 
ATOM     14  C   UNL     1      -2.370  11.891  22.670  0.00  0.00    +0.000 A 
ATOM     15  C   UNL     1      -1.179  12.533  22.288  0.00  0.00    +0.000 A 
ATOM     16  C   UNL     1      -0.862  13.764  22.885  0.00  0.00    +0.000 A 
ATOM     17  C   UNL     1      -1.709  14.329  23.840  0.00  0.00    +0.000 A 
BRANCH  12  18
ATOM     18  O   UNL     1      -3.665  14.252  25.156  0.00  0.00    +0.000 OA
ATOM     19  H   UNL     1      -4.127  13.552  25.646  0.00  0.00    +0.000 HD
ENDBRANCH  12  18
ENDBRANCH   7  15
ENDBRANCH   1   9
BRANCH   4  20
ATOM     20  N   UNL     1       2.970   5.726  17.983  0.00  0.00    +0.000 N 
BRANCH  20  21
ATOM     21  C   UNL     1       2.530   4.405  18.315  0.00  0.00    +0.000 A 
ATOM     22  C   UNL     1       3.204   3.253  17.868  0.00  0.00    +0.000 A 
ATOM     23  C   UNL     1       2.777   1.964  18.207  0.00  0.00    +0.000 A 
ATOM     24  C   UNL     1       1.645   1.790  18.991  0.00  0.00    +0.000 A 
ATOM     25  C   UNL     1       0.949   2.904  19.445  0.00  0.00    +0.000 A 
ATOM     26  C   UNL     1       1.398   4.191  19.124  0.00  0.00    +0.000 A 
ENDBRANCH  20  21
BRANCH  20  27
ATOM     27  C   UNL     1       4.126   5.766  17.054  0.00  0.00    +0.000 C 
BRANCH  27  28
ATOM     28  C   UNL     1       5.463   6.071  17.714  0.00  0.00    +0.000 A 
ATOM     29  C   UNL     1       5.933   5.369  18.832  0.00  0.00    +0.000 A 
ATOM     30  C   UNL     1       7.203   5.628  19.354  0.00  0.00    +0.000 A 
ATOM     31  C   UNL     1       8.020   6.591  18.765  0.00  0.00    +0.000 A 
ATOM     32  C   UNL     1       7.561   7.313  17.667  0.00  0.00    +0.000 A 
ATOM     33  C   UNL     1       6.293   7.053  17.143  0.00  0.00    +0.000 A 
ENDBRANCH  27  28
ENDBRANCH  20  27
ENDBRANCH   4  20
TORSDOF 7
ENDMDL
MODEL 3
REMARK VINA RESULT:      -9.3      0.917      1.777
REMARK  Name = 
REMARK  7 active torsions:
REMARK  status: ('A' for Active; 'I' for Inactive)
REMARK    1  A    between atoms: O_1  and  C_2
REMARK    2  A    between atoms: C_5  and  C_6
REMARK    3  A    between atoms: C_8  and  C_9
REMARK    4  A    between atoms: C_12  and  N_13
REMARK    5  A    between atoms: N_13  and  C_14
REMARK    6  A    between atoms: N_13  and  C_21
REMARK    7  A    between atoms: C_14  and  C_15
REMARK                            x       y       z     vdW  Elec       q    Type
REMARK                         _______ _______ _______ _____ _____    ______ ____
ROOT
ATOM      1  C   UNL     1       1.349   9.710  19.019  0.00  0.00    +0.000 A 
ATOM      2  C   UNL     1       1.738   9.203  17.779  0.00  0.00    +0.000 A 
ATOM      3  C   UNL     1       2.233   7.898  17.663  0.00  0.00    +0.000 A 
ATOM      4  C   UNL     1       2.318   7.023  18.761  0.00  0.00    +0.000 A 
ATOM      5  C   UNL     1       1.969   7.570  20.008  0.00  0.00    +0.000 A 
ATOM      6  C   UNL     1       1.493   8.889  20.139  0.00  0.00    +0.000 A 
ENDROOT
BRANCH   1   9
ATOM      7  C   UNL     1       0.713  13.153  18.951  0.00  0.00    +0.000 A 
ATOM      8  N   UNL     1       1.556  12.161  18.786  0.00  0.00    +0.000 NA
ATOM      9  C   UNL     1       0.799  11.057  19.108  0.00  0.00    +0.000 A 
ATOM     10  N   UNL     1      -0.462  11.347  19.469  0.00  0.00    +0.000 NA
ATOM     11  O   UNL     1      -0.521  12.740  19.365  0.00  0.00    +0.000 OA
BRANCH   7  15
ATOM     12  C   UNL     1       1.377  17.297  18.231  0.00  0.00    +0.000 A 
ATOM     13  C   UNL     1       2.442  16.407  18.195  0.00  0.00    +0.000 A 
ATOM     14  C   UNL     1       2.209  15.051  18.443  0.00  0.00    +0.000 A 
ATOM     15  C   UNL     1       0.916  14.577  18.730  0.00  0.00    +0.000 A 
ATOM     16  C   UNL     1      -0.141  15.501  18.770  0.00  0.00    +0.000 A 
ATOM     17  C   UNL     1       0.090  16.855  18.522  0.00  0.00    +0.000 A 
BRANCH  12  18
ATOM     18  O   UNL     1       1.551  18.626  17.981  0.00  0.00    +0.000 OA
ATOM     19  H   UNL     1       0.713  19.086  18.158  0.00  0.00    +0.000 HD
ENDBRANCH  12  18
ENDBRANCH   7  15
ENDBRANCH   1   9
BRANCH   4  20
ATOM     20  N   UNL     1       2.735   5.679  18.565  0.00  0.00    +0.000 N 
BRANCH  20  21
ATOM     21  C   UNL     1       2.357   4.551  19.361  0.00  0.00    +0.000 A 
ATOM     22  C   UNL     1       2.697   4.443  20.722  0.00  0.00    +0.000 A 
ATOM     23  C   UNL     1       2.313   3.344  21.498  0.00  0.00    +0.000 A 
ATOM     24  C   UNL     1       1.591   2.306  20.926  0.00  0.00    +0.000 A 
ATOM     25  C   UNL     1       1.243   2.374  19.582  0.00  0.00    +0.000 A 
ATOM     26  C   UNL     1       1.608   3.489  18.818  0.00  0.00    +0.000 A 
ENDBRANCH  20  21
BRANCH  20  27
ATOM     27  C   UNL     1       3.787   5.389  17.561  0.00  0.00    +0.000 C 
BRANCH  27  28
ATOM     28  C   UNL     1       5.191   5.815  17.968  0.00  0.00    +0.000 A 
ATOM     29  C   UNL     1       5.863   5.259  19.064  0.00  0.00    +0.000 A 
ATOM     30  C   UNL     1       7.181   5.622  19.351  0.00  0.00    +0.000 A 
ATOM     31  C   UNL     1       7.846   6.544  18.546  0.00  0.00    +0.000 A 
ATOM     32  C   UNL     1       7.187   7.122  17.465  0.00  0.00    +0.000 A 
ATOM     33  C   UNL     1       5.870   6.759  17.176  0.00  0.00    +0.000 A 
ENDBRANCH  27  28
ENDBRANCH  20  27
ENDBRANCH   4  20
TORSDOF 7
ENDMDL
MODEL 4
REMARK VINA RESULT:      -9.2      2.751      5.083
REMARK  Name = 
REMARK  7 active torsions:
REMARK  status: ('A' for Active; 'I' for Inactive)
REMARK    1  A    between atoms: O_1  and  C_2
REMARK    2  A    between atoms: C_5  and  C_6
REMARK    3  A    between atoms: C_8  and  C_9
REMARK    4  A    between atoms: C_12  and  N_13
REMARK    5  A    between atoms: N_13  and  C_14
REMARK    6  A    between atoms: N_13  and  C_21
REMARK    7  A    between atoms: C_14  and  C_15
REMARK                            x       y       z     vdW  Elec       q    Type
REMARK                         _______ _______ _______ _____ _____    ______ ____
ROOT
ATOM      1  C   UNL     1       1.198   9.459  19.369  0.00  0.00    +0.000 A 
ATOM      2  C   UNL     1       1.586   9.314  18.037  0.00  0.00    +0.000 A 
ATOM      3  C   UNL     1       2.256   8.161  17.609  0.00  0.00    +0.000 A 
ATOM      4  C   UNL     1       2.528   7.082  18.468  0.00  0.00    +0.000 A 
ATOM      5  C   UNL     1       2.174   7.270  19.816  0.00  0.00    +0.000 A 
ATOM      6  C   UNL     1       1.522   8.435  20.263  0.00  0.00    +0.000 A 
ENDROOT
BRANCH   1   9
ATOM      7  C   UNL     1      -0.659  11.927  21.018  0.00  0.00    +0.000 A 
ATOM      8  N   UNL     1      -0.164  10.712  21.007  0.00  0.00    +0.000 NA
ATOM      9  C   UNL     1       0.466  10.649  19.783  0.00  0.00    +0.000 A 
ATOM     10  N   UNL     1       0.359  11.774  19.056  0.00  0.00    +0.000 NA
ATOM     11  O   UNL     1      -0.389  12.624  19.876  0.00  0.00    +0.000 OA
BRANCH   7  15
ATOM     12  C   UNL     1      -2.898  13.811  24.112  0.00  0.00    +0.000 A 
ATOM     13  C   UNL     1      -3.483  12.816  23.339  0.00  0.00    +0.000 A 
ATOM     14  C   UNL     1      -2.737  12.215  22.321  0.00  0.00    +0.000 A 
ATOM     15  C   UNL     1      -1.409  12.602  22.067  0.00  0.00    +0.000 A 
ATOM     16  C   UNL     1      -0.846  13.617  22.857  0.00  0.00    +0.000 A 
ATOM     17  C   UNL     1      -1.589  14.219  23.875  0.00  0.00    +0.000 A 
BRANCH  12  18
ATOM     18  O   UNL     1      -3.579  14.417  25.127  0.00  0.00    +0.000 OA
ATOM     19  H   UNL     1      -4.415  13.943  25.263  0.00  0.00    +0.000 HD
ENDBRANCH  12  18
ENDBRANCH   7  15
ENDBRANCH   1   9
BRANCH   4  20
ATOM     20  N   UNL     1       3.122   5.898  17.954  0.00  0.00    +0.000 N 
BRANCH  20  21
ATOM     21  C   UNL     1       4.411   5.797  17.339  0.00  0.00    +0.000 A 
ATOM     22  C   UNL     1       4.714   4.807  16.386  0.00  0.00    +0.000 A 
ATOM     23  C   UNL     1       5.971   4.721  15.778  0.00  0.00    +0.000 A 
ATOM     24  C   UNL     1       6.974   5.617  16.124  0.00  0.00    +0.000 A 
ATOM     25  C   UNL     1       6.714   6.604  17.067  0.00  0.00    +0.000 A 
ATOM     26  C   UNL     1       5.445   6.700  17.652  0.00  0.00    +0.000 A 
ENDBRANCH  20  21
BRANCH  20  27
ATOM     27  C   UNL     1       2.311   4.660  17.871  0.00  0.00    +0.000 C 
BRANCH  27  28
ATOM     28  C   UNL     1       2.269   3.839  19.152  0.00  0.00    +0.000 A 
ATOM     29  C   UNL     1       3.407   3.229  19.697  0.00  0.00    +0.000 A 
ATOM     30  C   UNL     1       3.338   2.554  20.918  0.00  0.00    +0.000 A 
ATOM     31  C   UNL     1       2.132   2.480  21.611  0.00  0.00    +0.000 A 
ATOM     32  C   UNL     1       0.987   3.062  21.075  0.00  0.00    +0.000 A 
ATOM     33  C   UNL     1       1.055   3.739  19.856  0.00  0.00    +0.000 A 
ENDBRANCH  27  28
ENDBRANCH  20  27
ENDBRANCH   4  20
TORSDOF 7
ENDMDL
MODEL 5
REMARK VINA RESULT:      -9.2      2.829      5.142
REMARK  Name = 
REMARK  7 active torsions:
REMARK  status: ('A' for Active; 'I' for Inactive)
REMARK    1  A    between atoms: O_1  and  C_2
REMARK    2  A    between atoms: C_5  and  C_6
REMARK    3  A    between atoms: C_8  and  C_9
REMARK    4  A    between atoms: C_12  and  N_13
REMARK    5  A    between atoms: N_13  and  C_14
REMARK    6  A    between atoms: N_13  and  C_21
REMARK    7  A    between atoms: C_14  and  C_15
REMARK                            x       y       z     vdW  Elec       q    Type
REMARK                         _______ _______ _______ _____ _____    ______ ____
ROOT
ATOM      1  C   UNL     1       1.480   9.096  19.207  0.00  0.00    +0.000 A 
ATOM      2  C   UNL     1       1.875   8.958  17.876  0.00  0.00    +0.000 A 
ATOM      3  C   UNL     1       2.538   7.803  17.442  0.00  0.00    +0.000 A 
ATOM      4  C   UNL     1       2.796   6.715  18.295  0.00  0.00    +0.000 A 
ATOM      5  C   UNL     1       2.436   6.896  19.643  0.00  0.00    +0.000 A 
ATOM      6  C   UNL     1       1.791   8.063  20.095  0.00  0.00    +0.000 A 
ENDROOT
BRANCH   1   9
ATOM      7  C   UNL     1      -0.721  11.455  20.566  0.00  0.00    +0.000 A 
ATOM      8  N   UNL     1      -0.408  10.198  20.357  0.00  0.00    +0.000 NA
ATOM      9  C   UNL     1       0.755  10.289  19.626  0.00  0.00    +0.000 A 
ATOM     10  N   UNL     1       1.148  11.550  19.379  0.00  0.00    +0.000 NA
ATOM     11  O   UNL     1       0.167  12.326  20.003  0.00  0.00    +0.000 OA
BRANCH   7  15
ATOM     12  C   UNL     1      -3.925  13.105  22.834  0.00  0.00    +0.000 A 
ATOM     13  C   UNL     1      -2.941  12.357  23.466  0.00  0.00    +0.000 A 
ATOM     14  C   UNL     1      -1.901  11.814  22.705  0.00  0.00    +0.000 A 
ATOM     15  C   UNL     1      -1.839  12.012  21.314  0.00  0.00    +0.000 A 
ATOM     16  C   UNL     1      -2.853  12.764  20.699  0.00  0.00    +0.000 A 
ATOM     17  C   UNL     1      -3.892  13.307  21.457  0.00  0.00    +0.000 A 
BRANCH  12  18
ATOM     18  O   UNL     1      -4.951  13.668  23.534  0.00  0.00    +0.000 OA
ATOM     19  H   UNL     1      -5.420  14.287  22.950  0.00  0.00    +0.000 HD
ENDBRANCH  12  18
ENDBRANCH   7  15
ENDBRANCH   1   9
BRANCH   4  20
ATOM     20  N   UNL     1       3.383   5.531  17.775  0.00  0.00    +0.000 N 
BRANCH  20  21
ATOM     21  C   UNL     1       4.654   5.432  17.123  0.00  0.00    +0.000 A 
ATOM     22  C   UNL     1       4.874   4.571  16.032  0.00  0.00    +0.000 A 
ATOM     23  C   UNL     1       6.114   4.489  15.389  0.00  0.00    +0.000 A 
ATOM     24  C   UNL     1       7.182   5.256  15.836  0.00  0.00    +0.000 A 
ATOM     25  C   UNL     1       7.003   6.113  16.916  0.00  0.00    +0.000 A 
ATOM     26  C   UNL     1       5.752   6.209  17.537  0.00  0.00    +0.000 A 
ENDBRANCH  20  21
BRANCH  20  27
ATOM     27  C   UNL     1       2.579   4.286  17.729  0.00  0.00    +0.000 C 
BRANCH  27  28
ATOM     28  C   UNL     1       2.375   3.608  19.077  0.00  0.00    +0.000 A 
ATOM     29  C   UNL     1       3.439   3.103  19.838  0.00  0.00    +0.000 A 
ATOM     30  C   UNL     1       3.213   2.563  21.106  0.00  0.00    +0.000 A 
ATOM     31  C   UNL     1       1.924   2.521  21.632  0.00  0.00    +0.000 A 
ATOM     32  C   UNL     1       0.853   2.999  20.882  0.00  0.00    +0.000 A 
ATOM     33  C   UNL     1       1.077   3.541  19.615  0.00  0.00    +0.000 A 
ENDBRANCH  27  28
ENDBRANCH  20  27
ENDBRANCH   4  20
TORSDOF 7
ENDMDL
MODEL 6
REMARK VINA RESULT:      -9.2      2.829      5.011
REMARK  Name = 
REMARK  7 active torsions:
REMARK  status: ('A' for Active; 'I' for Inactive)
REMARK    1  A    between atoms: O_1  and  C_2
REMARK    2  A    between atoms: C_5  and  C_6
REMARK    3  A    between atoms: C_8  and  C_9
REMARK    4  A    between atoms: C_12  and  N_13
REMARK    5  A    between atoms: N_13  and  C_14
REMARK    6  A    between atoms: N_13  and  C_21
REMARK    7  A    between atoms: C_14  and  C_15
REMARK                            x       y       z     vdW  Elec       q    Type
REMARK                         _______ _______ _______ _____ _____    ______ ____
ROOT
ATOM      1  C   UNL     1       1.166   9.606  19.547  0.00  0.00    +0.000 A 
ATOM      2  C   UNL     1       1.450   8.542  20.403  0.00  0.00    +0.000 A 
ATOM      3  C   UNL     1       2.056   7.376  19.919  0.00  0.00    +0.000 A 
ATOM      4  C   UNL     1       2.451   7.232  18.577  0.00  0.00    +0.000 A 
ATOM      5  C   UNL     1       2.110   8.295  17.722  0.00  0.00    +0.000 A 
ATOM      6  C   UNL     1       1.479   9.462  18.194  0.00  0.00    +0.000 A 
ENDROOT
BRANCH   1   9
ATOM      7  C   UNL     1      -0.537  12.061  21.372  0.00  0.00    +0.000 A 
ATOM      8  N   UNL     1      -0.251  10.794  21.186  0.00  0.00    +0.000 NA
ATOM      9  C   UNL     1       0.572  10.825  20.082  0.00  0.00    +0.000 A 
ATOM     10  N   UNL     1       0.782  12.059  19.592  0.00  0.00    +0.000 NA
ATOM     11  O   UNL     1       0.045  12.881  20.449  0.00  0.00    +0.000 OA
BRANCH   7  15
ATOM     12  C   UNL     1      -2.880  13.955  24.383  0.00  0.00    +0.000 A 
ATOM     13  C   UNL     1      -1.664  14.507  23.999  0.00  0.00    +0.000 A 
ATOM     14  C   UNL     1      -0.903  13.867  23.016  0.00  0.00    +0.000 A 
ATOM     15  C   UNL     1      -1.347  12.676  22.414  0.00  0.00    +0.000 A 
ATOM     16  C   UNL     1      -2.574  12.135  22.828  0.00  0.00    +0.000 A 
ATOM     17  C   UNL     1      -3.336  12.772  23.809  0.00  0.00    +0.000 A 
BRANCH  12  18
ATOM     18  O   UNL     1      -3.666  14.549  25.325  0.00  0.00    +0.000 OA
ATOM     19  H   UNL     1      -3.103  14.820  26.070  0.00  0.00    +0.000 HD
ENDBRANCH  12  18
ENDBRANCH   7  15
ENDBRANCH   1   9
BRANCH   4  20
ATOM     20  N   UNL     1       3.151   6.066  18.165  0.00  0.00    +0.000 N 
BRANCH  20  21
ATOM     21  C   UNL     1       4.521   6.001  17.755  0.00  0.00    +0.000 A 
ATOM     22  C   UNL     1       4.902   6.020  16.401  0.00  0.00    +0.000 A 
ATOM     23  C   UNL     1       6.244   5.971  16.006  0.00  0.00    +0.000 A 
ATOM     24  C   UNL     1       7.247   5.880  16.962  0.00  0.00    +0.000 A 
ATOM     25  C   UNL     1       6.908   5.851  18.309  0.00  0.00    +0.000 A 
ATOM     26  C   UNL     1       5.565   5.928  18.697  0.00  0.00    +0.000 A 
ENDBRANCH  20  21
BRANCH  20  27
ATOM     27  C   UNL     1       2.397   4.805  17.965  0.00  0.00    +0.000 C 
BRANCH  27  28
ATOM     28  C   UNL     1       2.307   3.914  19.195  0.00  0.00    +0.000 A 
ATOM     29  C   UNL     1       3.412   3.224  19.712  0.00  0.00    +0.000 A 
ATOM     30  C   UNL     1       3.301   2.483  20.890  0.00  0.00    +0.000 A 
ATOM     31  C   UNL     1       2.086   2.422  21.570  0.00  0.00    +0.000 A 
ATOM     32  C   UNL     1       0.973   3.085  21.060  0.00  0.00    +0.000 A 
ATOM     33  C   UNL     1       1.083   3.827  19.883  0.00  0.00    +0.000 A 
ENDBRANCH  27  28
ENDBRANCH  20  27
ENDBRANCH   4  20
TORSDOF 7
ENDMDL
MODEL 7
REMARK VINA RESULT:      -9.2      2.854      3.919
REMARK  Name = 
REMARK  7 active torsions:
REMARK  status: ('A' for Active; 'I' for Inactive)
REMARK    1  A    between atoms: O_1  and  C_2
REMARK    2  A    between atoms: C_5  and  C_6
REMARK    3  A    between atoms: C_8  and  C_9
REMARK    4  A    between atoms: C_12  and  N_13
REMARK    5  A    between atoms: N_13  and  C_14
REMARK    6  A    between atoms: N_13  and  C_21
REMARK    7  A    between atoms: C_14  and  C_15
REMARK                            x       y       z     vdW  Elec       q    Type
REMARK                         _______ _______ _______ _____ _____    ______ ____
ROOT
ATOM      1  C   UNL     1       1.406   9.220  19.480  0.00  0.00    +0.000 A 
ATOM      2  C   UNL     1       1.799   9.118  18.146  0.00  0.00    +0.000 A 
ATOM      3  C   UNL     1       2.403   7.949  17.665  0.00  0.00    +0.000 A 
ATOM      4  C   UNL     1       2.600   6.814  18.472  0.00  0.00    +0.000 A 
ATOM      5  C   UNL     1       2.243   6.957  19.825  0.00  0.00    +0.000 A 
ATOM      6  C   UNL     1       1.657   8.136  20.324  0.00  0.00    +0.000 A 
ENDROOT
BRANCH   1   9
ATOM      7  C   UNL     1      -0.660  11.633  20.952  0.00  0.00    +0.000 A 
ATOM      8  N   UNL     1      -0.406  10.370  20.704  0.00  0.00    +0.000 NA
ATOM      9  C   UNL     1       0.743  10.431  19.947  0.00  0.00    +0.000 A 
ATOM     10  N   UNL     1       1.182  11.681  19.723  0.00  0.00    +0.000 NA
ATOM     11  O   UNL     1       0.250  12.480  20.390  0.00  0.00    +0.000 OA
BRANCH   7  15
ATOM     12  C   UNL     1      -3.749  13.321  23.349  0.00  0.00    +0.000 A 
ATOM     13  C   UNL     1      -3.033  12.224  23.811  0.00  0.00    +0.000 A 
ATOM     14  C   UNL     1      -2.029  11.676  23.007  0.00  0.00    +0.000 A 
ATOM     15  C   UNL     1      -1.736  12.215  21.742  0.00  0.00    +0.000 A 
ATOM     16  C   UNL     1      -2.482  13.318  21.296  0.00  0.00    +0.000 A 
ATOM     17  C   UNL     1      -3.484  13.867  22.097  0.00  0.00    +0.000 A 
BRANCH  12  18
ATOM     18  O   UNL     1      -4.727  13.901  24.101  0.00  0.00    +0.000 OA
ATOM     19  H   UNL     1      -5.330  14.380  23.508  0.00  0.00    +0.000 HD
ENDBRANCH  12  18
ENDBRANCH   7  15
ENDBRANCH   1   9
BRANCH   4  20
ATOM     20  N   UNL     1       3.127   5.624  17.904  0.00  0.00    +0.000 N 
BRANCH  20  21
ATOM     21  C   UNL     1       2.751   4.285  18.245  0.00  0.00    +0.000 A 
ATOM     22  C   UNL     1       1.408   3.870  18.291  0.00  0.00    +0.000 A 
ATOM     23  C   UNL     1       1.047   2.556  18.611  0.00  0.00    +0.000 A 
ATOM     24  C   UNL     1       2.027   1.620  18.916  0.00  0.00    +0.000 A 
ATOM     25  C   UNL     1       3.364   1.996  18.887  0.00  0.00    +0.000 A 
ATOM     26  C   UNL     1       3.719   3.305  18.540  0.00  0.00    +0.000 A 
ENDBRANCH  20  21
BRANCH  20  27
ATOM     27  C   UNL     1       4.292   5.714  16.992  0.00  0.00    +0.000 C 
BRANCH  27  28
ATOM     28  C   UNL     1       5.600   6.105  17.665  0.00  0.00    +0.000 A 
ATOM     29  C   UNL     1       6.132   5.399  18.752  0.00  0.00    +0.000 A 
ATOM     30  C   UNL     1       7.376   5.744  19.286  0.00  0.00    +0.000 A 
ATOM     31  C   UNL     1       8.106   6.797  18.739  0.00  0.00    +0.000 A 
ATOM     32  C   UNL     1       7.584   7.522  17.671  0.00  0.00    +0.000 A 
ATOM     33  C   UNL     1       6.342   7.177  17.136  0.00  0.00    +0.000 A 
ENDBRANCH  27  28
ENDBRANCH  20  27
ENDBRANCH   4  20
TORSDOF 7
ENDMDL
MODEL 8
REMARK VINA RESULT:      -9.2      2.822      5.016
REMARK  Name = 
REMARK  7 active torsions:
REMARK  status: ('A' for Active; 'I' for Inactive)
REMARK    1  A    between atoms: O_1  and  C_2
REMARK    2  A    between atoms: C_5  and  C_6
REMARK    3  A    between atoms: C_8  and  C_9
REMARK    4  A    between atoms: C_12  and  N_13
REMARK    5  A    between atoms: N_13  and  C_14
REMARK    6  A    between atoms: N_13  and  C_21
REMARK    7  A    between atoms: C_14  and  C_15
REMARK                            x       y       z     vdW  Elec       q    Type
REMARK                         _______ _______ _______ _____ _____    ______ ____
ROOT
ATOM      1  C   UNL     1       1.331   9.559  19.573  0.00  0.00    +0.000 A 
ATOM      2  C   UNL     1       1.588   8.454  20.386  0.00  0.00    +0.000 A 
ATOM      3  C   UNL     1       2.098   7.269  19.842  0.00  0.00    +0.000 A 
ATOM      4  C   UNL     1       2.423   7.142  18.480  0.00  0.00    +0.000 A 
ATOM      5  C   UNL     1       2.110   8.248  17.671  0.00  0.00    +0.000 A 
ATOM      6  C   UNL     1       1.574   9.436  18.203  0.00  0.00    +0.000 A 
ENDROOT
BRANCH   1   9
ATOM      7  C   UNL     1      -0.297  12.053  21.412  0.00  0.00    +0.000 A 
ATOM      8  N   UNL     1      -0.177  10.785  21.098  0.00  0.00    +0.000 NA
ATOM      9  C   UNL     1       0.839  10.795  20.167  0.00  0.00    +0.000 A 
ATOM     10  N   UNL     1       1.325  12.019  19.903  0.00  0.00    +0.000 NA
ATOM     11  O   UNL     1       0.570  12.856  20.730  0.00  0.00    +0.000 OA
BRANCH   7  15
ATOM     12  C   UNL     1      -2.931  13.789  24.273  0.00  0.00    +0.000 A 
ATOM     13  C   UNL     1      -3.274  12.597  23.647  0.00  0.00    +0.000 A 
ATOM     14  C   UNL     1      -2.403  12.046  22.703  0.00  0.00    +0.000 A 
ATOM     15  C   UNL     1      -1.189  12.679  22.377  0.00  0.00    +0.000 A 
ATOM     16  C   UNL     1      -0.873  13.888  23.018  0.00  0.00    +0.000 A 
ATOM     17  C   UNL     1      -1.741  14.439  23.961  0.00  0.00    +0.000 A 
BRANCH  12  18
ATOM     18  O   UNL     1      -3.740  14.358  25.212  0.00  0.00    +0.000 OA
ATOM     19  H   UNL     1      -3.449  15.274  25.355  0.00  0.00    +0.000 HD
ENDBRANCH  12  18
ENDBRANCH   7  15
ENDBRANCH   1   9
BRANCH   4  20
ATOM     20  N   UNL     1       3.031   5.948  18.005  0.00  0.00    +0.000 N 
BRANCH  20  21
ATOM     21  C   UNL     1       4.318   5.841  17.389  0.00  0.00    +0.000 A 
ATOM     22  C   UNL     1       4.658   4.773  16.538  0.00  0.00    +0.000 A 
ATOM     23  C   UNL     1       5.914   4.681  15.927  0.00  0.00    +0.000 A 
ATOM     24  C   UNL     1       6.878   5.650  16.170  0.00  0.00    +0.000 A 
ATOM     25  C   UNL     1       6.581   6.716  17.010  0.00  0.00    +0.000 A 
ATOM     26  C   UNL     1       5.313   6.815  17.596  0.00  0.00    +0.000 A 
ENDBRANCH  20  21
BRANCH  20  27
ATOM     27  C   UNL     1       2.234   4.698  17.968  0.00  0.00    +0.000 C 
BRANCH  27  28
ATOM     28  C   UNL     1       2.199   3.926  19.279  0.00  0.00    +0.000 A 
ATOM     29  C   UNL     1       1.022   3.746  20.020  0.00  0.00    +0.000 A 
ATOM     30  C   UNL     1       1.021   2.961  21.175  0.00  0.00    +0.000 A 
ATOM     31  C   UNL     1       2.193   2.342  21.604  0.00  0.00    +0.000 A 
ATOM     32  C   UNL     1       3.375   2.526  20.892  0.00  0.00    +0.000 A 
ATOM     33  C   UNL     1       3.378   3.310  19.737  0.00  0.00    +0.000 A 
ENDBRANCH  27  28
ENDBRANCH  20  27
ENDBRANCH   4  20
TORSDOF 7
ENDMDL
MODEL 9
REMARK VINA RESULT:      -9.2      2.989      3.975
REMARK  Name = 
REMARK  7 active torsions:
REMARK  status: ('A' for Active; 'I' for Inactive)
REMARK    1  A    between atoms: O_1  and  C_2
REMARK    2  A    between atoms: C_5  and  C_6
REMARK    3  A    between atoms: C_8  and  C_9
REMARK    4  A    between atoms: C_12  and  N_13
REMARK    5  A    between atoms: N_13  and  C_14
REMARK    6  A    between atoms: N_13  and  C_21
REMARK    7  A    between atoms: C_14  and  C_15
REMARK                            x       y       z     vdW  Elec       q    Type
REMARK                         _______ _______ _______ _____ _____    ______ ____
ROOT
ATOM      1  C   UNL     1       1.317   9.493  20.045  0.00  0.00    +0.000 A 
ATOM      2  C   UNL     1       1.460   8.313  20.776  0.00  0.00    +0.000 A 
ATOM      3  C   UNL     1       1.899   7.137  20.156  0.00  0.00    +0.000 A 
ATOM      4  C   UNL     1       2.262   7.088  18.799  0.00  0.00    +0.000 A 
ATOM      5  C   UNL     1       2.061   8.274  18.070  0.00  0.00    +0.000 A 
ATOM      6  C   UNL     1       1.597   9.456  18.677  0.00  0.00    +0.000 A 
ENDROOT
BRANCH   1   9
ATOM      7  C   UNL     1      -0.308  12.010  21.856  0.00  0.00    +0.000 A 
ATOM      8  N   UNL     1      -0.325  10.800  21.348  0.00  0.00    +0.000 NA
ATOM      9  C   UNL     1       0.897  10.715  20.720  0.00  0.00    +0.000 A 
ATOM     10  N   UNL     1       1.642  11.828  20.822  0.00  0.00    +0.000 NA
ATOM     11  O   UNL     1       0.842  12.690  21.576  0.00  0.00    +0.000 OA
BRANCH   7  15
ATOM     12  C   UNL     1      -3.272  13.875  24.280  0.00  0.00    +0.000 A 
ATOM     13  C   UNL     1      -3.489  12.598  23.777  0.00  0.00    +0.000 A 
ATOM     14  C   UNL     1      -2.510  12.005  22.975  0.00  0.00    +0.000 A 
ATOM     15  C   UNL     1      -1.314  12.679  22.669  0.00  0.00    +0.000 A 
ATOM     16  C   UNL     1      -1.126  13.972  23.182  0.00  0.00    +0.000 A 
ATOM     17  C   UNL     1      -2.102  14.567  23.984  0.00  0.00    +0.000 A 
BRANCH  12  18
ATOM     18  O   UNL     1      -4.189  14.490  25.080  0.00  0.00    +0.000 OA
ATOM     19  H   UNL     1      -4.765  15.040  24.522  0.00  0.00    +0.000 HD
ENDBRANCH  12  18
ENDBRANCH   7  15
ENDBRANCH   1   9
BRANCH   4  20
ATOM     20  N   UNL     1       2.794   5.891  18.249  0.00  0.00    +0.000 N 
BRANCH  20  21
ATOM     21  C   UNL     1       2.514   4.559  18.693  0.00  0.00    +0.000 A 
ATOM     22  C   UNL     1       3.090   4.017  19.856  0.00  0.00    +0.000 A 
ATOM     23  C   UNL     1       2.803   2.719  20.292  0.00  0.00    +0.000 A 
ATOM     24  C   UNL     1       1.940   1.914  19.560  0.00  0.00    +0.000 A 
ATOM     25  C   UNL     1       1.357   2.413  18.402  0.00  0.00    +0.000 A 
ATOM     26  C   UNL     1       1.629   3.722  17.986  0.00  0.00    +0.000 A 
ENDBRANCH  20  21
BRANCH  20  27
ATOM     27  C   UNL     1       3.868   5.979  17.232  0.00  0.00    +0.000 C 
BRANCH  27  28
ATOM     28  C   UNL     1       5.267   6.181  17.797  0.00  0.00    +0.000 A 
ATOM     29  C   UNL     1       5.771   5.418  18.859  0.00  0.00    +0.000 A 
ATOM     30  C   UNL     1       7.089   5.582  19.291  0.00  0.00    +0.000 A 
ATOM     31  C   UNL     1       7.921   6.509  18.668  0.00  0.00    +0.000 A 
ATOM     32  C   UNL     1       7.431   7.290  17.625  0.00  0.00    +0.000 A 
ATOM     33  C   UNL     1       6.115   7.126  17.191  0.00  0.00    +0.000 A 
ENDBRANCH  27  28
ENDBRANCH  20  27
ENDBRANCH   4  20
TORSDOF 7
ENDMDL
