MODEL 1
REMARK VINA RESULT:      -7.8      0.000      0.000
REMARK  Name = 
REMARK  6 active torsions:
REMARK  status: ('A' for Active; 'I' for Inactive)
REMARK    1  A    between atoms: C_1  and  N_2
REMARK    2  A    between atoms: N_2  and  C_3
REMARK    3  A    between atoms: C_4  and  O_6
REMARK    4  A    between atoms: O_6  and  C_7
REMARK    5  A    between atoms: C_7  and  C_8
REMARK    6  A    between atoms: C_7  and  C_15
REMARK                            x       y       z     vdW  Elec       q    Type
REMARK                         _______ _______ _______ _____ _____    ______ ____
ROOT
ATOM      1  C   UNL     1       3.102   5.559  17.983  0.00  0.00    +0.000 C 
ENDROOT
BRANCH   1   2
ATOM      2  C   UNL     1       4.633   5.423  18.009  0.00  0.00    +0.000 A 
ATOM      3  C   UNL     1       5.332   5.599  19.225  0.00  0.00    +0.000 A 
ATOM      4  C   UNL     1       6.720   5.579  19.279  0.00  0.00    +0.000 A 
ATOM      5  C   UNL     1       7.449   5.352  18.122  0.00  0.00    +0.000 A 
ATOM      6  C   UNL     1       6.803   5.112  16.903  0.00  0.00    +0.000 A 
ATOM      7  C   UNL     1       7.582   4.851  15.763  0.00  0.00    +0.000 A 
ATOM      8  C   UNL     1       6.985   4.588  14.533  0.00  0.00    +0.000 A 
ATOM      9  C   UNL     1       5.603   4.587  14.432  0.00  0.00    +0.000 A 
ATOM     10  C   UNL     1       4.815   4.860  15.555  0.00  0.00    +0.000 A 
ATOM     11  C   UNL     1       5.383   5.133  16.825  0.00  0.00    +0.000 A 
ENDBRANCH   1   2
BRANCH   1  12
ATOM     12  C   UNL     1       2.598   6.878  18.560  0.00  0.00    +0.000 A 
ATOM     13  C   UNL     1       2.545   8.030  17.777  0.00  0.00    +0.000 A 
ATOM     14  N   UNL     1       1.989   9.201  18.167  0.00  0.00    +0.000 NA
ATOM     15  C   UNL     1       1.470   9.250  19.409  0.00  0.00    +0.000 A 
ATOM     16  C   UNL     1       1.494   8.184  20.285  0.00  0.00    +0.000 A 
ATOM     17  C   UNL     1       2.061   6.987  19.849  0.00  0.00    +0.000 A 
ATOM     18 CL   UNL     1       2.046   5.662  20.958  0.00  0.00    +0.000 Cl
ENDBRANCH   1  12
BRANCH   1  19
ATOM     19  O   UNL     1       2.526   4.450  18.708  0.00  0.00    +0.000 OA
BRANCH  19  23
ATOM     20  C   UNL     1       3.605   0.993  18.452  0.00  0.00    +0.000 C 
ATOM     21  N   UNL     1       3.337   2.324  18.965  0.00  0.00    +0.000 N 
ATOM     22  C   UNL     1       3.767   2.667  20.308  0.00  0.00    +0.000 C 
ATOM     23  C   UNL     1       2.682   3.222  18.142  0.00  0.00    +0.000 C 
ATOM     24  O   UNL     1       2.286   2.922  17.019  0.00  0.00    +0.000 OA
ENDBRANCH  19  23
ENDBRANCH   1  19
TORSDOF 4
ENDMDL
MODEL 2
REMARK VINA RESULT:      -7.6      2.435      5.940
REMARK  Name = 
REMARK  6 active torsions:
REMARK  status: ('A' for Active; 'I' for Inactive)
REMARK    1  A    between atoms: C_1  and  N_2
REMARK    2  A    between atoms: N_2  and  C_3
REMARK    3  A    between atoms: C_4  and  O_6
REMARK    4  A    between atoms: O_6  and  C_7
REMARK    5  A    between atoms: C_7  and  C_8
REMARK    6  A    between atoms: C_7  and  C_15
REMARK                            x       y       z     vdW  Elec       q    Type
REMARK                         _______ _______ _______ _____ _____    ______ ____
ROOT
ATOM      1  C   UNL     1       3.560   5.848  17.961  0.00  0.00    +0.000 C 
ENDROOT
BRANCH   1   2
ATOM      2  C   UNL     1       3.034   4.414  18.134  0.00  0.00    +0.000 A 
ATOM      3  C   UNL     1       3.005   3.540  17.024  0.00  0.00    +0.000 A 
ATOM      4  C   UNL     1       2.451   2.269  17.109  0.00  0.00    +0.000 A 
ATOM      5  C   UNL     1       1.937   1.823  18.317  0.00  0.00    +0.000 A 
ATOM      6  C   UNL     1       1.996   2.628  19.461  0.00  0.00    +0.000 A 
ATOM      7  C   UNL     1       1.496   2.121  20.673  0.00  0.00    +0.000 A 
ATOM      8  C   UNL     1       1.549   2.876  21.841  0.00  0.00    +0.000 A 
ATOM      9  C   UNL     1       2.100   4.147  21.807  0.00  0.00    +0.000 A 
ATOM     10  C   UNL     1       2.590   4.670  20.606  0.00  0.00    +0.000 A 
ATOM     11  C   UNL     1       2.554   3.935  19.394  0.00  0.00    +0.000 A 
ENDBRANCH   1   2
BRANCH   1  12
ATOM     12  C   UNL     1       5.069   5.969  18.144  0.00  0.00    +0.000 A 
ATOM     13  C   UNL     1       5.679   5.598  19.341  0.00  0.00    +0.000 A 
ATOM     14  N   UNL     1       7.018   5.547  19.540  0.00  0.00    +0.000 NA
ATOM     15  C   UNL     1       7.805   5.899  18.505  0.00  0.00    +0.000 A 
ATOM     16  C   UNL     1       7.314   6.313  17.283  0.00  0.00    +0.000 A 
ATOM     17  C   UNL     1       5.932   6.342  17.106  0.00  0.00    +0.000 A 
ATOM     18 CL   UNL     1       5.350   6.835  15.555  0.00  0.00    +0.000 Cl
ENDBRANCH   1  12
BRANCH   1  19
ATOM     19  O   UNL     1       2.877   6.707  18.900  0.00  0.00    +0.000 OA
BRANCH  19  23
ATOM     20  C   UNL     1       1.082   9.862  18.890  0.00  0.00    +0.000 C 
ATOM     21  N   UNL     1       1.671   8.608  19.321  0.00  0.00    +0.000 N 
ATOM     22  C   UNL     1       1.461   8.155  20.683  0.00  0.00    +0.000 C 
ATOM     23  C   UNL     1       2.413   7.886  18.402  0.00  0.00    +0.000 C 
ATOM     24  O   UNL     1       2.622   8.285  17.261  0.00  0.00    +0.000 OA
ENDBRANCH  19  23
ENDBRANCH   1  19
TORSDOF 4
ENDMDL
MODEL 3
REMARK VINA RESULT:      -7.5      1.005      1.011
REMARK  Name = 
REMARK  6 active torsions:
REMARK  status: ('A' for Active; 'I' for Inactive)
REMARK    1  A    between atoms: C_1  and  N_2
REMARK    2  A    between atoms: N_2  and  C_3
REMARK    3  A    between atoms: C_4  and  O_6
REMARK    4  A    between atoms: O_6  and  C_7
REMARK    5  A    between atoms: C_7  and  C_8
REMARK    6  A    between atoms: C_7  and  C_15
REMARK                            x       y       z     vdW  Elec       q    Type
REMARK                         _______ _______ _______ _____ _____    ______ ____
ROOT
ATOM      1  C   UNL     1       3.083   5.682  18.061  0.00  0.00    +0.000 C 
ENDROOT
BRANCH   1   2
ATOM      2  C   UNL     1       4.607   5.483  18.093  0.00  0.00    +0.000 A 
ATOM      3  C   UNL     1       5.309   5.630  19.310  0.00  0.00    +0.000 A 
ATOM      4  C   UNL     1       6.695   5.553  19.369  0.00  0.00    +0.000 A 
ATOM      5  C   UNL     1       7.418   5.295  18.215  0.00  0.00    +0.000 A 
ATOM      6  C   UNL     1       6.766   5.082  16.994  0.00  0.00    +0.000 A 
ATOM      7  C   UNL     1       7.538   4.788  15.856  0.00  0.00    +0.000 A 
ATOM      8  C   UNL     1       6.935   4.550  14.625  0.00  0.00    +0.000 A 
ATOM      9  C   UNL     1       5.555   4.607  14.518  0.00  0.00    +0.000 A 
ATOM     10  C   UNL     1       4.775   4.912  15.639  0.00  0.00    +0.000 A 
ATOM     11  C   UNL     1       5.348   5.162  16.911  0.00  0.00    +0.000 A 
ENDBRANCH   1   2
BRANCH   1  12
ATOM     12  C   UNL     1       2.649   7.111  18.370  0.00  0.00    +0.000 A 
ATOM     13  C   UNL     1       2.750   8.115  17.408  0.00  0.00    +0.000 A 
ATOM     14  N   UNL     1       2.266   9.372  17.554  0.00  0.00    +0.000 NA
ATOM     15  C   UNL     1       1.664   9.665  18.722  0.00  0.00    +0.000 A 
ATOM     16  C   UNL     1       1.534   8.763  19.758  0.00  0.00    +0.000 A 
ATOM     17  C   UNL     1       2.031   7.474  19.573  0.00  0.00    +0.000 A 
ATOM     18 CL   UNL     1       1.825   6.359  20.877  0.00  0.00    +0.000 Cl
ENDBRANCH   1  12
BRANCH   1  19
ATOM     19  O   UNL     1       2.478   4.767  19.001  0.00  0.00    +0.000 OA
BRANCH  19  23
ATOM     20  C   UNL     1       0.566   1.684  18.863  0.00  0.00    +0.000 C 
ATOM     21  N   UNL     1       1.395   2.777  19.336  0.00  0.00    +0.000 N 
ATOM     22  C   UNL     1       1.925   2.734  20.686  0.00  0.00    +0.000 C 
ATOM     23  C   UNL     1       1.654   3.824  18.468  0.00  0.00    +0.000 C 
ATOM     24  O   UNL     1       1.177   3.879  17.338  0.00  0.00    +0.000 OA
ENDBRANCH  19  23
ENDBRANCH   1  19
TORSDOF 4
ENDMDL
MODEL 4
REMARK VINA RESULT:      -7.3      2.045      4.889
REMARK  Name = 
REMARK  6 active torsions:
REMARK  status: ('A' for Active; 'I' for Inactive)
REMARK    1  A    between atoms: C_1  and  N_2
REMARK    2  A    between atoms: N_2  and  C_3
REMARK    3  A    between atoms: C_4  and  O_6
REMARK    4  A    between atoms: O_6  and  C_7
REMARK    5  A    between atoms: C_7  and  C_8
REMARK    6  A    between atoms: C_7  and  C_15
REMARK                            x       y       z     vdW  Elec       q    Type
REMARK                         _______ _______ _______ _____ _____    ______ ____
ROOT
ATOM      1  C   UNL     1       3.253   6.635  19.043  0.00  0.00    +0.000 C 
ENDROOT
BRANCH   1   2
ATOM      2  C   UNL     1       2.454   5.350  18.771  0.00  0.00    +0.000 A 
ATOM      3  C   UNL     1       1.960   5.093  17.473  0.00  0.00    +0.000 A 
ATOM      4  C   UNL     1       1.154   3.995  17.202  0.00  0.00    +0.000 A 
ATOM      5  C   UNL     1       0.845   3.103  18.218  0.00  0.00    +0.000 A 
ATOM      6  C   UNL     1       1.360   3.280  19.508  0.00  0.00    +0.000 A 
ATOM      7  C   UNL     1       1.049   2.331  20.498  0.00  0.00    +0.000 A 
ATOM      8  C   UNL     1       1.552   2.453  21.789  0.00  0.00    +0.000 A 
ATOM      9  C   UNL     1       2.368   3.528  22.105  0.00  0.00    +0.000 A 
ATOM     10  C   UNL     1       2.674   4.488  21.134  0.00  0.00    +0.000 A 
ATOM     11  C   UNL     1       2.182   4.401  19.807  0.00  0.00    +0.000 A 
ENDBRANCH   1   2
BRANCH   1  12
ATOM     12  C   UNL     1       2.423   7.908  18.911  0.00  0.00    +0.000 A 
ATOM     13  C   UNL     1       2.430   8.651  17.731  0.00  0.00    +0.000 A 
ATOM     14  N   UNL     1       1.625   9.711  17.484  0.00  0.00    +0.000 NA
ATOM     15  C   UNL     1       0.773  10.075  18.462  0.00  0.00    +0.000 A 
ATOM     16  C   UNL     1       0.700   9.436  19.683  0.00  0.00    +0.000 A 
ATOM     17  C   UNL     1       1.532   8.339  19.902  0.00  0.00    +0.000 A 
ATOM     18 CL   UNL     1       1.393   7.541  21.428  0.00  0.00    +0.000 Cl
ENDBRANCH   1  12
BRANCH   1  19
ATOM     19  O   UNL     1       4.377   6.681  18.137  0.00  0.00    +0.000 OA
BRANCH  19  23
ATOM     20  C   UNL     1       7.208   4.495  17.513  0.00  0.00    +0.000 C 
ATOM     21  N   UNL     1       6.102   5.416  17.320  0.00  0.00    +0.000 N 
ATOM     22  C   UNL     1       5.747   5.827  15.975  0.00  0.00    +0.000 C 
ATOM     23  C   UNL     1       5.421   5.862  18.439  0.00  0.00    +0.000 C 
ATOM     24  O   UNL     1       5.744   5.543  19.580  0.00  0.00    +0.000 OA
ENDBRANCH  19  23
ENDBRANCH   1  19
TORSDOF 4
ENDMDL
MODEL 5
REMARK VINA RESULT:      -7.2      1.313      1.515
REMARK  Name = 
REMARK  6 active torsions:
REMARK  status: ('A' for Active; 'I' for Inactive)
REMARK    1  A    between atoms: C_1  and  N_2
REMARK    2  A    between atoms: N_2  and  C_3
REMARK    3  A    between atoms: C_4  and  O_6
REMARK    4  A    between atoms: O_6  and  C_7
REMARK    5  A    between atoms: C_7  and  C_8
REMARK    6  A    between atoms: C_7  and  C_15
REMARK                            x       y       z     vdW  Elec       q    Type
REMARK                         _______ _______ _______ _____ _____    ______ ____
ROOT
ATOM      1  C   UNL     1       3.086   5.069  18.354  0.00  0.00    +0.000 C 
ENDROOT
BRANCH   1   2
ATOM      2  C   UNL     1       4.618   5.149  18.251  0.00  0.00    +0.000 A 
ATOM      3  C   UNL     1       5.383   5.449  19.400  0.00  0.00    +0.000 A 
ATOM      4  C   UNL     1       6.760   5.625  19.336  0.00  0.00    +0.000 A 
ATOM      5  C   UNL     1       7.416   5.475  18.124  0.00  0.00    +0.000 A 
ATOM      6  C   UNL     1       6.711   5.119  16.967  0.00  0.00    +0.000 A 
ATOM      7  C   UNL     1       7.422   4.943  15.768  0.00  0.00    +0.000 A 
ATOM      8  C   UNL     1       6.769   4.571  14.596  0.00  0.00    +0.000 A 
ATOM      9  C   UNL     1       5.397   4.375  14.613  0.00  0.00    +0.000 A 
ATOM     10  C   UNL     1       4.674   4.561  15.796  0.00  0.00    +0.000 A 
ATOM     11  C   UNL     1       5.300   4.939  17.010  0.00  0.00    +0.000 A 
ENDBRANCH   1   2
BRANCH   1  12
ATOM     12  C   UNL     1       2.455   6.299  18.998  0.00  0.00    +0.000 A 
ATOM     13  C   UNL     1       1.878   6.229  20.265  0.00  0.00    +0.000 A 
ATOM     14  N   UNL     1       1.418   7.295  20.962  0.00  0.00    +0.000 NA
ATOM     15  C   UNL     1       1.514   8.501  20.371  0.00  0.00    +0.000 A 
ATOM     16  C   UNL     1       2.037   8.689  19.107  0.00  0.00    +0.000 A 
ATOM     17  C   UNL     1       2.514   7.574  18.421  0.00  0.00    +0.000 A 
ATOM     18 CL   UNL     1       3.191   7.847  16.855  0.00  0.00    +0.000 Cl
ENDBRANCH   1  12
BRANCH   1  19
ATOM     19  O   UNL     1       2.734   3.883  19.099  0.00  0.00    +0.000 OA
BRANCH  19  23
ATOM     20  C   UNL     1       4.115   0.576  18.520  0.00  0.00    +0.000 C 
ATOM     21  N   UNL     1       3.793   1.854  19.130  0.00  0.00    +0.000 N 
ATOM     22  C   UNL     1       4.391   2.202  20.405  0.00  0.00    +0.000 C 
ATOM     23  C   UNL     1       2.926   2.698  18.459  0.00  0.00    +0.000 C 
ATOM     24  O   UNL     1       2.391   2.389  17.398  0.00  0.00    +0.000 OA
ENDBRANCH  19  23
ENDBRANCH   1  19
TORSDOF 4
ENDMDL
MODEL 6
REMARK VINA RESULT:      -7.1      5.633      8.366
REMARK  Name = 
REMARK  6 active torsions:
REMARK  status: ('A' for Active; 'I' for Inactive)
REMARK    1  A    between atoms: C_1  and  N_2
REMARK    2  A    between atoms: N_2  and  C_3
REMARK    3  A    between atoms: C_4  and  O_6
REMARK    4  A    between atoms: O_6  and  C_7
REMARK    5  A    between atoms: C_7  and  C_8
REMARK    6  A    between atoms: C_7  and  C_15
REMARK                            x       y       z     vdW  Elec       q    Type
REMARK                         _______ _______ _______ _____ _____    ______ ____
ROOT
ATOM      1  C   UNL     1      -0.525  11.866  19.044  0.00  0.00    +0.000 C 
ENDROOT
BRANCH   1   2
ATOM      2  C   UNL     1      -0.048  10.734  19.969  0.00  0.00    +0.000 A 
ATOM      3  C   UNL     1      -0.407  10.748  21.336  0.00  0.00    +0.000 A 
ATOM      4  C   UNL     1       0.078   9.800  22.228  0.00  0.00    +0.000 A 
ATOM      5  C   UNL     1       0.913   8.792  21.773  0.00  0.00    +0.000 A 
ATOM      6  C   UNL     1       1.251   8.699  20.417  0.00  0.00    +0.000 A 
ATOM      7  C   UNL     1       2.071   7.639  19.993  0.00  0.00    +0.000 A 
ATOM      8  C   UNL     1       2.418   7.494  18.654  0.00  0.00    +0.000 A 
ATOM      9  C   UNL     1       1.951   8.410  17.725  0.00  0.00    +0.000 A 
ATOM     10  C   UNL     1       1.145   9.478  18.133  0.00  0.00    +0.000 A 
ATOM     11  C   UNL     1       0.769   9.662  19.488  0.00  0.00    +0.000 A 
ENDBRANCH   1   2
BRANCH   1  12
ATOM     12  C   UNL     1       0.052  13.231  19.404  0.00  0.00    +0.000 A 
ATOM     13  C   UNL     1      -0.672  14.134  20.180  0.00  0.00    +0.000 A 
ATOM     14  N   UNL     1      -0.184  15.305  20.655  0.00  0.00    +0.000 NA
ATOM     15  C   UNL     1       1.086  15.616  20.332  0.00  0.00    +0.000 A 
ATOM     16  C   UNL     1       1.888  14.816  19.544  0.00  0.00    +0.000 A 
ATOM     17  C   UNL     1       1.361  13.611  19.082  0.00  0.00    +0.000 A 
ATOM     18 CL   UNL     1       2.401  12.617  18.124  0.00  0.00    +0.000 Cl
ENDBRANCH   1  12
BRANCH   1  19
ATOM     19  O   UNL     1      -1.968  11.914  19.078  0.00  0.00    +0.000 OA
BRANCH  19  23
ATOM     20  C   UNL     1      -4.771  11.315  16.851  0.00  0.00    +0.000 C 
ATOM     21  N   UNL     1      -3.979  11.699  18.005  0.00  0.00    +0.000 N 
ATOM     22  C   UNL     1      -4.649  12.192  19.194  0.00  0.00    +0.000 C 
ATOM     23  C   UNL     1      -2.603  11.570  17.925  0.00  0.00    +0.000 C 
ATOM     24  O   UNL     1      -2.034  11.187  16.907  0.00  0.00    +0.000 OA
ENDBRANCH  19  23
ENDBRANCH   1  19
TORSDOF 4
ENDMDL
MODEL 7
REMARK VINA RESULT:      -7.0      2.295      5.668
REMARK  Name = 
REMARK  6 active torsions:
REMARK  status: ('A' for Active; 'I' for Inactive)
REMARK    1  A    between atoms: C_1  and  N_2
REMARK    2  A    between atoms: N_2  and  C_3
REMARK    3  A    between atoms: C_4  and  O_6
REMARK    4  A    between atoms: O_6  and  C_7
REMARK    5  A    between atoms: C_7  and  C_8
REMARK    6  A    between atoms: C_7  and  C_15
REMARK                            x       y       z     vdW  Elec       q    Type
REMARK                         _______ _______ _______ _____ _____    ______ ____
ROOT
ATOM      1  C   UNL     1       3.919   5.464  19.339  0.00  0.00    +0.000 C 
ENDROOT
BRANCH   1   2
ATOM      2  C   UNL     1       3.216   6.731  18.824  0.00  0.00    +0.000 A 
ATOM      3  C   UNL     1       3.528   7.232  17.540  0.00  0.00    +0.000 A 
ATOM      4  C   UNL     1       2.990   8.423  17.071  0.00  0.00    +0.000 A 
ATOM      5  C   UNL     1       2.100   9.134  17.862  0.00  0.00    +0.000 A 
ATOM      6  C   UNL     1       1.713   8.650  19.118  0.00  0.00    +0.000 A 
ATOM      7  C   UNL     1       0.781   9.385  19.870  0.00  0.00    +0.000 A 
ATOM      8  C   UNL     1       0.351   8.935  21.114  0.00  0.00    +0.000 A 
ATOM      9  C   UNL     1       0.853   7.747  21.621  0.00  0.00    +0.000 A 
ATOM     10  C   UNL     1       1.792   7.011  20.890  0.00  0.00    +0.000 A 
ATOM     11  C   UNL     1       2.256   7.434  19.619  0.00  0.00    +0.000 A 
ENDBRANCH   1   2
BRANCH   1  12
ATOM     12  C   UNL     1       5.287   5.227  18.708  0.00  0.00    +0.000 A 
ATOM     13  C   UNL     1       6.458   5.569  19.381  0.00  0.00    +0.000 A 
ATOM     14  N   UNL     1       7.708   5.271  18.953  0.00  0.00    +0.000 NA
ATOM     15  C   UNL     1       7.814   4.614  17.783  0.00  0.00    +0.000 A 
ATOM     16  C   UNL     1       6.728   4.251  17.013  0.00  0.00    +0.000 A 
ATOM     17  C   UNL     1       5.454   4.560  17.487  0.00  0.00    +0.000 A 
ATOM     18 CL   UNL     1       4.113   4.064  16.516  0.00  0.00    +0.000 Cl
ENDBRANCH   1  12
BRANCH   1  19
ATOM     19  O   UNL     1       3.059   4.328  19.101  0.00  0.00    +0.000 OA
BRANCH  19  23
ATOM     20  C   UNL     1       1.662   2.285  21.755  0.00  0.00    +0.000 C 
ATOM     21  N   UNL     1       1.796   3.235  20.667  0.00  0.00    +0.000 N 
ATOM     22  C   UNL     1       0.637   3.998  20.243  0.00  0.00    +0.000 C 
ATOM     23  C   UNL     1       3.040   3.379  20.076  0.00  0.00    +0.000 C 
ATOM     24  O   UNL     1       4.012   2.709  20.410  0.00  0.00    +0.000 OA
ENDBRANCH  19  23
ENDBRANCH   1  19
TORSDOF 4
ENDMDL
MODEL 8
REMARK VINA RESULT:      -7.0      7.712     10.637
REMARK  Name = 
REMARK  6 active torsions:
REMARK  status: ('A' for Active; 'I' for Inactive)
REMARK    1  A    between atoms: C_1  and  N_2
REMARK    2  A    between atoms: N_2  and  C_3
REMARK    3  A    between atoms: C_4  and  O_6
REMARK    4  A    between atoms: O_6  and  C_7
REMARK    5  A    between atoms: C_7  and  C_8
REMARK    6  A    between atoms: C_7  and  C_15
REMARK                            x       y       z     vdW  Elec       q    Type
REMARK                         _______ _______ _______ _____ _____    ______ ____
ROOT
ATOM      1  C   UNL     1      -0.840  12.319  19.957  0.00  0.00    +0.000 C 
ENDROOT
BRANCH   1   2
ATOM      2  C   UNL     1      -2.345  12.293  19.643  0.00  0.00    +0.000 A 
ATOM      3  C   UNL     1      -3.269  12.764  20.602  0.00  0.00    +0.000 A 
ATOM      4  C   UNL     1      -4.640  12.673  20.402  0.00  0.00    +0.000 A 
ATOM      5  C   UNL     1      -5.128  12.134  19.221  0.00  0.00    +0.000 A 
ATOM      6  C   UNL     1      -4.253  11.707  18.214  0.00  0.00    +0.000 A 
ATOM      7  C   UNL     1      -4.792  11.200  17.019  0.00  0.00    +0.000 A 
ATOM      8  C   UNL     1      -3.964  10.781  15.982  0.00  0.00    +0.000 A 
ATOM      9  C   UNL     1      -2.589  10.862  16.131  0.00  0.00    +0.000 A 
ATOM     10  C   UNL     1      -2.038  11.351  17.321  0.00  0.00    +0.000 A 
ATOM     11  C   UNL     1      -2.846  11.787  18.401  0.00  0.00    +0.000 A 
ENDBRANCH   1   2
BRANCH   1  12
ATOM     12  C   UNL     1      -0.419  11.297  21.008  0.00  0.00    +0.000 A 
ATOM     13  C   UNL     1      -0.695  11.501  22.358  0.00  0.00    +0.000 A 
ATOM     14  N   UNL     1      -0.478  10.589  23.335  0.00  0.00    +0.000 NA
ATOM     15  C   UNL     1       0.061   9.412  22.966  0.00  0.00    +0.000 A 
ATOM     16  C   UNL     1       0.406   9.109  21.664  0.00  0.00    +0.000 A 
ATOM     17  C   UNL     1       0.157  10.064  20.679  0.00  0.00    +0.000 A 
ATOM     18 CL   UNL     1       0.571   9.642  19.055  0.00  0.00    +0.000 Cl
ENDBRANCH   1  12
BRANCH   1  19
ATOM     19  O   UNL     1      -0.480  13.650  20.388  0.00  0.00    +0.000 OA
BRANCH  19  23
ATOM     20  C   UNL     1      -0.357  16.703  18.429  0.00  0.00    +0.000 C 
ATOM     21  N   UNL     1      -0.691  15.729  19.451  0.00  0.00    +0.000 N 
ATOM     22  C   UNL     1      -1.672  16.069  20.463  0.00  0.00    +0.000 C 
ATOM     23  C   UNL     1      -0.056  14.499  19.412  0.00  0.00    +0.000 C 
ATOM     24  O   UNL     1       0.800  14.223  18.577  0.00  0.00    +0.000 OA
ENDBRANCH  19  23
ENDBRANCH   1  19
TORSDOF 4
ENDMDL
MODEL 9
REMARK VINA RESULT:      -7.0      2.377      6.023
REMARK  Name = 
REMARK  6 active torsions:
REMARK  status: ('A' for Active; 'I' for Inactive)
REMARK    1  A    between atoms: C_1  and  N_2
REMARK    2  A    between atoms: N_2  and  C_3
REMARK    3  A    between atoms: C_4  and  O_6
REMARK    4  A    between atoms: O_6  and  C_7
REMARK    5  A    between atoms: C_7  and  C_8
REMARK    6  A    between atoms: C_7  and  C_15
REMARK                            x       y       z     vdW  Elec       q    Type
REMARK                         _______ _______ _______ _____ _____    ______ ____
ROOT
ATOM      1  C   UNL     1       2.840   6.185  19.699  0.00  0.00    +0.000 C 
ENDROOT
BRANCH   1   2
ATOM      2  C   UNL     1       2.237   7.522  19.240  0.00  0.00    +0.000 A 
ATOM      3  C   UNL     1       2.428   7.957  17.909  0.00  0.00    +0.000 A 
ATOM      4  C   UNL     1       1.983   9.200  17.475  0.00  0.00    +0.000 A 
ATOM      5  C   UNL     1       1.306  10.032  18.354  0.00  0.00    +0.000 A 
ATOM      6  C   UNL     1       1.038   9.623  19.666  0.00  0.00    +0.000 A 
ATOM      7  C   UNL     1       0.317  10.484  20.511  0.00  0.00    +0.000 A 
ATOM      8  C   UNL     1       0.011  10.114  21.817  0.00  0.00    +0.000 A 
ATOM      9  C   UNL     1       0.426   8.881  22.292  0.00  0.00    +0.000 A 
ATOM     10  C   UNL     1       1.156   8.018  21.467  0.00  0.00    +0.000 A 
ATOM     11  C   UNL     1       1.490   8.356  20.131  0.00  0.00    +0.000 A 
ENDBRANCH   1   2
BRANCH   1  12
ATOM     12  C   UNL     1       3.829   5.589  18.703  0.00  0.00    +0.000 A 
ATOM     13  C   UNL     1       5.204   5.729  18.884  0.00  0.00    +0.000 A 
ATOM     14  N   UNL     1       6.146   5.120  18.126  0.00  0.00    +0.000 NA
ATOM     15  C   UNL     1       5.712   4.342  17.116  0.00  0.00    +0.000 A 
ATOM     16  C   UNL     1       4.377   4.154  16.821  0.00  0.00    +0.000 A 
ATOM     17  C   UNL     1       3.431   4.783  17.628  0.00  0.00    +0.000 A 
ATOM     18 CL   UNL     1       1.768   4.503  17.252  0.00  0.00    +0.000 Cl
ENDBRANCH   1  12
BRANCH   1  19
ATOM     19  O   UNL     1       1.765   5.254  19.948  0.00  0.00    +0.000 OA
BRANCH  19  23
ATOM     20  C   UNL     1       1.409   2.196  21.872  0.00  0.00    +0.000 C 
ATOM     21  N   UNL     1       1.327   3.175  20.804  0.00  0.00    +0.000 N 
ATOM     22  C   UNL     1       0.603   2.845  19.592  0.00  0.00    +0.000 C 
ATOM     23  C   UNL     1       1.946   4.399  20.992  0.00  0.00    +0.000 C 
ATOM     24  O   UNL     1       2.589   4.666  22.003  0.00  0.00    +0.000 OA
ENDBRANCH  19  23
ENDBRANCH   1  19
TORSDOF 4
ENDMDL
