MODEL 1
REMARK VINA RESULT:      -7.9      0.000      0.000
REMARK  Name = 
REMARK  7 active torsions:
REMARK  status: ('A' for Active; 'I' for Inactive)
REMARK    1  A    between atoms: C_1  and  C_2
REMARK    2  A    between atoms: C_4  and  C_5
REMARK    3  A    between atoms: C_6  and  C_7
REMARK    4  A    between atoms: C_7  and  N_8
REMARK    5  A    between atoms: C_12  and  C_14
REMARK    6  A    between atoms: C_14  and  C_16
REMARK    7  A    between atoms: C_25  and  C_26
REMARK                            x       y       z     vdW  Elec       q    Type
REMARK                         _______ _______ _______ _____ _____    ______ ____
ROOT
ATOM      1  N   UNL     1       2.521   6.262  19.768  0.00  0.00    +0.000 NA
ATOM      2  C   UNL     1       1.540   6.485  20.842  0.00  0.00    +0.000 C 
ATOM      3  C   UNL     1       1.569   7.983  21.185  0.00  0.00    +0.000 C 
ATOM      4  N   UNL     1       1.303   8.790  19.993  0.00  0.00    +0.000 N 
ATOM      5  C   UNL     1       0.361   9.799  20.062  0.00  0.00    +0.000 C 
ATOM      6  O   UNL     1      -0.337  10.037  21.048  0.00  0.00    +0.000 OA
ATOM      7  C   UNL     1       2.138   8.467  18.824  0.00  0.00    +0.000 C 
ATOM      8  C   UNL     1       2.106   6.943  18.540  0.00  0.00    +0.000 C 
ENDROOT
BRANCH   5   9
ATOM      9  C   UNL     1       0.109  10.647  18.832  0.00  0.00    +0.000 C 
ATOM     10  O   UNL     1       1.011  11.348  18.381  0.00  0.00    +0.000 OA
BRANCH   9  11
ATOM     11  C   UNL     1      -1.247  10.640  18.231  0.00  0.00    +0.000 A 
ATOM     12  C   UNL     1      -2.211  11.522  18.734  0.00  0.00    +0.000 A 
ATOM     13  C   UNL     1      -3.495  11.537  18.187  0.00  0.00    +0.000 A 
ATOM     14  C   UNL     1      -3.819  10.689  17.130  0.00  0.00    +0.000 A 
ATOM     15  C   UNL     1      -2.855   9.813  16.625  0.00  0.00    +0.000 A 
ATOM     16  C   UNL     1      -1.570   9.785  17.172  0.00  0.00    +0.000 A 
ENDBRANCH   9  11
ENDBRANCH   5   9
BRANCH   1  17
ATOM     17  C   UNL     1       3.026   4.901  19.654  0.00  0.00    +0.000 C 
BRANCH  17  23
ATOM     18  C   UNL     1       7.018   4.853  15.536  0.00  0.00    +0.000 C 
ATOM     19  C   UNL     1       5.988   4.855  16.625  0.00  0.00    +0.000 A 
ATOM     20  N   UNL     1       4.866   4.124  16.405  0.00  0.00    +0.000 NA
ATOM     21  C   UNL     1       3.923   4.122  17.385  0.00  0.00    +0.000 A 
ATOM     22  C   UNL     1       2.685   3.327  17.100  0.00  0.00    +0.000 C 
ATOM     23  C   UNL     1       4.110   4.821  18.585  0.00  0.00    +0.000 A 
ATOM     24  N   UNL     1       5.238   5.552  18.801  0.00  0.00    +0.000 NA
ATOM     25  C   UNL     1       6.167   5.570  17.811  0.00  0.00    +0.000 A 
ATOM     26  C   UNL     1       7.391   6.397  18.058  0.00  0.00    +0.000 C 
ENDBRANCH  17  23
ENDBRANCH   1  17
TORSDOF 4
ENDMDL
MODEL 2
REMARK VINA RESULT:      -7.9      2.480      8.499
REMARK  Name = 
REMARK  7 active torsions:
REMARK  status: ('A' for Active; 'I' for Inactive)
REMARK    1  A    between atoms: C_1  and  C_2
REMARK    2  A    between atoms: C_4  and  C_5
REMARK    3  A    between atoms: C_6  and  C_7
REMARK    4  A    between atoms: C_7  and  N_8
REMARK    5  A    between atoms: C_12  and  C_14
REMARK    6  A    between atoms: C_14  and  C_16
REMARK    7  A    between atoms: C_25  and  C_26
REMARK                            x       y       z     vdW  Elec       q    Type
REMARK                         _______ _______ _______ _____ _____    ______ ____
ROOT
ATOM      1  N   UNL     1       1.180   9.419  19.109  0.00  0.00    +0.000 NA
ATOM      2  C   UNL     1       1.417   8.747  20.397  0.00  0.00    +0.000 C 
ATOM      3  C   UNL     1       1.321   7.234  20.148  0.00  0.00    +0.000 C 
ATOM      4  N   UNL     1       2.265   6.821  19.107  0.00  0.00    +0.000 N 
ATOM      5  C   UNL     1       3.087   5.735  19.339  0.00  0.00    +0.000 C 
ATOM      6  O   UNL     1       3.138   5.111  20.400  0.00  0.00    +0.000 OA
ATOM      7  C   UNL     1       2.193   7.599  17.860  0.00  0.00    +0.000 C 
ATOM      8  C   UNL     1       2.257   9.118  18.164  0.00  0.00    +0.000 C 
ENDROOT
BRANCH   5   9
ATOM      9  C   UNL     1       4.042   5.297  18.248  0.00  0.00    +0.000 C 
ATOM     10  O   UNL     1       3.667   4.497  17.395  0.00  0.00    +0.000 OA
BRANCH   9  11
ATOM     11  C   UNL     1       5.431   5.818  18.271  0.00  0.00    +0.000 A 
ATOM     12  C   UNL     1       5.784   6.833  17.374  0.00  0.00    +0.000 A 
ATOM     13  C   UNL     1       7.083   7.342  17.374  0.00  0.00    +0.000 A 
ATOM     14  C   UNL     1       8.029   6.856  18.273  0.00  0.00    +0.000 A 
ATOM     15  C   UNL     1       7.676   5.846  19.171  0.00  0.00    +0.000 A 
ATOM     16  C   UNL     1       6.379   5.324  19.173  0.00  0.00    +0.000 A 
ENDBRANCH   9  11
ENDBRANCH   5   9
BRANCH   1  17
ATOM     17  C   UNL     1       0.718  10.797  19.198  0.00  0.00    +0.000 C 
BRANCH  17  23
ATOM     18  C   UNL     1      -4.708  11.375  17.431  0.00  0.00    +0.000 C 
ATOM     19  C   UNL     1      -3.293  11.204  17.896  0.00  0.00    +0.000 A 
ATOM     20  N   UNL     1      -2.950  11.833  19.048  0.00  0.00    +0.000 NA
ATOM     21  C   UNL     1      -1.667  11.687  19.477  0.00  0.00    +0.000 A 
ATOM     22  C   UNL     1      -1.313  12.416  20.738  0.00  0.00    +0.000 C 
ATOM     23  C   UNL     1      -0.744  10.898  18.778  0.00  0.00    +0.000 A 
ATOM     24  N   UNL     1      -1.095  10.268  17.623  0.00  0.00    +0.000 NA
ATOM     25  C   UNL     1      -2.369  10.434  17.186  0.00  0.00    +0.000 A 
ATOM     26  C   UNL     1      -2.730   9.750  15.903  0.00  0.00    +0.000 C 
ENDBRANCH  17  23
ENDBRANCH   1  17
TORSDOF 4
ENDMDL
MODEL 3
REMARK VINA RESULT:      -7.6      2.525      8.434
REMARK  Name = 
REMARK  7 active torsions:
REMARK  status: ('A' for Active; 'I' for Inactive)
REMARK    1  A    between atoms: C_1  and  C_2
REMARK    2  A    between atoms: C_4  and  C_5
REMARK    3  A    between atoms: C_6  and  C_7
REMARK    4  A    between atoms: C_7  and  N_8
REMARK    5  A    between atoms: C_12  and  C_14
REMARK    6  A    between atoms: C_14  and  C_16
REMARK    7  A    between atoms: C_25  and  C_26
REMARK                            x       y       z     vdW  Elec       q    Type
REMARK                         _______ _______ _______ _____ _____    ______ ____
ROOT
ATOM      1  N   UNL     1       1.651   8.633  19.022  0.00  0.00    +0.000 NA
ATOM      2  C   UNL     1       1.819   8.159  20.406  0.00  0.00    +0.000 C 
ATOM      3  C   UNL     1       1.423   6.674  20.433  0.00  0.00    +0.000 C 
ATOM      4  N   UNL     1       2.217   5.910  19.468  0.00  0.00    +0.000 N 
ATOM      5  C   UNL     1       2.827   4.740  19.878  0.00  0.00    +0.000 C 
ATOM      6  O   UNL     1       2.811   4.311  21.032  0.00  0.00    +0.000 OA
ATOM      7  C   UNL     1       2.234   6.461  18.103  0.00  0.00    +0.000 C 
ATOM      8  C   UNL     1       2.603   7.966  18.130  0.00  0.00    +0.000 C 
ENDROOT
BRANCH   5   9
ATOM      9  C   UNL     1       3.625   3.941  18.868  0.00  0.00    +0.000 C 
ATOM     10  O   UNL     1       3.167   2.893  18.421  0.00  0.00    +0.000 OA
BRANCH   9  11
ATOM     11  C   UNL     1       4.971   4.431  18.480  0.00  0.00    +0.000 A 
ATOM     12  C   UNL     1       5.433   4.173  17.185  0.00  0.00    +0.000 A 
ATOM     13  C   UNL     1       6.695   4.622  16.793  0.00  0.00    +0.000 A 
ATOM     14  C   UNL     1       7.492   5.342  17.680  0.00  0.00    +0.000 A 
ATOM     15  C   UNL     1       7.029   5.603  18.972  0.00  0.00    +0.000 A 
ATOM     16  C   UNL     1       5.770   5.150  19.376  0.00  0.00    +0.000 A 
ENDBRANCH   9  11
ENDBRANCH   5   9
BRANCH   1  17
ATOM     17  C   UNL     1       1.466  10.069  18.870  0.00  0.00    +0.000 C 
BRANCH  17  23
ATOM     18  C   UNL     1      -4.037  11.541  18.210  0.00  0.00    +0.000 C 
ATOM     19  C   UNL     1      -2.604  11.136  18.385  0.00  0.00    +0.000 A 
ATOM     20  N   UNL     1      -1.970  11.603  19.490  0.00  0.00    +0.000 NA
ATOM     21  C   UNL     1      -0.668  11.245  19.657  0.00  0.00    +0.000 A 
ATOM     22  C   UNL     1       0.011  11.798  20.872  0.00  0.00    +0.000 C 
ATOM     23  C   UNL     1      -0.015  10.406  18.744  0.00  0.00    +0.000 A 
ATOM     24  N   UNL     1      -0.657   9.940  17.637  0.00  0.00    +0.000 NA
ATOM     25  C   UNL     1      -1.949  10.318  17.463  0.00  0.00    +0.000 A 
ATOM     26  C   UNL     1      -2.632   9.812  16.229  0.00  0.00    +0.000 C 
ENDBRANCH  17  23
ENDBRANCH   1  17
TORSDOF 4
ENDMDL
MODEL 4
REMARK VINA RESULT:      -7.6      1.570      2.416
REMARK  Name = 
REMARK  7 active torsions:
REMARK  status: ('A' for Active; 'I' for Inactive)
REMARK    1  A    between atoms: C_1  and  C_2
REMARK    2  A    between atoms: C_4  and  C_5
REMARK    3  A    between atoms: C_6  and  C_7
REMARK    4  A    between atoms: C_7  and  N_8
REMARK    5  A    between atoms: C_12  and  C_14
REMARK    6  A    between atoms: C_14  and  C_16
REMARK    7  A    between atoms: C_25  and  C_26
REMARK                            x       y       z     vdW  Elec       q    Type
REMARK                         _______ _______ _______ _____ _____    ______ ____
ROOT
ATOM      1  N   UNL     1       2.579   6.196  19.789  0.00  0.00    +0.000 NA
ATOM      2  C   UNL     1       1.542   6.407  20.812  0.00  0.00    +0.000 C 
ATOM      3  C   UNL     1       1.522   7.907  21.142  0.00  0.00    +0.000 C 
ATOM      4  N   UNL     1       1.297   8.699  19.931  0.00  0.00    +0.000 N 
ATOM      5  C   UNL     1       0.331   9.687  19.945  0.00  0.00    +0.000 C 
ATOM      6  O   UNL     1      -0.418   9.918  20.895  0.00  0.00    +0.000 OA
ATOM      7  C   UNL     1       2.194   8.385  18.807  0.00  0.00    +0.000 C 
ATOM      8  C   UNL     1       2.209   6.859  18.536  0.00  0.00    +0.000 C 
ENDROOT
BRANCH   5   9
ATOM      9  C   UNL     1       0.121  10.520  18.698  0.00  0.00    +0.000 C 
ATOM     10  O   UNL     1      -0.479  10.040  17.739  0.00  0.00    +0.000 OA
BRANCH   9  11
ATOM     11  C   UNL     1       0.691  11.889  18.653  0.00  0.00    +0.000 A 
ATOM     12  C   UNL     1      -0.161  12.980  18.859  0.00  0.00    +0.000 A 
ATOM     13  C   UNL     1       0.349  14.279  18.824  0.00  0.00    +0.000 A 
ATOM     14  C   UNL     1       1.707  14.495  18.600  0.00  0.00    +0.000 A 
ATOM     15  C   UNL     1       2.558  13.406  18.400  0.00  0.00    +0.000 A 
ATOM     16  C   UNL     1       2.055  12.102  18.425  0.00  0.00    +0.000 A 
ENDBRANCH   9  11
ENDBRANCH   5   9
BRANCH   1  17
ATOM     17  C   UNL     1       3.118   4.846  19.711  0.00  0.00    +0.000 C 
BRANCH  17  23
ATOM     18  C   UNL     1       7.003   4.752  15.494  0.00  0.00    +0.000 C 
ATOM     19  C   UNL     1       6.001   4.766  16.608  0.00  0.00    +0.000 A 
ATOM     20  N   UNL     1       4.867   4.046  16.418  0.00  0.00    +0.000 NA
ATOM     21  C   UNL     1       3.949   4.055  17.421  0.00  0.00    +0.000 A 
ATOM     22  C   UNL     1       2.696   3.272  17.169  0.00  0.00    +0.000 C 
ATOM     23  C   UNL     1       4.173   4.754  18.615  0.00  0.00    +0.000 A 
ATOM     24  N   UNL     1       5.314   5.474  18.802  0.00  0.00    +0.000 NA
ATOM     25  C   UNL     1       6.217   5.481  17.788  0.00  0.00    +0.000 A 
ATOM     26  C   UNL     1       7.456   6.296  18.003  0.00  0.00    +0.000 C 
ENDBRANCH  17  23
ENDBRANCH   1  17
TORSDOF 4
ENDMDL
MODEL 5
REMARK VINA RESULT:      -7.3      1.479      2.688
REMARK  Name = 
REMARK  7 active torsions:
REMARK  status: ('A' for Active; 'I' for Inactive)
REMARK    1  A    between atoms: C_1  and  C_2
REMARK    2  A    between atoms: C_4  and  C_5
REMARK    3  A    between atoms: C_6  and  C_7
REMARK    4  A    between atoms: C_7  and  N_8
REMARK    5  A    between atoms: C_12  and  C_14
REMARK    6  A    between atoms: C_14  and  C_16
REMARK    7  A    between atoms: C_25  and  C_26
REMARK                            x       y       z     vdW  Elec       q    Type
REMARK                         _______ _______ _______ _____ _____    ______ ____
ROOT
ATOM      1  N   UNL     1       3.076   7.703  18.127  0.00  0.00    +0.000 NA
ATOM      2  C   UNL     1       2.202   7.008  19.085  0.00  0.00    +0.000 C 
ATOM      3  C   UNL     1       1.851   8.011  20.196  0.00  0.00    +0.000 C 
ATOM      4  N   UNL     1       1.236   9.214  19.630  0.00  0.00    +0.000 N 
ATOM      5  C   UNL     1       0.065   9.693  20.185  0.00  0.00    +0.000 C 
ATOM      6  O   UNL     1      -0.553   9.141  21.096  0.00  0.00    +0.000 OA
ATOM      7  C   UNL     1       1.988   9.837  18.529  0.00  0.00    +0.000 C 
ATOM      8  C   UNL     1       2.350   8.781  17.453  0.00  0.00    +0.000 C 
ENDROOT
BRANCH   5   9
ATOM      9  C   UNL     1      -0.552  10.952  19.612  0.00  0.00    +0.000 C 
ATOM     10  O   UNL     1      -0.194  12.050  20.030  0.00  0.00    +0.000 OA
BRANCH   9  11
ATOM     11  C   UNL     1      -1.615  10.817  18.586  0.00  0.00    +0.000 A 
ATOM     12  C   UNL     1      -2.778  11.585  18.716  0.00  0.00    +0.000 A 
ATOM     13  C   UNL     1      -3.793  11.479  17.764  0.00  0.00    +0.000 A 
ATOM     14  C   UNL     1      -3.649  10.623  16.675  0.00  0.00    +0.000 A 
ATOM     15  C   UNL     1      -2.486   9.861  16.542  0.00  0.00    +0.000 A 
ATOM     16  C   UNL     1      -1.468   9.954  17.495  0.00  0.00    +0.000 A 
ENDBRANCH   9  11
ENDBRANCH   5   9
BRANCH   1  17
ATOM     17  C   UNL     1       3.923   6.841  17.314  0.00  0.00    +0.000 C 
BRANCH  17  23
ATOM     18  C   UNL     1       4.433   1.820  20.038  0.00  0.00    +0.000 C 
ATOM     19  C   UNL     1       4.298   3.123  19.308  0.00  0.00    +0.000 A 
ATOM     20  N   UNL     1       5.390   3.927  19.290  0.00  0.00    +0.000 NA
ATOM     21  C   UNL     1       5.277   5.113  18.633  0.00  0.00    +0.000 A 
ATOM     22  C   UNL     1       6.492   5.991  18.654  0.00  0.00    +0.000 C 
ATOM     23  C   UNL     1       4.094   5.480  17.977  0.00  0.00    +0.000 A 
ATOM     24  N   UNL     1       3.001   4.667  17.998  0.00  0.00    +0.000 NA
ATOM     25  C   UNL     1       3.111   3.495  18.673  0.00  0.00    +0.000 A 
ATOM     26  C   UNL     1       1.892   2.624  18.703  0.00  0.00    +0.000 C 
ENDBRANCH  17  23
ENDBRANCH   1  17
TORSDOF 4
ENDMDL
MODEL 6
REMARK VINA RESULT:      -7.2      2.516      8.600
REMARK  Name = 
REMARK  7 active torsions:
REMARK  status: ('A' for Active; 'I' for Inactive)
REMARK    1  A    between atoms: C_1  and  C_2
REMARK    2  A    between atoms: C_4  and  C_5
REMARK    3  A    between atoms: C_6  and  C_7
REMARK    4  A    between atoms: C_7  and  N_8
REMARK    5  A    between atoms: C_12  and  C_14
REMARK    6  A    between atoms: C_14  and  C_16
REMARK    7  A    between atoms: C_25  and  C_26
REMARK                            x       y       z     vdW  Elec       q    Type
REMARK                         _______ _______ _______ _____ _____    ______ ____
ROOT
ATOM      1  N   UNL     1       1.290   9.709  19.230  0.00  0.00    +0.000 NA
ATOM      2  C   UNL     1       1.499   8.996  20.501  0.00  0.00    +0.000 C 
ATOM      3  C   UNL     1       1.284   7.499  20.226  0.00  0.00    +0.000 C 
ATOM      4  N   UNL     1       2.173   7.036  19.159  0.00  0.00    +0.000 N 
ATOM      5  C   UNL     1       2.915   5.887  19.355  0.00  0.00    +0.000 C 
ATOM      6  O   UNL     1       2.938   5.241  20.403  0.00  0.00    +0.000 OA
ATOM      7  C   UNL     1       2.139   7.843  17.928  0.00  0.00    +0.000 C 
ATOM      8  C   UNL     1       2.324   9.346  18.258  0.00  0.00    +0.000 C 
ENDROOT
BRANCH   5   9
ATOM      9  C   UNL     1       3.814   5.399  18.237  0.00  0.00    +0.000 C 
ATOM     10  O   UNL     1       3.375   4.612  17.403  0.00  0.00    +0.000 OA
BRANCH   9  11
ATOM     11  C   UNL     1       5.225   5.857  18.211  0.00  0.00    +0.000 A 
ATOM     12  C   UNL     1       6.112   5.358  19.171  0.00  0.00    +0.000 A 
ATOM     13  C   UNL     1       7.445   5.771  19.169  0.00  0.00    +0.000 A 
ATOM     14  C   UNL     1       7.902   6.667  18.206  0.00  0.00    +0.000 A 
ATOM     15  C   UNL     1       7.018   7.161  17.244  0.00  0.00    +0.000 A 
ATOM     16  C   UNL     1       5.679   6.760  17.244  0.00  0.00    +0.000 A 
ENDBRANCH   9  11
ENDBRANCH   5   9
BRANCH   1  17
ATOM     17  C   UNL     1       0.936  11.116  19.353  0.00  0.00    +0.000 C 
BRANCH  17  23
ATOM     18  C   UNL     1      -4.677  12.059  18.654  0.00  0.00    +0.000 C 
ATOM     19  C   UNL     1      -3.214  11.792  18.836  0.00  0.00    +0.000 A 
ATOM     20  N   UNL     1      -2.680  12.112  20.042  0.00  0.00    +0.000 NA
ATOM     21  C   UNL     1      -1.352  11.878  20.216  0.00  0.00    +0.000 A 
ATOM     22  C   UNL     1      -0.788  12.266  21.549  0.00  0.00    +0.000 C 
ATOM     23  C   UNL     1      -0.569  11.303  19.205  0.00  0.00    +0.000 A 
ATOM     24  N   UNL     1      -1.110  10.983  17.997  0.00  0.00    +0.000 NA
ATOM     25  C   UNL     1      -2.432  11.239  17.820  0.00  0.00    +0.000 A 
ATOM     26  C   UNL     1      -3.004  10.900  16.478  0.00  0.00    +0.000 C 
ENDBRANCH  17  23
ENDBRANCH   1  17
TORSDOF 4
ENDMDL
MODEL 7
REMARK VINA RESULT:      -7.1      1.176      1.224
REMARK  Name = 
REMARK  7 active torsions:
REMARK  status: ('A' for Active; 'I' for Inactive)
REMARK    1  A    between atoms: C_1  and  C_2
REMARK    2  A    between atoms: C_4  and  C_5
REMARK    3  A    between atoms: C_6  and  C_7
REMARK    4  A    between atoms: C_7  and  N_8
REMARK    5  A    between atoms: C_12  and  C_14
REMARK    6  A    between atoms: C_14  and  C_16
REMARK    7  A    between atoms: C_25  and  C_26
REMARK                            x       y       z     vdW  Elec       q    Type
REMARK                         _______ _______ _______ _____ _____    ______ ____
ROOT
ATOM      1  N   UNL     1       2.076   6.597  19.587  0.00  0.00    +0.000 NA
ATOM      2  C   UNL     1       1.311   6.907  20.805  0.00  0.00    +0.000 C 
ATOM      3  C   UNL     1       1.538   8.394  21.123  0.00  0.00    +0.000 C 
ATOM      4  N   UNL     1       1.157   9.230  19.982  0.00  0.00    +0.000 N 
ATOM      5  C   UNL     1       0.340  10.323  20.195  0.00  0.00    +0.000 C 
ATOM      6  O   UNL     1      -0.159  10.621  21.280  0.00  0.00    +0.000 OA
ATOM      7  C   UNL     1       1.753   8.834  18.696  0.00  0.00    +0.000 C 
ATOM      8  C   UNL     1       1.530   7.322  18.437  0.00  0.00    +0.000 C 
ENDROOT
BRANCH   5   9
ATOM      9  C   UNL     1      -0.030  11.198  19.015  0.00  0.00    +0.000 C 
ATOM     10  O   UNL     1       0.734  12.091  18.657  0.00  0.00    +0.000 OA
BRANCH   9  11
ATOM     11  C   UNL     1      -1.337  10.977  18.350  0.00  0.00    +0.000 A 
ATOM     12  C   UNL     1      -2.426  11.772  18.725  0.00  0.00    +0.000 A 
ATOM     13  C   UNL     1      -3.668  11.586  18.116  0.00  0.00    +0.000 A 
ATOM     14  C   UNL     1      -3.825  10.623  17.122  0.00  0.00    +0.000 A 
ATOM     15  C   UNL     1      -2.737   9.834  16.743  0.00  0.00    +0.000 A 
ATOM     16  C   UNL     1      -1.493  10.007  17.354  0.00  0.00    +0.000 A 
ENDBRANCH   9  11
ENDBRANCH   5   9
BRANCH   1  17
ATOM     17  C   UNL     1       2.423   5.195  19.405  0.00  0.00    +0.000 C 
BRANCH  17  23
ATOM     18  C   UNL     1       7.878   4.595  17.738  0.00  0.00    +0.000 C 
ATOM     19  C   UNL     1       6.458   4.767  18.187  0.00  0.00    +0.000 A 
ATOM     20  N   UNL     1       5.905   3.733  18.869  0.00  0.00    +0.000 NA
ATOM     21  C   UNL     1       4.616   3.877  19.278  0.00  0.00    +0.000 A 
ATOM     22  C   UNL     1       4.026   2.707  20.005  0.00  0.00    +0.000 C 
ATOM     23  C   UNL     1       3.895   5.053  19.032  0.00  0.00    +0.000 A 
ATOM     24  N   UNL     1       4.455   6.089  18.348  0.00  0.00    +0.000 NA
ATOM     25  C   UNL     1       5.735   5.932  17.922  0.00  0.00    +0.000 A 
ATOM     26  C   UNL     1       6.327   7.073  17.153  0.00  0.00    +0.000 C 
ENDBRANCH  17  23
ENDBRANCH   1  17
TORSDOF 4
ENDMDL
MODEL 8
REMARK VINA RESULT:      -7.0      1.393      1.780
REMARK  Name = 
REMARK  7 active torsions:
REMARK  status: ('A' for Active; 'I' for Inactive)
REMARK    1  A    between atoms: C_1  and  C_2
REMARK    2  A    between atoms: C_4  and  C_5
REMARK    3  A    between atoms: C_6  and  C_7
REMARK    4  A    between atoms: C_7  and  N_8
REMARK    5  A    between atoms: C_12  and  C_14
REMARK    6  A    between atoms: C_14  and  C_16
REMARK    7  A    between atoms: C_25  and  C_26
REMARK                            x       y       z     vdW  Elec       q    Type
REMARK                         _______ _______ _______ _____ _____    ______ ____
ROOT
ATOM      1  N   UNL     1       2.285   6.984  18.658  0.00  0.00    +0.000 NA
ATOM      2  C   UNL     1       1.574   6.914  19.945  0.00  0.00    +0.000 C 
ATOM      3  C   UNL     1       1.664   8.305  20.594  0.00  0.00    +0.000 C 
ATOM      4  N   UNL     1       1.123   9.329  19.698  0.00  0.00    +0.000 N 
ATOM      5  C   UNL     1       0.210  10.240  20.194  0.00  0.00    +0.000 C 
ATOM      6  O   UNL     1      -0.245  10.221  21.338  0.00  0.00    +0.000 OA
ATOM      7  C   UNL     1       1.671   9.311  18.332  0.00  0.00    +0.000 C 
ATOM      8  C   UNL     1       1.592   7.884  17.734  0.00  0.00    +0.000 C 
ENDROOT
BRANCH   5   9
ATOM      9  C   UNL     1      -0.326  11.313  19.268  0.00  0.00    +0.000 C 
ATOM     10  O   UNL     1       0.342  12.320  19.052  0.00  0.00    +0.000 OA
BRANCH   9  11
ATOM     11  C   UNL     1      -1.677  11.133  18.682  0.00  0.00    +0.000 A 
ATOM     12  C   UNL     1      -1.863  10.141  17.712  0.00  0.00    +0.000 A 
ATOM     13  C   UNL     1      -3.123   9.950  17.144  0.00  0.00    +0.000 A 
ATOM     14  C   UNL     1      -4.203  10.731  17.549  0.00  0.00    +0.000 A 
ATOM     15  C   UNL     1      -4.018  11.717  18.520  0.00  0.00    +0.000 A 
ATOM     16  C   UNL     1      -2.758  11.922  19.089  0.00  0.00    +0.000 A 
ENDBRANCH   9  11
ENDBRANCH   5   9
BRANCH   1  17
ATOM     17  C   UNL     1       2.766   5.712  18.138  0.00  0.00    +0.000 C 
BRANCH  17  23
ATOM     18  C   UNL     1       8.414   5.033  18.861  0.00  0.00    +0.000 C 
ATOM     19  C   UNL     1       6.938   5.227  18.685  0.00  0.00    +0.000 A 
ATOM     20  N   UNL     1       6.131   4.267  19.202  0.00  0.00    +0.000 NA
ATOM     21  C   UNL     1       4.790   4.431  19.044  0.00  0.00    +0.000 A 
ATOM     22  C   UNL     1       3.927   3.341  19.604  0.00  0.00    +0.000 C 
ATOM     23  C   UNL     1       4.259   5.557  18.401  0.00  0.00    +0.000 A 
ATOM     24  N   UNL     1       5.074   6.518  17.884  0.00  0.00    +0.000 NA
ATOM     25  C   UNL     1       6.413   6.339  18.024  0.00  0.00    +0.000 A 
ATOM     26  C   UNL     1       7.294   7.396  17.431  0.00  0.00    +0.000 C 
ENDBRANCH  17  23
ENDBRANCH   1  17
TORSDOF 4
ENDMDL
MODEL 9
REMARK VINA RESULT:      -7.0      3.373      7.911
REMARK  Name = 
REMARK  7 active torsions:
REMARK  status: ('A' for Active; 'I' for Inactive)
REMARK    1  A    between atoms: C_1  and  C_2
REMARK    2  A    between atoms: C_4  and  C_5
REMARK    3  A    between atoms: C_6  and  C_7
REMARK    4  A    between atoms: C_7  and  N_8
REMARK    5  A    between atoms: C_12  and  C_14
REMARK    6  A    between atoms: C_14  and  C_16
REMARK    7  A    between atoms: C_25  and  C_26
REMARK                            x       y       z     vdW  Elec       q    Type
REMARK                         _______ _______ _______ _____ _____    ______ ____
ROOT
ATOM      1  N   UNL     1       1.639   6.514  20.273  0.00  0.00    +0.000 NA
ATOM      2  C   UNL     1       1.805   5.078  20.550  0.00  0.00    +0.000 C 
ATOM      3  C   UNL     1       1.842   4.352  19.196  0.00  0.00    +0.000 C 
ATOM      4  N   UNL     1       2.904   4.896  18.347  0.00  0.00    +0.000 N 
ATOM      5  C   UNL     1       3.777   4.025  17.724  0.00  0.00    +0.000 C 
ATOM      6  O   UNL     1       3.777   2.804  17.881  0.00  0.00    +0.000 OA
ATOM      7  C   UNL     1       2.890   6.360  18.197  0.00  0.00    +0.000 C 
ATOM      8  C   UNL     1       2.817   7.047  19.585  0.00  0.00    +0.000 C 
ENDROOT
BRANCH   5   9
ATOM      9  C   UNL     1       4.857   4.593  16.826  0.00  0.00    +0.000 C 
ATOM     10  O   UNL     1       4.836   4.354  15.622  0.00  0.00    +0.000 OA
BRANCH   9  11
ATOM     11  C   UNL     1       5.946   5.391  17.443  0.00  0.00    +0.000 A 
ATOM     12  C   UNL     1       6.537   4.924  18.623  0.00  0.00    +0.000 A 
ATOM     13  C   UNL     1       7.563   5.654  19.224  0.00  0.00    +0.000 A 
ATOM     14  C   UNL     1       8.014   6.839  18.647  0.00  0.00    +0.000 A 
ATOM     15  C   UNL     1       7.427   7.302  17.467  0.00  0.00    +0.000 A 
ATOM     16  C   UNL     1       6.393   6.582  16.863  0.00  0.00    +0.000 A 
ENDBRANCH   9  11
ENDBRANCH   5   9
BRANCH   1  17
ATOM     17  C   UNL     1       1.072   7.300  21.360  0.00  0.00    +0.000 C 
BRANCH  17  23
ATOM     18  C   UNL     1       0.808  12.821  19.832  0.00  0.00    +0.000 C 
ATOM     19  C   UNL     1       0.861  11.374  20.218  0.00  0.00    +0.000 A 
ATOM     20  N   UNL     1       0.503  11.069  21.491  0.00  0.00    +0.000 NA
ATOM     21  C   UNL     1       0.551   9.759  21.853  0.00  0.00    +0.000 A 
ATOM     22  C   UNL     1       0.175   9.458  23.272  0.00  0.00    +0.000 C 
ATOM     23  C   UNL     1       0.928   8.760  20.945  0.00  0.00    +0.000 A 
ATOM     24  N   UNL     1       1.285   9.071  19.668  0.00  0.00    +0.000 NA
ATOM     25  C   UNL     1       1.257  10.383  19.318  0.00  0.00    +0.000 A 
ATOM     26  C   UNL     1       1.674  10.708  17.916  0.00  0.00    +0.000 C 
ENDBRANCH  17  23
ENDBRANCH   1  17
TORSDOF 4
ENDMDL
