MODEL 1
REMARK VINA RESULT:      -7.1      0.000      0.000
REMARK  Name = 
REMARK  2 active torsions:
REMARK  status: ('A' for Active; 'I' for Inactive)
REMARK    1  A    between atoms: C_1  and  N_2
REMARK    2  A    between atoms: C_5  and  C_6
REMARK                            x       y       z     vdW  Elec       q    Type
REMARK                         _______ _______ _______ _____ _____    ______ ____
ROOT
ATOM      1  C   UNL     1       3.110   2.651  20.753  0.00  0.00    +0.000 C 
ATOM      2  N   UNL     1       3.555   3.337  19.551  0.00  0.00    +0.000 NA
ATOM      3  C   UNL     1       2.605   3.219  18.424  0.00  0.00    +0.000 C 
ATOM      4  C   UNL     1       3.425   3.498  17.186  0.00  0.00    +0.000 C 
ATOM      5  C   UNL     1       4.382   4.451  17.211  0.00  0.00    +0.000 C 
ATOM      6  C   UNL     1       4.518   5.322  18.459  0.00  0.00    +0.000 C 
ATOM      7  C   UNL     1       3.691   4.801  19.682  0.00  0.00    +0.000 C 
ATOM      8  C   UNL     1       2.241   5.288  19.626  0.00  0.00    +0.000 C 
ATOM      9  C   UNL     1       1.564   4.325  18.650  0.00  0.00    +0.000 C 
ENDROOT
BRANCH   5  10
ATOM     10  C   UNL     1       5.378   4.591  16.131  0.00  0.00    +0.000 A 
ATOM     11  C   UNL     1       5.248   3.933  14.910  0.00  0.00    +0.000 A 
ATOM     12  C   UNL     1       6.171   4.166  13.887  0.00  0.00    +0.000 A 
ATOM     13  C   UNL     1       7.198   5.061  14.126  0.00  0.00    +0.000 A 
ATOM     14 CL   UNL     1       8.358   5.415  12.915  0.00  0.00    +0.000 Cl
ATOM     15  N   UNL     1       7.369   5.728  15.283  0.00  0.00    +0.000 NA
ATOM     16  C   UNL     1       6.452   5.481  16.248  0.00  0.00    +0.000 A 
ENDBRANCH   5  10
TORSDOF 1
ENDMDL
MODEL 2
REMARK VINA RESULT:      -7.0      0.765      1.817
REMARK  Name = 
REMARK  2 active torsions:
REMARK  status: ('A' for Active; 'I' for Inactive)
REMARK    1  A    between atoms: C_1  and  N_2
REMARK    2  A    between atoms: C_5  and  C_6
REMARK                            x       y       z     vdW  Elec       q    Type
REMARK                         _______ _______ _______ _____ _____    ______ ____
ROOT
ATOM      1  C   UNL     1       1.846   4.986  20.083  0.00  0.00    +0.000 C 
ATOM      2  N   UNL     1       2.797   4.543  19.076  0.00  0.00    +0.000 NA
ATOM      3  C   UNL     1       4.037   3.980  19.651  0.00  0.00    +0.000 C 
ATOM      4  C   UNL     1       5.063   4.077  18.545  0.00  0.00    +0.000 C 
ATOM      5  C   UNL     1       4.702   3.839  17.266  0.00  0.00    +0.000 C 
ATOM      6  C   UNL     1       3.284   3.340  16.984  0.00  0.00    +0.000 C 
ATOM      7  C   UNL     1       2.328   3.434  18.220  0.00  0.00    +0.000 C 
ATOM      8  C   UNL     1       2.467   2.212  19.132  0.00  0.00    +0.000 C 
ATOM      9  C   UNL     1       3.713   2.512  19.966  0.00  0.00    +0.000 C 
ENDROOT
BRANCH   5  10
ATOM     10  C   UNL     1       5.582   4.167  16.128  0.00  0.00    +0.000 A 
ATOM     11  C   UNL     1       5.308   3.740  14.830  0.00  0.00    +0.000 A 
ATOM     12  C   UNL     1       6.124   4.149  13.772  0.00  0.00    +0.000 A 
ATOM     13  C   UNL     1       7.191   4.982  14.054  0.00  0.00    +0.000 A 
ATOM     14 CL   UNL     1       8.225   5.543  12.808  0.00  0.00    +0.000 Cl
ATOM     15  N   UNL     1       7.499   5.429  15.287  0.00  0.00    +0.000 NA
ATOM     16  C   UNL     1       6.683   5.016  16.285  0.00  0.00    +0.000 A 
ENDBRANCH   5  10
TORSDOF 1
ENDMDL
MODEL 3
REMARK VINA RESULT:      -6.8      0.954      1.520
REMARK  Name = 
REMARK  2 active torsions:
REMARK  status: ('A' for Active; 'I' for Inactive)
REMARK    1  A    between atoms: C_1  and  N_2
REMARK    2  A    between atoms: C_5  and  C_6
REMARK                            x       y       z     vdW  Elec       q    Type
REMARK                         _______ _______ _______ _____ _____    ______ ____
ROOT
ATOM      1  C   UNL     1       0.660   2.881  18.801  0.00  0.00    +0.000 C 
ATOM      2  N   UNL     1       1.967   3.350  18.370  0.00  0.00    +0.000 NA
ATOM      3  C   UNL     1       2.149   4.808  18.536  0.00  0.00    +0.000 C 
ATOM      4  C   UNL     1       3.270   5.175  17.593  0.00  0.00    +0.000 C 
ATOM      5  C   UNL     1       4.322   4.343  17.437  0.00  0.00    +0.000 C 
ATOM      6  C   UNL     1       4.416   3.105  18.329  0.00  0.00    +0.000 C 
ATOM      7  C   UNL     1       3.108   2.812  19.138  0.00  0.00    +0.000 C 
ATOM      8  C   UNL     1       3.060   3.619  20.438  0.00  0.00    +0.000 C 
ATOM      9  C   UNL     1       2.579   5.002  19.998  0.00  0.00    +0.000 C 
ENDROOT
BRANCH   5  10
ATOM     10  C   UNL     1       5.308   4.517  16.353  0.00  0.00    +0.000 A 
ATOM     11  C   UNL     1       5.216   3.826  15.146  0.00  0.00    +0.000 A 
ATOM     12  C   UNL     1       6.123   4.090  14.118  0.00  0.00    +0.000 A 
ATOM     13  C   UNL     1       7.096   5.049  14.335  0.00  0.00    +0.000 A 
ATOM     14 CL   UNL     1       8.234   5.443  13.115  0.00  0.00    +0.000 Cl
ATOM     15  N   UNL     1       7.229   5.749  15.477  0.00  0.00    +0.000 NA
ATOM     16  C   UNL     1       6.328   5.470  16.449  0.00  0.00    +0.000 A 
ENDBRANCH   5  10
TORSDOF 1
ENDMDL
MODEL 4
REMARK VINA RESULT:      -6.8      2.573      2.964
REMARK  Name = 
REMARK  2 active torsions:
REMARK  status: ('A' for Active; 'I' for Inactive)
REMARK    1  A    between atoms: C_1  and  N_2
REMARK    2  A    between atoms: C_5  and  C_6
REMARK                            x       y       z     vdW  Elec       q    Type
REMARK                         _______ _______ _______ _____ _____    ______ ____
ROOT
ATOM      1  C   UNL     1       1.524   2.612  21.700  0.00  0.00    +0.000 C 
ATOM      2  N   UNL     1       2.271   3.248  20.628  0.00  0.00    +0.000 NA
ATOM      3  C   UNL     1       3.005   2.288  19.777  0.00  0.00    +0.000 C 
ATOM      4  C   UNL     1       4.088   3.101  19.108  0.00  0.00    +0.000 C 
ATOM      5  C   UNL     1       3.830   4.361  18.695  0.00  0.00    +0.000 C 
ATOM      6  C   UNL     1       2.397   4.886  18.794  0.00  0.00    +0.000 C 
ATOM      7  C   UNL     1       1.448   3.967  19.635  0.00  0.00    +0.000 C 
ATOM      8  C   UNL     1       0.866   2.835  18.785  0.00  0.00    +0.000 C 
ATOM      9  C   UNL     1       1.981   1.790  18.745  0.00  0.00    +0.000 C 
ENDROOT
BRANCH   5  10
ATOM     10  C   UNL     1       4.901   5.286  18.277  0.00  0.00    +0.000 A 
ATOM     11  C   UNL     1       4.722   6.217  17.257  0.00  0.00    +0.000 A 
ATOM     12  C   UNL     1       5.736   7.130  16.956  0.00  0.00    +0.000 A 
ATOM     13  C   UNL     1       6.902   7.078  17.699  0.00  0.00    +0.000 A 
ATOM     14 CL   UNL     1       8.184   8.177  17.404  0.00  0.00    +0.000 Cl
ATOM     15  N   UNL     1       7.127   6.204  18.697  0.00  0.00    +0.000 NA
ATOM     16  C   UNL     1       6.119   5.339  18.963  0.00  0.00    +0.000 A 
ENDBRANCH   5  10
TORSDOF 1
ENDMDL
MODEL 5
REMARK VINA RESULT:      -6.6      2.627      3.234
REMARK  Name = 
REMARK  2 active torsions:
REMARK  status: ('A' for Active; 'I' for Inactive)
REMARK    1  A    between atoms: C_1  and  N_2
REMARK    2  A    between atoms: C_5  and  C_6
REMARK                            x       y       z     vdW  Elec       q    Type
REMARK                         _______ _______ _______ _____ _____    ______ ____
ROOT
ATOM      1  C   UNL     1       1.481   2.701  20.668  0.00  0.00    +0.000 C 
ATOM      2  N   UNL     1       2.526   3.311  19.862  0.00  0.00    +0.000 NA
ATOM      3  C   UNL     1       3.706   2.440  19.678  0.00  0.00    +0.000 C 
ATOM      4  C   UNL     1       4.834   3.377  19.312  0.00  0.00    +0.000 C 
ATOM      5  C   UNL     1       4.600   4.434  18.505  0.00  0.00    +0.000 C 
ATOM      6  C   UNL     1       3.218   4.578  17.868  0.00  0.00    +0.000 C 
ATOM      7  C   UNL     1       2.146   3.607  18.466  0.00  0.00    +0.000 C 
ATOM      8  C   UNL     1       2.198   2.232  17.796  0.00  0.00    +0.000 C 
ATOM      9  C   UNL     1       3.356   1.522  18.497  0.00  0.00    +0.000 C 
ENDROOT
BRANCH   5  10
ATOM     10  C   UNL     1       5.586   5.517  18.323  0.00  0.00    +0.000 A 
ATOM     11  C   UNL     1       6.816   5.519  18.978  0.00  0.00    +0.000 A 
ATOM     12  C   UNL     1       7.751   6.521  18.707  0.00  0.00    +0.000 A 
ATOM     13  C   UNL     1       7.419   7.490  17.777  0.00  0.00    +0.000 A 
ATOM     14 CL   UNL     1       8.520   8.741  17.375  0.00  0.00    +0.000 Cl
ATOM     15  N   UNL     1       6.249   7.534  17.112  0.00  0.00    +0.000 NA
ATOM     16  C   UNL     1       5.370   6.543  17.397  0.00  0.00    +0.000 A 
ENDBRANCH   5  10
TORSDOF 1
ENDMDL
MODEL 6
REMARK VINA RESULT:      -6.6      4.026      6.143
REMARK  Name = 
REMARK  2 active torsions:
REMARK  status: ('A' for Active; 'I' for Inactive)
REMARK    1  A    between atoms: C_1  and  N_2
REMARK    2  A    between atoms: C_5  and  C_6
REMARK                            x       y       z     vdW  Elec       q    Type
REMARK                         _______ _______ _______ _____ _____    ______ ____
ROOT
ATOM      1  C   UNL     1       7.485   4.553  17.581  0.00  0.00    +0.000 C 
ATOM      2  N   UNL     1       6.185   5.205  17.605  0.00  0.00    +0.000 NA
ATOM      3  C   UNL     1       5.959   6.102  16.453  0.00  0.00    +0.000 C 
ATOM      4  C   UNL     1       4.868   7.048  16.898  0.00  0.00    +0.000 C 
ATOM      5  C   UNL     1       3.846   6.592  17.653  0.00  0.00    +0.000 C 
ATOM      6  C   UNL     1       3.747   5.091  17.925  0.00  0.00    +0.000 C 
ATOM      7  C   UNL     1       5.028   4.292  17.511  0.00  0.00    +0.000 C 
ATOM      8  C   UNL     1       5.002   3.920  16.026  0.00  0.00    +0.000 C 
ATOM      9  C   UNL     1       5.464   5.194  15.318  0.00  0.00    +0.000 C 
ENDROOT
BRANCH   5  10
ATOM     10  C   UNL     1       2.901   7.503  18.328  0.00  0.00    +0.000 A 
ATOM     11  C   UNL     1       2.314   8.584  17.673  0.00  0.00    +0.000 A 
ATOM     12  C   UNL     1       1.360   9.366  18.328  0.00  0.00    +0.000 A 
ATOM     13  C   UNL     1       1.020   9.029  19.626  0.00  0.00    +0.000 A 
ATOM     14 CL   UNL     1      -0.157   9.927  20.490  0.00  0.00    +0.000 Cl
ATOM     15  N   UNL     1       1.550   7.994  20.305  0.00  0.00    +0.000 NA
ATOM     16  C   UNL     1       2.467   7.257  19.635  0.00  0.00    +0.000 A 
ENDBRANCH   5  10
TORSDOF 1
ENDMDL
MODEL 7
REMARK VINA RESULT:      -6.6      1.071      1.581
REMARK  Name = 
REMARK  2 active torsions:
REMARK  status: ('A' for Active; 'I' for Inactive)
REMARK    1  A    between atoms: C_1  and  N_2
REMARK    2  A    between atoms: C_5  and  C_6
REMARK                            x       y       z     vdW  Elec       q    Type
REMARK                         _______ _______ _______ _____ _____    ______ ____
ROOT
ATOM      1  C   UNL     1       2.138   4.862  21.089  0.00  0.00    +0.000 C 
ATOM      2  N   UNL     1       2.764   4.539  19.817  0.00  0.00    +0.000 NA
ATOM      3  C   UNL     1       3.426   3.217  19.810  0.00  0.00    +0.000 C 
ATOM      4  C   UNL     1       4.423   3.282  18.676  0.00  0.00    +0.000 C 
ATOM      5  C   UNL     1       4.102   3.920  17.531  0.00  0.00    +0.000 C 
ATOM      6  C   UNL     1       2.678   4.447  17.358  0.00  0.00    +0.000 C 
ATOM      7  C   UNL     1       1.834   4.418  18.676  0.00  0.00    +0.000 C 
ATOM      8  C   UNL     1       1.190   3.048  18.900  0.00  0.00    +0.000 C 
ATOM      9  C   UNL     1       2.314   2.204  19.501  0.00  0.00    +0.000 C 
ENDROOT
BRANCH   5  10
ATOM     10  C   UNL     1       5.110   4.239  16.501  0.00  0.00    +0.000 A 
ATOM     11  C   UNL     1       5.378   3.384  15.434  0.00  0.00    +0.000 A 
ATOM     12  C   UNL     1       6.278   3.770  14.437  0.00  0.00    +0.000 A 
ATOM     13  C   UNL     1       6.879   5.011  14.544  0.00  0.00    +0.000 A 
ATOM     14 CL   UNL     1       7.979   5.564  13.351  0.00  0.00    +0.000 Cl
ATOM     15  N   UNL     1       6.654   5.878  15.549  0.00  0.00    +0.000 NA
ATOM     16  C   UNL     1       5.772   5.472  16.493  0.00  0.00    +0.000 A 
ENDBRANCH   5  10
TORSDOF 1
ENDMDL
MODEL 8
REMARK VINA RESULT:      -6.6      4.011      5.750
REMARK  Name = 
REMARK  2 active torsions:
REMARK  status: ('A' for Active; 'I' for Inactive)
REMARK    1  A    between atoms: C_1  and  N_2
REMARK    2  A    between atoms: C_5  and  C_6
REMARK                            x       y       z     vdW  Elec       q    Type
REMARK                         _______ _______ _______ _____ _____    ______ ____
ROOT
ATOM      1  C   UNL     1       4.458   2.462  19.918  0.00  0.00    +0.000 C 
ATOM      2  N   UNL     1       3.842   3.675  19.406  0.00  0.00    +0.000 NA
ATOM      3  C   UNL     1       4.674   4.374  18.403  0.00  0.00    +0.000 C 
ATOM      4  C   UNL     1       4.166   5.797  18.392  0.00  0.00    +0.000 C 
ATOM      5  C   UNL     1       2.844   6.043  18.513  0.00  0.00    +0.000 C 
ATOM      6  C   UNL     1       1.875   4.860  18.520  0.00  0.00    +0.000 C 
ATOM      7  C   UNL     1       2.581   3.471  18.666  0.00  0.00    +0.000 C 
ATOM      8  C   UNL     1       3.058   2.939  17.312  0.00  0.00    +0.000 C 
ATOM      9  C   UNL     1       4.374   3.677  17.067  0.00  0.00    +0.000 C 
ENDROOT
BRANCH   5  10
ATOM     10  C   UNL     1       2.317   7.398  18.767  0.00  0.00    +0.000 A 
ATOM     11  C   UNL     1       2.193   8.349  17.757  0.00  0.00    +0.000 A 
ATOM     12  C   UNL     1       1.608   9.588  18.029  0.00  0.00    +0.000 A 
ATOM     13  C   UNL     1       1.160   9.830  19.315  0.00  0.00    +0.000 A 
ATOM     14 CL   UNL     1       0.413  11.317  19.724  0.00  0.00    +0.000 Cl
ATOM     15  N   UNL     1       1.250   8.947  20.328  0.00  0.00    +0.000 NA
ATOM     16  C   UNL     1       1.817   7.755  20.024  0.00  0.00    +0.000 A 
ENDBRANCH   5  10
TORSDOF 1
ENDMDL
MODEL 9
REMARK VINA RESULT:      -6.5      4.105      6.169
REMARK  Name = 
REMARK  2 active torsions:
REMARK  status: ('A' for Active; 'I' for Inactive)
REMARK    1  A    between atoms: C_1  and  N_2
REMARK    2  A    between atoms: C_5  and  C_6
REMARK                            x       y       z     vdW  Elec       q    Type
REMARK                         _______ _______ _______ _____ _____    ______ ____
ROOT
ATOM      1  C   UNL     1       7.466   4.760  17.763  0.00  0.00    +0.000 C 
ATOM      2  N   UNL     1       6.130   5.333  17.773  0.00  0.00    +0.000 NA
ATOM      3  C   UNL     1       5.834   6.147  16.575  0.00  0.00    +0.000 C 
ATOM      4  C   UNL     1       4.694   7.050  16.984  0.00  0.00    +0.000 C 
ATOM      5  C   UNL     1       3.712   6.580  17.783  0.00  0.00    +0.000 C 
ATOM      6  C   UNL     1       3.708   5.094  18.143  0.00  0.00    +0.000 C 
ATOM      7  C   UNL     1       5.030   4.350  17.753  0.00  0.00    +0.000 C 
ATOM      8  C   UNL     1       5.004   3.890  16.293  0.00  0.00    +0.000 C 
ATOM      9  C   UNL     1       5.378   5.145  15.503  0.00  0.00    +0.000 C 
ENDROOT
BRANCH   5  10
ATOM     10  C   UNL     1       2.724   7.471  18.421  0.00  0.00    +0.000 A 
ATOM     11  C   UNL     1       2.312   7.299  19.741  0.00  0.00    +0.000 A 
ATOM     12  C   UNL     1       1.441   8.220  20.327  0.00  0.00    +0.000 A 
ATOM     13  C   UNL     1       1.013   9.292  19.565  0.00  0.00    +0.000 A 
ATOM     14 CL   UNL     1      -0.040  10.475  20.219  0.00  0.00    +0.000 Cl
ATOM     15  N   UNL     1       1.382   9.510  18.288  0.00  0.00    +0.000 NA
ATOM     16  C   UNL     1       2.232   8.599  17.756  0.00  0.00    +0.000 A 
ENDBRANCH   5  10
TORSDOF 1
ENDMDL
