MODEL 1
REMARK VINA RESULT:      -8.1      0.000      0.000
REMARK  Name = 
REMARK  4 active torsions:
REMARK  status: ('A' for Active; 'I' for Inactive)
REMARK    1  A    between atoms: C_2  and  O_5
REMARK    2  A    between atoms: O_5  and  C_6
REMARK    3  A    between atoms: C_9  and  C_10
REMARK    4  A    between atoms: C_12  and  C_13
REMARK                            x       y       z     vdW  Elec       q    Type
REMARK                         _______ _______ _______ _____ _____    ______ ____
ROOT
ATOM      1  C   UNL     1       3.309   5.157  18.072  0.00  0.00    +0.000 C 
ATOM      2  C   UNL     1       3.755   4.857  19.473  0.00  0.00    +0.000 C 
ATOM      3  C   UNL     1       3.563   6.300  19.047  0.00  0.00    +0.000 C 
ENDROOT
BRANCH   3   4
ATOM      4  C   UNL     1       2.402   7.037  19.695  0.00  0.00    +0.000 A 
ATOM      5  N   UNL     1       1.787   6.641  20.793  0.00  0.00    +0.000 NA
ATOM      6  N   UNL     1       0.996   7.679  21.232  0.00  0.00    +0.000 NA
ATOM      7  C   UNL     1       1.109   8.655  20.358  0.00  0.00    +0.000 A 
ATOM      8  C   UNL     1       0.550   9.984  20.344  0.00  0.00    +0.000 A 
ATOM      9  C   UNL     1      -0.063  10.571  21.447  0.00  0.00    +0.000 A 
ATOM     10  C   UNL     1      -0.558  11.874  21.346  0.00  0.00    +0.000 A 
ATOM     11  C   UNL     1      -0.466  12.571  20.137  0.00  0.00    +0.000 A 
ATOM     12  C   UNL     1       0.161  11.990  19.031  0.00  0.00    +0.000 A 
ATOM     13  C   UNL     1       0.692  10.709  19.156  0.00  0.00    +0.000 A 
ATOM     14  C   UNL     1       1.488  10.090  18.067  0.00  0.00    +0.000 A 
ATOM     15  N   UNL     1       2.106   8.940  18.131  0.00  0.00    +0.000 NA
ATOM     16  N   UNL     1       1.897   8.253  19.304  0.00  0.00    +0.000 N 
ENDBRANCH   3   4
BRANCH   1  20
ATOM     17  C   UNL     1       6.103   4.384  14.823  0.00  0.00    +0.000 A 
ATOM     18  C   UNL     1       5.584   3.337  15.583  0.00  0.00    +0.000 A 
ATOM     19  C   UNL     1       4.685   3.586  16.622  0.00  0.00    +0.000 A 
ATOM     20  C   UNL     1       4.282   4.893  16.943  0.00  0.00    +0.000 A 
ATOM     21  C   UNL     1       4.837   5.936  16.176  0.00  0.00    +0.000 A 
ATOM     22  C   UNL     1       5.753   5.690  15.148  0.00  0.00    +0.000 A 
BRANCH  17  23
ATOM     23  O   UNL     1       6.956   4.000  13.835  0.00  0.00    +0.000 OA
BRANCH  23  25
ATOM     24  F   UNL     1       6.656   2.382  12.186  0.00  0.00    +0.000 F 
ATOM     25  C   UNL     1       6.453   3.666  12.549  0.00  0.00    +0.000 C 
ATOM     26  F   UNL     1       7.068   4.451  11.635  0.00  0.00    +0.000 F 
ATOM     27  F   UNL     1       5.129   3.928  12.503  0.00  0.00    +0.000 F 
ENDBRANCH  23  25
ENDBRANCH  17  23
ENDBRANCH   1  20
TORSDOF 4
ENDMDL
MODEL 2
REMARK VINA RESULT:      -8.1      0.279      1.179
REMARK  Name = 
REMARK  4 active torsions:
REMARK  status: ('A' for Active; 'I' for Inactive)
REMARK    1  A    between atoms: C_2  and  O_5
REMARK    2  A    between atoms: O_5  and  C_6
REMARK    3  A    between atoms: C_9  and  C_10
REMARK    4  A    between atoms: C_12  and  C_13
REMARK                            x       y       z     vdW  Elec       q    Type
REMARK                         _______ _______ _______ _____ _____    ______ ____
ROOT
ATOM      1  C   UNL     1       3.347   5.112  17.877  0.00  0.00    +0.000 C 
ATOM      2  C   UNL     1       3.708   4.680  19.267  0.00  0.00    +0.000 C 
ATOM      3  C   UNL     1       3.634   6.159  18.944  0.00  0.00    +0.000 C 
ENDROOT
BRANCH   3   4
ATOM      4  C   UNL     1       2.498   6.928  19.599  0.00  0.00    +0.000 A 
ATOM      5  N   UNL     1       1.870   6.542  20.693  0.00  0.00    +0.000 NA
ATOM      6  N   UNL     1       1.113   7.602  21.143  0.00  0.00    +0.000 NA
ATOM      7  C   UNL     1       1.259   8.582  20.278  0.00  0.00    +0.000 A 
ATOM      8  C   UNL     1       0.746   9.929  20.277  0.00  0.00    +0.000 A 
ATOM      9  C   UNL     1       0.151  10.526  21.387  0.00  0.00    +0.000 A 
ATOM     10  C   UNL     1      -0.299  11.845  21.298  0.00  0.00    +0.000 A 
ATOM     11  C   UNL     1      -0.184  12.551  20.096  0.00  0.00    +0.000 A 
ATOM     12  C   UNL     1       0.424  11.960  18.984  0.00  0.00    +0.000 A 
ATOM     13  C   UNL     1       0.912  10.661  19.097  0.00  0.00    +0.000 A 
ATOM     14  C   UNL     1       1.688  10.027  18.002  0.00  0.00    +0.000 A 
ATOM     15  N   UNL     1       2.267   8.856  18.054  0.00  0.00    +0.000 NA
ATOM     16  N   UNL     1       2.034   8.165  19.220  0.00  0.00    +0.000 N 
ENDBRANCH   3   4
BRANCH   1  20
ATOM     17  C   UNL     1       6.236   4.407  14.696  0.00  0.00    +0.000 A 
ATOM     18  C   UNL     1       5.750   5.690  14.948  0.00  0.00    +0.000 A 
ATOM     19  C   UNL     1       4.827   5.914  15.972  0.00  0.00    +0.000 A 
ATOM     20  C   UNL     1       4.350   4.862  16.771  0.00  0.00    +0.000 A 
ATOM     21  C   UNL     1       4.838   3.573  16.482  0.00  0.00    +0.000 A 
ATOM     22  C   UNL     1       5.747   3.343  15.444  0.00  0.00    +0.000 A 
BRANCH  17  23
ATOM     23  O   UNL     1       7.139   4.332  13.680  0.00  0.00    +0.000 OA
BRANCH  23  25
ATOM     24  F   UNL     1       5.382   3.845  12.230  0.00  0.00    +0.000 F 
ATOM     25  C   UNL     1       6.720   3.930  12.383  0.00  0.00    +0.000 C 
ATOM     26  F   UNL     1       7.237   2.705  12.131  0.00  0.00    +0.000 F 
ATOM     27  F   UNL     1       7.211   4.790  11.466  0.00  0.00    +0.000 F 
ENDBRANCH  23  25
ENDBRANCH  17  23
ENDBRANCH   1  20
TORSDOF 4
ENDMDL
MODEL 3
REMARK VINA RESULT:      -8.0      1.076      1.308
REMARK  Name = 
REMARK  4 active torsions:
REMARK  status: ('A' for Active; 'I' for Inactive)
REMARK    1  A    between atoms: C_2  and  O_5
REMARK    2  A    between atoms: O_5  and  C_6
REMARK    3  A    between atoms: C_9  and  C_10
REMARK    4  A    between atoms: C_12  and  C_13
REMARK                            x       y       z     vdW  Elec       q    Type
REMARK                         _______ _______ _______ _____ _____    ______ ____
ROOT
ATOM      1  C   UNL     1       2.251   5.879  18.593  0.00  0.00    +0.000 C 
ATOM      2  C   UNL     1       2.172   5.324  19.983  0.00  0.00    +0.000 C 
ATOM      3  C   UNL     1       2.611   6.761  19.781  0.00  0.00    +0.000 C 
ENDROOT
BRANCH   3   4
ATOM      4  C   UNL     1       1.648   7.828  20.273  0.00  0.00    +0.000 A 
ATOM      5  N   UNL     1       0.977   7.761  21.407  0.00  0.00    +0.000 NA
ATOM      6  N   UNL     1       0.436   9.004  21.654  0.00  0.00    +0.000 NA
ATOM      7  C   UNL     1       0.746   9.775  20.634  0.00  0.00    +0.000 A 
ATOM      8  C   UNL     1       0.490  11.172  20.391  0.00  0.00    +0.000 A 
ATOM      9  C   UNL     1       0.034  12.052  21.369  0.00  0.00    +0.000 A 
ATOM     10  C   UNL     1      -0.167  13.396  21.045  0.00  0.00    +0.000 A 
ATOM     11  C   UNL     1       0.057  13.848  19.741  0.00  0.00    +0.000 A 
ATOM     12  C   UNL     1       0.528  12.972  18.759  0.00  0.00    +0.000 A 
ATOM     13  C   UNL     1       0.770  11.644  19.103  0.00  0.00    +0.000 A 
ATOM     14  C   UNL     1       1.397  10.698  18.149  0.00  0.00    +0.000 A 
ATOM     15  N   UNL     1       1.751   9.467  18.413  0.00  0.00    +0.000 NA
ATOM     16  N   UNL     1       1.413   9.044  19.678  0.00  0.00    +0.000 N 
ENDBRANCH   3   4
BRANCH   1  20
ATOM     17  C   UNL     1       5.371   4.366  15.960  0.00  0.00    +0.000 A 
ATOM     18  C   UNL     1       4.473   3.496  16.576  0.00  0.00    +0.000 A 
ATOM     19  C   UNL     1       3.470   3.984  17.416  0.00  0.00    +0.000 A 
ATOM     20  C   UNL     1       3.338   5.358  17.678  0.00  0.00    +0.000 A 
ATOM     21  C   UNL     1       4.272   6.214  17.063  0.00  0.00    +0.000 A 
ATOM     22  C   UNL     1       5.289   5.726  16.236  0.00  0.00    +0.000 A 
BRANCH  17  23
ATOM     23  O   UNL     1       6.288   3.760  15.157  0.00  0.00    +0.000 OA
BRANCH  23  25
ATOM     24  F   UNL     1       6.680   2.925  13.017  0.00  0.00    +0.000 F 
ATOM     25  C   UNL     1       6.258   3.975  13.753  0.00  0.00    +0.000 C 
ATOM     26  F   UNL     1       7.064   5.023  13.466  0.00  0.00    +0.000 F 
ATOM     27  F   UNL     1       5.002   4.296  13.374  0.00  0.00    +0.000 F 
ENDBRANCH  23  25
ENDBRANCH  17  23
ENDBRANCH   1  20
TORSDOF 4
ENDMDL
MODEL 4
REMARK VINA RESULT:      -8.0      1.012      1.379
REMARK  Name = 
REMARK  4 active torsions:
REMARK  status: ('A' for Active; 'I' for Inactive)
REMARK    1  A    between atoms: C_2  and  O_5
REMARK    2  A    between atoms: O_5  and  C_6
REMARK    3  A    between atoms: C_9  and  C_10
REMARK    4  A    between atoms: C_12  and  C_13
REMARK                            x       y       z     vdW  Elec       q    Type
REMARK                         _______ _______ _______ _____ _____    ______ ____
ROOT
ATOM      1  C   UNL     1       4.488   6.188  17.934  0.00  0.00    +0.000 C 
ATOM      2  C   UNL     1       4.550   7.686  17.894  0.00  0.00    +0.000 C 
ATOM      3  C   UNL     1       3.204   6.995  17.800  0.00  0.00    +0.000 C 
ENDROOT
BRANCH   3   4
ATOM      4  C   UNL     1       2.276   7.178  18.990  0.00  0.00    +0.000 A 
ATOM      5  N   UNL     1       2.157   6.316  19.982  0.00  0.00    +0.000 NA
ATOM      6  N   UNL     1       1.456   6.931  20.996  0.00  0.00    +0.000 NA
ATOM      7  C   UNL     1       1.121   8.129  20.569  0.00  0.00    +0.000 A 
ATOM      8  C   UNL     1       0.435   9.212  21.227  0.00  0.00    +0.000 A 
ATOM      9  C   UNL     1       0.197   9.250  22.599  0.00  0.00    +0.000 A 
ATOM     10  C   UNL     1      -0.460  10.352  23.152  0.00  0.00    +0.000 A 
ATOM     11  C   UNL     1      -0.902  11.395  22.332  0.00  0.00    +0.000 A 
ATOM     12  C   UNL     1      -0.653  11.368  20.957  0.00  0.00    +0.000 A 
ATOM     13  C   UNL     1       0.043  10.287  20.421  0.00  0.00    +0.000 A 
ATOM     14  C   UNL     1       0.459  10.261  18.997  0.00  0.00    +0.000 A 
ATOM     15  N   UNL     1       1.196   9.341  18.432  0.00  0.00    +0.000 NA
ATOM     16  N   UNL     1       1.515   8.290  19.260  0.00  0.00    +0.000 N 
ENDBRANCH   3   4
BRANCH   1  20
ATOM     17  C   UNL     1       6.037   3.971  14.522  0.00  0.00    +0.000 A 
ATOM     18  C   UNL     1       5.503   3.304  15.624  0.00  0.00    +0.000 A 
ATOM     19  C   UNL     1       5.003   4.017  16.715  0.00  0.00    +0.000 A 
ATOM     20  C   UNL     1       5.029   5.421  16.747  0.00  0.00    +0.000 A 
ATOM     21  C   UNL     1       5.594   6.071  15.632  0.00  0.00    +0.000 A 
ATOM     22  C   UNL     1       6.114   5.358  14.546  0.00  0.00    +0.000 A 
BRANCH  17  23
ATOM     23  O   UNL     1       6.476   3.156  13.524  0.00  0.00    +0.000 OA
BRANCH  23  25
ATOM     24  F   UNL     1       5.893   2.076  11.543  0.00  0.00    +0.000 F 
ATOM     25  C   UNL     1       5.894   3.238  12.230  0.00  0.00    +0.000 C 
ATOM     26  F   UNL     1       6.596   4.139  11.505  0.00  0.00    +0.000 F 
ATOM     27  F   UNL     1       4.624   3.683  12.336  0.00  0.00    +0.000 F 
ENDBRANCH  23  25
ENDBRANCH  17  23
ENDBRANCH   1  20
TORSDOF 4
ENDMDL
MODEL 5
REMARK VINA RESULT:      -7.9      0.994      1.779
REMARK  Name = 
REMARK  4 active torsions:
REMARK  status: ('A' for Active; 'I' for Inactive)
REMARK    1  A    between atoms: C_2  and  O_5
REMARK    2  A    between atoms: O_5  and  C_6
REMARK    3  A    between atoms: C_9  and  C_10
REMARK    4  A    between atoms: C_12  and  C_13
REMARK                            x       y       z     vdW  Elec       q    Type
REMARK                         _______ _______ _______ _____ _____    ______ ____
ROOT
ATOM      1  C   UNL     1       4.486   6.192  17.971  0.00  0.00    +0.000 C 
ATOM      2  C   UNL     1       4.508   7.689  17.881  0.00  0.00    +0.000 C 
ATOM      3  C   UNL     1       3.180   6.960  17.819  0.00  0.00    +0.000 C 
ENDROOT
BRANCH   3   4
ATOM      4  C   UNL     1       2.255   7.159  19.009  0.00  0.00    +0.000 A 
ATOM      5  N   UNL     1       2.135   6.308  20.010  0.00  0.00    +0.000 NA
ATOM      6  N   UNL     1       1.439   6.936  21.019  0.00  0.00    +0.000 NA
ATOM      7  C   UNL     1       1.107   8.131  20.581  0.00  0.00    +0.000 A 
ATOM      8  C   UNL     1       0.427   9.223  21.230  0.00  0.00    +0.000 A 
ATOM      9  C   UNL     1       0.192   9.275  22.601  0.00  0.00    +0.000 A 
ATOM     10  C   UNL     1      -0.459  10.386  23.144  0.00  0.00    +0.000 A 
ATOM     11  C   UNL     1      -0.899  11.422  22.315  0.00  0.00    +0.000 A 
ATOM     12  C   UNL     1      -0.653  11.380  20.939  0.00  0.00    +0.000 A 
ATOM     13  C   UNL     1       0.037  10.290  20.413  0.00  0.00    +0.000 A 
ATOM     14  C   UNL     1       0.450  10.249  18.989  0.00  0.00    +0.000 A 
ATOM     15  N   UNL     1       1.183   9.320  18.432  0.00  0.00    +0.000 NA
ATOM     16  N   UNL     1       1.500   8.276  19.270  0.00  0.00    +0.000 N 
ENDBRANCH   3   4
BRANCH   1  20
ATOM     17  C   UNL     1       6.087   3.925  14.616  0.00  0.00    +0.000 A 
ATOM     18  C   UNL     1       6.175   5.317  14.644  0.00  0.00    +0.000 A 
ATOM     19  C   UNL     1       5.664   6.041  15.723  0.00  0.00    +0.000 A 
ATOM     20  C   UNL     1       5.039   5.401  16.806  0.00  0.00    +0.000 A 
ATOM     21  C   UNL     1       4.943   3.997  16.743  0.00  0.00    +0.000 A 
ATOM     22  C   UNL     1       5.436   3.270  15.654  0.00  0.00    +0.000 A 
BRANCH  17  23
ATOM     23  O   UNL     1       6.636   3.345  13.514  0.00  0.00    +0.000 OA
BRANCH  23  25
ATOM     24  F   UNL     1       4.626   3.678  12.383  0.00  0.00    +0.000 F 
ATOM     25  C   UNL     1       5.933   3.356  12.279  0.00  0.00    +0.000 C 
ATOM     26  F   UNL     1       6.006   2.119  11.737  0.00  0.00    +0.000 F 
ATOM     27  F   UNL     1       6.529   4.222  11.431  0.00  0.00    +0.000 F 
ENDBRANCH  23  25
ENDBRANCH  17  23
ENDBRANCH   1  20
TORSDOF 4
ENDMDL
MODEL 6
REMARK VINA RESULT:      -7.9      3.765      5.519
REMARK  Name = 
REMARK  4 active torsions:
REMARK  status: ('A' for Active; 'I' for Inactive)
REMARK    1  A    between atoms: C_2  and  O_5
REMARK    2  A    between atoms: O_5  and  C_6
REMARK    3  A    between atoms: C_9  and  C_10
REMARK    4  A    between atoms: C_12  and  C_13
REMARK                            x       y       z     vdW  Elec       q    Type
REMARK                         _______ _______ _______ _____ _____    ______ ____
ROOT
ATOM      1  C   UNL     1       1.930   9.032  19.165  0.00  0.00    +0.000 C 
ATOM      2  C   UNL     1       1.906   9.716  17.831  0.00  0.00    +0.000 C 
ATOM      3  C   UNL     1       0.620   9.588  18.623  0.00  0.00    +0.000 C 
ENDROOT
BRANCH   3   4
ATOM      4  C   UNL     1       0.043  10.882  19.171  0.00  0.00    +0.000 A 
ATOM      5  N   UNL     1      -0.094  11.992  18.472  0.00  0.00    +0.000 NA
ATOM      6  N   UNL     1      -0.895  12.851  19.193  0.00  0.00    +0.000 NA
ATOM      7  C   UNL     1      -1.175  12.260  20.334  0.00  0.00    +0.000 A 
ATOM      8  C   UNL     1      -2.009  12.672  21.434  0.00  0.00    +0.000 A 
ATOM      9  C   UNL     1      -2.900  13.741  21.365  0.00  0.00    +0.000 A 
ATOM     10  C   UNL     1      -3.684  14.054  22.478  0.00  0.00    +0.000 A 
ATOM     11  C   UNL     1      -3.554  13.321  23.662  0.00  0.00    +0.000 A 
ATOM     12  C   UNL     1      -2.672  12.239  23.731  0.00  0.00    +0.000 A 
ATOM     13  C   UNL     1      -1.928  11.905  22.602  0.00  0.00    +0.000 A 
ATOM     14  C   UNL     1      -1.079  10.689  22.564  0.00  0.00    +0.000 A 
ATOM     15  N   UNL     1      -0.426  10.244  21.522  0.00  0.00    +0.000 NA
ATOM     16  N   UNL     1      -0.508  11.059  20.418  0.00  0.00    +0.000 N 
ENDBRANCH   3   4
BRANCH   1  20
ATOM     17  C   UNL     1       2.616   4.733  19.239  0.00  0.00    +0.000 A 
ATOM     18  C   UNL     1       2.921   5.485  18.105  0.00  0.00    +0.000 A 
ATOM     19  C   UNL     1       2.704   6.864  18.085  0.00  0.00    +0.000 A 
ATOM     20  C   UNL     1       2.166   7.537  19.194  0.00  0.00    +0.000 A 
ATOM     21  C   UNL     1       1.846   6.752  20.319  0.00  0.00    +0.000 A 
ATOM     22  C   UNL     1       2.043   5.368  20.334  0.00  0.00    +0.000 A 
BRANCH  17  23
ATOM     23  O   UNL     1       2.889   3.404  19.128  0.00  0.00    +0.000 OA
BRANCH  23  25
ATOM     24  F   UNL     1       0.745   3.107  18.266  0.00  0.00    +0.000 F 
ATOM     25  C   UNL     1       1.925   2.523  18.568  0.00  0.00    +0.000 C 
ATOM     26  F   UNL     1       1.675   1.541  19.464  0.00  0.00    +0.000 F 
ATOM     27  F   UNL     1       2.429   1.956  17.451  0.00  0.00    +0.000 F 
ENDBRANCH  23  25
ENDBRANCH  17  23
ENDBRANCH   1  20
TORSDOF 4
ENDMDL
MODEL 7
REMARK VINA RESULT:      -7.9      7.081      8.858
REMARK  Name = 
REMARK  4 active torsions:
REMARK  status: ('A' for Active; 'I' for Inactive)
REMARK    1  A    between atoms: C_2  and  O_5
REMARK    2  A    between atoms: O_5  and  C_6
REMARK    3  A    between atoms: C_9  and  C_10
REMARK    4  A    between atoms: C_12  and  C_13
REMARK                            x       y       z     vdW  Elec       q    Type
REMARK                         _______ _______ _______ _____ _____    ______ ____
ROOT
ATOM      1  C   UNL     1       7.913   8.899  18.582  0.00  0.00    +0.000 C 
ATOM      2  C   UNL     1       7.756   8.333  17.202  0.00  0.00    +0.000 C 
ATOM      3  C   UNL     1       8.352   7.469  18.296  0.00  0.00    +0.000 C 
ENDROOT
BRANCH   3   4
ATOM      4  C   UNL     1       7.505   6.292  18.753  0.00  0.00    +0.000 A 
ATOM      5  N   UNL     1       7.647   5.676  19.910  0.00  0.00    +0.000 NA
ATOM      6  N   UNL     1       6.549   4.865  20.096  0.00  0.00    +0.000 NA
ATOM      7  C   UNL     1       5.800   4.969  19.020  0.00  0.00    +0.000 A 
ATOM      8  C   UNL     1       4.520   4.390  18.697  0.00  0.00    +0.000 A 
ATOM      9  C   UNL     1       3.704   3.760  19.633  0.00  0.00    +0.000 A 
ATOM     10  C   UNL     1       2.468   3.245  19.232  0.00  0.00    +0.000 A 
ATOM     11  C   UNL     1       2.068   3.334  17.895  0.00  0.00    +0.000 A 
ATOM     12  C   UNL     1       2.878   3.978  16.955  0.00  0.00    +0.000 A 
ATOM     13  C   UNL     1       4.086   4.529  17.374  0.00  0.00    +0.000 A 
ATOM     14  C   UNL     1       4.926   5.342  16.461  0.00  0.00    +0.000 A 
ATOM     15  N   UNL     1       6.020   5.977  16.790  0.00  0.00    +0.000 NA
ATOM     16  N   UNL     1       6.421   5.771  18.090  0.00  0.00    +0.000 N 
ENDBRANCH   3   4
BRANCH   1  20
ATOM     17  C   UNL     1      10.888  12.021  19.178  0.00  0.00    +0.000 A 
ATOM     18  C   UNL     1      10.548  11.595  17.895  0.00  0.00    +0.000 A 
ATOM     19  C   UNL     1       9.590  10.596  17.706  0.00  0.00    +0.000 A 
ATOM     20  C   UNL     1       8.948   9.982  18.794  0.00  0.00    +0.000 A 
ATOM     21  C   UNL     1       9.325  10.414  20.080  0.00  0.00    +0.000 A 
ATOM     22  C   UNL     1      10.298  11.400  20.273  0.00  0.00    +0.000 A 
BRANCH  17  23
ATOM     23  O   UNL     1      11.824  13.008  19.218  0.00  0.00    +0.000 OA
BRANCH  23  25
ATOM     24  F   UNL     1      11.619  14.654  17.582  0.00  0.00    +0.000 F 
ATOM     25  C   UNL     1      11.466  14.343  18.886  0.00  0.00    +0.000 C 
ATOM     26  F   UNL     1      12.250  15.183  19.600  0.00  0.00    +0.000 F 
ATOM     27  F   UNL     1      10.182  14.564  19.240  0.00  0.00    +0.000 F 
ENDBRANCH  23  25
ENDBRANCH  17  23
ENDBRANCH   1  20
TORSDOF 4
ENDMDL
MODEL 8
REMARK VINA RESULT:      -7.8      4.284      5.918
REMARK  Name = 
REMARK  4 active torsions:
REMARK  status: ('A' for Active; 'I' for Inactive)
REMARK    1  A    between atoms: C_2  and  O_5
REMARK    2  A    between atoms: O_5  and  C_6
REMARK    3  A    between atoms: C_9  and  C_10
REMARK    4  A    between atoms: C_12  and  C_13
REMARK                            x       y       z     vdW  Elec       q    Type
REMARK                         _______ _______ _______ _____ _____    ______ ____
ROOT
ATOM      1  C   UNL     1       1.792   9.064  19.215  0.00  0.00    +0.000 C 
ATOM      2  C   UNL     1       1.712   9.652  17.838  0.00  0.00    +0.000 C 
ATOM      3  C   UNL     1       0.456   9.563  18.682  0.00  0.00    +0.000 C 
ENDROOT
BRANCH   3   4
ATOM      4  C   UNL     1      -0.123  10.886  19.157  0.00  0.00    +0.000 A 
ATOM      5  N   UNL     1      -0.304  11.940  18.386  0.00  0.00    +0.000 NA
ATOM      6  N   UNL     1      -1.092  12.838  19.074  0.00  0.00    +0.000 NA
ATOM      7  C   UNL     1      -1.319  12.326  20.264  0.00  0.00    +0.000 A 
ATOM      8  C   UNL     1      -2.119  12.804  21.363  0.00  0.00    +0.000 A 
ATOM      9  C   UNL     1      -3.029  13.853  21.252  0.00  0.00    +0.000 A 
ATOM     10  C   UNL     1      -3.777  14.235  22.369  0.00  0.00    +0.000 A 
ATOM     11  C   UNL     1      -3.591  13.591  23.596  0.00  0.00    +0.000 A 
ATOM     12  C   UNL     1      -2.688  12.529  23.709  0.00  0.00    +0.000 A 
ATOM     13  C   UNL     1      -1.982  12.125  22.579  0.00  0.00    +0.000 A 
ATOM     14  C   UNL     1      -1.114  10.922  22.596  0.00  0.00    +0.000 A 
ATOM     15  N   UNL     1      -0.493  10.412  21.564  0.00  0.00    +0.000 NA
ATOM     16  N   UNL     1      -0.629  11.144  20.408  0.00  0.00    +0.000 N 
ENDBRANCH   3   4
BRANCH   1  20
ATOM     17  C   UNL     1       2.527   4.789  19.588  0.00  0.00    +0.000 A 
ATOM     18  C   UNL     1       2.014   5.521  20.658  0.00  0.00    +0.000 A 
ATOM     19  C   UNL     1       1.775   6.891  20.535  0.00  0.00    +0.000 A 
ATOM     20  C   UNL     1       2.051   7.578  19.341  0.00  0.00    +0.000 A 
ATOM     21  C   UNL     1       2.589   6.821  18.282  0.00  0.00    +0.000 A 
ATOM     22  C   UNL     1       2.848   5.452  18.410  0.00  0.00    +0.000 A 
BRANCH  17  23
ATOM     23  O   UNL     1       2.699   3.462  19.840  0.00  0.00    +0.000 OA
BRANCH  23  25
ATOM     24  F   UNL     1       0.485   3.088  19.217  0.00  0.00    +0.000 F 
ATOM     25  C   UNL     1       1.583   2.583  19.819  0.00  0.00    +0.000 C 
ATOM     26  F   UNL     1       1.248   2.291  21.097  0.00  0.00    +0.000 F 
ATOM     27  F   UNL     1       1.928   1.433  19.201  0.00  0.00    +0.000 F 
ENDBRANCH  23  25
ENDBRANCH  17  23
ENDBRANCH   1  20
TORSDOF 4
ENDMDL
MODEL 9
REMARK VINA RESULT:      -7.8      7.222      8.810
REMARK  Name = 
REMARK  4 active torsions:
REMARK  status: ('A' for Active; 'I' for Inactive)
REMARK    1  A    between atoms: C_2  and  O_5
REMARK    2  A    between atoms: O_5  and  C_6
REMARK    3  A    between atoms: C_9  and  C_10
REMARK    4  A    between atoms: C_12  and  C_13
REMARK                            x       y       z     vdW  Elec       q    Type
REMARK                         _______ _______ _______ _____ _____    ______ ____
ROOT
ATOM      1  C   UNL     1       7.963   8.945  18.528  0.00  0.00    +0.000 C 
ATOM      2  C   UNL     1       7.951   8.302  17.174  0.00  0.00    +0.000 C 
ATOM      3  C   UNL     1       8.409   7.498  18.375  0.00  0.00    +0.000 C 
ENDROOT
BRANCH   3   4
ATOM      4  C   UNL     1       7.498   6.357  18.800  0.00  0.00    +0.000 A 
ATOM      5  N   UNL     1       7.750   5.536  19.801  0.00  0.00    +0.000 NA
ATOM      6  N   UNL     1       6.599   4.828  20.068  0.00  0.00    +0.000 NA
ATOM      7  C   UNL     1       5.697   5.199  19.185  0.00  0.00    +0.000 A 
ATOM      8  C   UNL     1       4.313   4.828  19.030  0.00  0.00    +0.000 A 
ATOM      9  C   UNL     1       3.591   4.134  19.998  0.00  0.00    +0.000 A 
ATOM     10  C   UNL     1       2.246   3.835  19.767  0.00  0.00    +0.000 A 
ATOM     11  C   UNL     1       1.638   4.201  18.563  0.00  0.00    +0.000 A 
ATOM     12  C   UNL     1       2.355   4.909  17.594  0.00  0.00    +0.000 A 
ATOM     13  C   UNL     1       3.683   5.243  17.852  0.00  0.00    +0.000 A 
ATOM     14  C   UNL     1       4.457   6.109  16.929  0.00  0.00    +0.000 A 
ATOM     15  N   UNL     1       5.669   6.555  17.136  0.00  0.00    +0.000 NA
ATOM     16  N   UNL     1       6.254   6.081  18.286  0.00  0.00    +0.000 N 
ENDBRANCH   3   4
BRANCH   1  20
ATOM     17  C   UNL     1      10.906  12.060  19.301  0.00  0.00    +0.000 A 
ATOM     18  C   UNL     1      10.253  11.418  20.352  0.00  0.00    +0.000 A 
ATOM     19  C   UNL     1       9.312  10.416  20.102  0.00  0.00    +0.000 A 
ATOM     20  C   UNL     1       8.985  10.030  18.792  0.00  0.00    +0.000 A 
ATOM     21  C   UNL     1       9.641  10.708  17.747  0.00  0.00    +0.000 A 
ATOM     22  C   UNL     1      10.569  11.726  17.994  0.00  0.00    +0.000 A 
BRANCH  17  23
ATOM     23  O   UNL     1      11.806  13.006  19.685  0.00  0.00    +0.000 OA
BRANCH  23  25
ATOM     24  F   UNL     1      12.333  15.271  19.824  0.00  0.00    +0.000 F 
ATOM     25  C   UNL     1      11.373  14.331  19.960  0.00  0.00    +0.000 C 
ATOM     26  F   UNL     1      10.934  14.379  21.238  0.00  0.00    +0.000 F 
ATOM     27  F   UNL     1      10.339  14.643  19.149  0.00  0.00    +0.000 F 
ENDBRANCH  23  25
ENDBRANCH  17  23
ENDBRANCH   1  20
TORSDOF 4
ENDMDL
