MODEL 1
REMARK VINA RESULT:      -8.3      0.000      0.000
REMARK  Name = 
REMARK  2 active torsions:
REMARK  status: ('A' for Active; 'I' for Inactive)
REMARK    1  A    between atoms: C_4  and  C_5
REMARK    2  A    between atoms: C_8  and  C_9
REMARK                            x       y       z     vdW  Elec       q    Type
REMARK                         _______ _______ _______ _____ _____    ______ ____
ROOT
ATOM      1  O   UNL     1       5.238   1.621  20.833  0.00  0.00    +0.000 OA
ATOM      2  C   UNL     1       4.755   2.528  20.169  0.00  0.00    +0.000 C 
ATOM      3  N   UNL     1       5.453   3.108  19.144  0.00  0.00    +0.000 N 
ATOM      4  C   UNL     1       5.131   4.415  18.647  0.00  0.00    +0.000 C 
ATOM      5  N   UNL     1       3.692   4.535  18.516  0.00  0.00    +0.000 N 
ATOM      6  C   UNL     1       2.925   4.066  19.583  0.00  0.00    +0.000 A 
ATOM      7  C   UNL     1       1.603   4.496  19.737  0.00  0.00    +0.000 A 
ATOM      8  C   UNL     1       0.780   3.935  20.717  0.00  0.00    +0.000 A 
ATOM      9  C   UNL     1       1.263   2.917  21.540  0.00  0.00    +0.000 A 
ATOM     10  C   UNL     1       2.573   2.464  21.388  0.00  0.00    +0.000 A 
ATOM     11  C   UNL     1       3.389   3.037  20.408  0.00  0.00    +0.000 A 
ATOM     12  H   UNL     1       6.413   2.800  19.086  0.00  0.00    +0.000 HD
ATOM     13  H   UNL     1       3.404   5.442  18.165  0.00  0.00    +0.000 HD
ENDROOT
BRANCH   4  14
ATOM     14  C   UNL     1       5.804   4.591  17.326  0.00  0.00    +0.000 A 
ATOM     15  C   UNL     1       7.158   4.596  17.053  0.00  0.00    +0.000 A 
ATOM     16  N   UNL     1       7.506   4.720  15.726  0.00  0.00    +0.000 NA
ATOM     17  C   UNL     1       6.415   4.789  14.996  0.00  0.00    +0.000 A 
ATOM     18  S   UNL     1       4.932   4.718  15.856  0.00  0.00    +0.000 S 
BRANCH  17  19
ATOM     19  C   UNL     1       6.465   4.956  13.480  0.00  0.00    +0.000 C 
ATOM     20  C   UNL     1       7.925   5.058  12.936  0.00  0.00    +0.000 C 
ATOM     21  C   UNL     1       7.449   4.252  11.715  0.00  0.00    +0.000 C 
ATOM     22  C   UNL     1       6.392   3.635  12.652  0.00  0.00    +0.000 C 
ENDBRANCH  17  19
ENDBRANCH   4  14
TORSDOF 2
ENDMDL
MODEL 2
REMARK VINA RESULT:      -7.1      2.363      7.538
REMARK  Name = 
REMARK  2 active torsions:
REMARK  status: ('A' for Active; 'I' for Inactive)
REMARK    1  A    between atoms: C_4  and  C_5
REMARK    2  A    between atoms: C_8  and  C_9
REMARK                            x       y       z     vdW  Elec       q    Type
REMARK                         _______ _______ _______ _____ _____    ______ ____
ROOT
ATOM      1  O   UNL     1       7.950   6.488  15.751  0.00  0.00    +0.000 OA
ATOM      2  C   UNL     1       7.045   5.677  15.611  0.00  0.00    +0.000 C 
ATOM      3  N   UNL     1       6.140   5.444  16.611  0.00  0.00    +0.000 N 
ATOM      4  C   UNL     1       5.366   4.237  16.672  0.00  0.00    +0.000 C 
ATOM      5  N   UNL     1       4.869   3.921  15.347  0.00  0.00    +0.000 N 
ATOM      6  C   UNL     1       5.779   4.028  14.295  0.00  0.00    +0.000 A 
ATOM      7  C   UNL     1       5.530   3.372  13.085  0.00  0.00    +0.000 A 
ATOM      8  C   UNL     1       6.359   3.577  11.979  0.00  0.00    +0.000 A 
ATOM      9  C   UNL     1       7.435   4.462  12.063  0.00  0.00    +0.000 A 
ATOM     10  C   UNL     1       7.687   5.137  13.256  0.00  0.00    +0.000 A 
ATOM     11  C   UNL     1       6.854   4.920  14.357  0.00  0.00    +0.000 A 
ATOM     12  H   UNL     1       6.371   5.906  17.480  0.00  0.00    +0.000 HD
ATOM     13  H   UNL     1       4.310   3.075  15.329  0.00  0.00    +0.000 HD
ENDROOT
BRANCH   4  14
ATOM     14  C   UNL     1       4.239   4.452  17.628  0.00  0.00    +0.000 A 
ATOM     15  C   UNL     1       3.388   5.537  17.712  0.00  0.00    +0.000 A 
ATOM     16  N   UNL     1       2.390   5.447  18.657  0.00  0.00    +0.000 NA
ATOM     17  C   UNL     1       2.475   4.288  19.272  0.00  0.00    +0.000 A 
ATOM     18  S   UNL     1       3.749   3.261  18.758  0.00  0.00    +0.000 S 
BRANCH  17  19
ATOM     19  C   UNL     1       1.520   3.895  20.395  0.00  0.00    +0.000 C 
ATOM     20  C   UNL     1       1.203   2.366  20.404  0.00  0.00    +0.000 C 
ATOM     21  C   UNL     1       1.204   2.449  21.940  0.00  0.00    +0.000 C 
ATOM     22  C   UNL     1       2.183   3.629  21.783  0.00  0.00    +0.000 C 
ENDBRANCH  17  19
ENDBRANCH   4  14
TORSDOF 2
ENDMDL
MODEL 3
REMARK VINA RESULT:      -7.0      4.404      5.686
REMARK  Name = 
REMARK  2 active torsions:
REMARK  status: ('A' for Active; 'I' for Inactive)
REMARK    1  A    between atoms: C_4  and  C_5
REMARK    2  A    between atoms: C_8  and  C_9
REMARK                            x       y       z     vdW  Elec       q    Type
REMARK                         _______ _______ _______ _____ _____    ______ ____
ROOT
ATOM      1  O   UNL     1       1.101  10.223  17.864  0.00  0.00    +0.000 OA
ATOM      2  C   UNL     1       1.329   9.404  18.745  0.00  0.00    +0.000 C 
ATOM      3  N   UNL     1       2.077   8.284  18.497  0.00  0.00    +0.000 N 
ATOM      4  C   UNL     1       2.002   7.119  19.331  0.00  0.00    +0.000 C 
ATOM      5  N   UNL     1       2.001   7.526  20.722  0.00  0.00    +0.000 N 
ATOM      6  C   UNL     1       1.167   8.591  21.062  0.00  0.00    +0.000 A 
ATOM      7  C   UNL     1       0.789   8.787  22.394  0.00  0.00    +0.000 A 
ATOM      8  C   UNL     1       0.068   9.923  22.772  0.00  0.00    +0.000 A 
ATOM      9  C   UNL     1      -0.262  10.892  21.823  0.00  0.00    +0.000 A 
ATOM     10  C   UNL     1       0.123  10.722  20.494  0.00  0.00    +0.000 A 
ATOM     11  C   UNL     1       0.839   9.578  20.127  0.00  0.00    +0.000 A 
ATOM     12  H   UNL     1       2.301   8.158  17.520  0.00  0.00    +0.000 HD
ATOM     13  H   UNL     1       1.951   6.739  21.361  0.00  0.00    +0.000 HD
ENDROOT
BRANCH   4  14
ATOM     14  C   UNL     1       3.180   6.252  19.029  0.00  0.00    +0.000 A 
ATOM     15  C   UNL     1       3.652   5.174  19.753  0.00  0.00    +0.000 A 
ATOM     16  N   UNL     1       4.730   4.510  19.210  0.00  0.00    +0.000 NA
ATOM     17  C   UNL     1       5.059   5.073  18.069  0.00  0.00    +0.000 A 
ATOM     18  S   UNL     1       4.106   6.420  17.597  0.00  0.00    +0.000 S 
BRANCH  17  19
ATOM     19  C   UNL     1       6.236   4.581  17.232  0.00  0.00    +0.000 C 
ATOM     20  C   UNL     1       5.786   3.973  15.866  0.00  0.00    +0.000 C 
ATOM     21  C   UNL     1       7.051   4.600  15.254  0.00  0.00    +0.000 C 
ATOM     22  C   UNL     1       6.947   5.665  16.363  0.00  0.00    +0.000 C 
ENDBRANCH  17  19
ENDBRANCH   4  14
TORSDOF 2
ENDMDL
MODEL 4
REMARK VINA RESULT:      -7.0      6.504      9.873
REMARK  Name = 
REMARK  2 active torsions:
REMARK  status: ('A' for Active; 'I' for Inactive)
REMARK    1  A    between atoms: C_4  and  C_5
REMARK    2  A    between atoms: C_8  and  C_9
REMARK                            x       y       z     vdW  Elec       q    Type
REMARK                         _______ _______ _______ _____ _____    ______ ____
ROOT
ATOM      1  O   UNL     1       2.396   8.562  17.370  0.00  0.00    +0.000 OA
ATOM      2  C   UNL     1       2.134   8.155  18.493  0.00  0.00    +0.000 C 
ATOM      3  N   UNL     1       1.582   8.979  19.437  0.00  0.00    +0.000 N 
ATOM      4  C   UNL     1       1.667   8.694  20.841  0.00  0.00    +0.000 C 
ATOM      5  N   UNL     1       1.391   7.288  21.060  0.00  0.00    +0.000 N 
ATOM      6  C   UNL     1       2.019   6.386  20.200  0.00  0.00    +0.000 A 
ATOM      7  C   UNL     1       2.149   5.042  20.568  0.00  0.00    +0.000 A 
ATOM      8  C   UNL     1       2.651   4.100  19.665  0.00  0.00    +0.000 A 
ATOM      9  C   UNL     1       3.005   4.488  18.373  0.00  0.00    +0.000 A 
ATOM     10  C   UNL     1       2.865   5.819  17.983  0.00  0.00    +0.000 A 
ATOM     11  C   UNL     1       2.367   6.753  18.897  0.00  0.00    +0.000 A 
ATOM     12  H   UNL     1       1.536   9.947  19.150  0.00  0.00    +0.000 HD
ATOM     13  H   UNL     1       1.435   7.027  22.039  0.00  0.00    +0.000 HD
ENDROOT
BRANCH   4  14
ATOM     14  C   UNL     1       0.672   9.550  21.553  0.00  0.00    +0.000 A 
ATOM     15  C   UNL     1       0.260   9.463  22.869  0.00  0.00    +0.000 A 
ATOM     16  N   UNL     1      -0.633  10.426  23.285  0.00  0.00    +0.000 NA
ATOM     17  C   UNL     1      -0.880  11.250  22.291  0.00  0.00    +0.000 A 
ATOM     18  S   UNL     1      -0.068  10.910  20.819  0.00  0.00    +0.000 S 
BRANCH  17  19
ATOM     19  C   UNL     1      -1.854  12.416  22.429  0.00  0.00    +0.000 C 
ATOM     20  C   UNL     1      -2.974  12.140  23.481  0.00  0.00    +0.000 C 
ATOM     21  C   UNL     1      -2.877  13.626  23.866  0.00  0.00    +0.000 C 
ATOM     22  C   UNL     1      -1.410  13.556  23.398  0.00  0.00    +0.000 C 
ENDBRANCH  17  19
ENDBRANCH   4  14
TORSDOF 2
ENDMDL
MODEL 5
REMARK VINA RESULT:      -7.0      2.762      4.007
REMARK  Name = 
REMARK  2 active torsions:
REMARK  status: ('A' for Active; 'I' for Inactive)
REMARK    1  A    between atoms: C_4  and  C_5
REMARK    2  A    between atoms: C_8  and  C_9
REMARK                            x       y       z     vdW  Elec       q    Type
REMARK                         _______ _______ _______ _____ _____    ______ ____
ROOT
ATOM      1  O   UNL     1       0.968   4.257  17.154  0.00  0.00    +0.000 OA
ATOM      2  C   UNL     1       1.991   4.124  17.812  0.00  0.00    +0.000 C 
ATOM      3  N   UNL     1       3.199   4.571  17.345  0.00  0.00    +0.000 N 
ATOM      4  C   UNL     1       4.444   4.064  17.847  0.00  0.00    +0.000 C 
ATOM      5  N   UNL     1       4.374   3.969  19.291  0.00  0.00    +0.000 N 
ATOM      6  C   UNL     1       3.212   3.413  19.827  0.00  0.00    +0.000 A 
ATOM      7  C   UNL     1       3.214   2.912  21.133  0.00  0.00    +0.000 A 
ATOM      8  C   UNL     1       2.028   2.477  21.731  0.00  0.00    +0.000 A 
ATOM      9  C   UNL     1       0.820   2.562  21.038  0.00  0.00    +0.000 A 
ATOM     10  C   UNL     1       0.797   3.077  19.742  0.00  0.00    +0.000 A 
ATOM     11  C   UNL     1       1.991   3.503  19.152  0.00  0.00    +0.000 A 
ATOM     12  H   UNL     1       3.166   4.893  16.388  0.00  0.00    +0.000 HD
ATOM     13  H   UNL     1       5.231   3.617  19.704  0.00  0.00    +0.000 HD
ENDROOT
BRANCH   4  14
ATOM     14  C   UNL     1       5.532   4.995  17.424  0.00  0.00    +0.000 A 
ATOM     15  C   UNL     1       6.047   5.184  16.156  0.00  0.00    +0.000 A 
ATOM     16  N   UNL     1       7.014   6.157  16.037  0.00  0.00    +0.000 NA
ATOM     17  C   UNL     1       7.215   6.717  17.210  0.00  0.00    +0.000 A 
ATOM     18  S   UNL     1       6.268   6.104  18.503  0.00  0.00    +0.000 S 
BRANCH  17  19
ATOM     19  C   UNL     1       8.248   7.821  17.415  0.00  0.00    +0.000 C 
ATOM     20  C   UNL     1       7.603   9.241  17.478  0.00  0.00    +0.000 C 
ATOM     21  C   UNL     1       8.654   9.592  18.545  0.00  0.00    +0.000 C 
ATOM     22  C   UNL     1       8.663   8.091  18.895  0.00  0.00    +0.000 C 
ENDBRANCH  17  19
ENDBRANCH   4  14
TORSDOF 2
ENDMDL
MODEL 6
REMARK VINA RESULT:      -7.0      3.827      7.249
REMARK  Name = 
REMARK  2 active torsions:
REMARK  status: ('A' for Active; 'I' for Inactive)
REMARK    1  A    between atoms: C_4  and  C_5
REMARK    2  A    between atoms: C_8  and  C_9
REMARK                            x       y       z     vdW  Elec       q    Type
REMARK                         _______ _______ _______ _____ _____    ______ ____
ROOT
ATOM      1  O   UNL     1       6.742   4.975  19.901  0.00  0.00    +0.000 OA
ATOM      2  C   UNL     1       5.867   5.314  19.116  0.00  0.00    +0.000 C 
ATOM      3  N   UNL     1       4.701   5.884  19.554  0.00  0.00    +0.000 N 
ATOM      4  C   UNL     1       3.509   5.886  18.757  0.00  0.00    +0.000 C 
ATOM      5  N   UNL     1       3.848   6.227  17.389  0.00  0.00    +0.000 N 
ATOM      6  C   UNL     1       4.963   5.589  16.844  0.00  0.00    +0.000 A 
ATOM      7  C   UNL     1       5.127   5.532  15.456  0.00  0.00    +0.000 A 
ATOM      8  C   UNL     1       6.301   5.018  14.897  0.00  0.00    +0.000 A 
ATOM      9  C   UNL     1       7.337   4.579  15.722  0.00  0.00    +0.000 A 
ATOM     10  C   UNL     1       7.197   4.647  17.107  0.00  0.00    +0.000 A 
ATOM     11  C   UNL     1       6.017   5.157  17.655  0.00  0.00    +0.000 A 
ATOM     12  H   UNL     1       4.602   5.876  20.559  0.00  0.00    +0.000 HD
ATOM     13  H   UNL     1       3.040   6.247  16.777  0.00  0.00    +0.000 HD
ENDROOT
BRANCH   4  14
ATOM     14  C   UNL     1       2.561   6.885  19.336  0.00  0.00    +0.000 A 
ATOM     15  C   UNL     1       1.951   6.860  20.575  0.00  0.00    +0.000 A 
ATOM     16  N   UNL     1       1.163   7.948  20.880  0.00  0.00    +0.000 NA
ATOM     17  C   UNL     1       1.193   8.802  19.881  0.00  0.00    +0.000 A 
ATOM     18  S   UNL     1       2.154   8.343  18.535  0.00  0.00    +0.000 S 
BRANCH  17  19
ATOM     19  C   UNL     1       0.399  10.104  19.903  0.00  0.00    +0.000 C 
ATOM     20  C   UNL     1       1.083  11.237  19.074  0.00  0.00    +0.000 C 
ATOM     21  C   UNL     1      -0.329  11.682  18.654  0.00  0.00    +0.000 C 
ATOM     22  C   UNL     1      -0.749  10.212  18.851  0.00  0.00    +0.000 C 
ENDBRANCH  17  19
ENDBRANCH   4  14
TORSDOF 2
ENDMDL
MODEL 7
REMARK VINA RESULT:      -6.9      5.211      8.362
REMARK  Name = 
REMARK  2 active torsions:
REMARK  status: ('A' for Active; 'I' for Inactive)
REMARK    1  A    between atoms: C_4  and  C_5
REMARK    2  A    between atoms: C_8  and  C_9
REMARK                            x       y       z     vdW  Elec       q    Type
REMARK                         _______ _______ _______ _____ _____    ______ ____
ROOT
ATOM      1  O   UNL     1       3.685   5.835  17.285  0.00  0.00    +0.000 OA
ATOM      2  C   UNL     1       2.995   5.870  18.294  0.00  0.00    +0.000 C 
ATOM      3  N   UNL     1       2.615   7.061  18.854  0.00  0.00    +0.000 N 
ATOM      4  C   UNL     1       2.205   7.161  20.225  0.00  0.00    +0.000 C 
ATOM      5  N   UNL     1       1.321   6.058  20.542  0.00  0.00    +0.000 N 
ATOM      6  C   UNL     1       1.713   4.795  20.099  0.00  0.00    +0.000 A 
ATOM      7  C   UNL     1       1.169   3.647  20.685  0.00  0.00    +0.000 A 
ATOM      8  C   UNL     1       1.446   2.380  20.164  0.00  0.00    +0.000 A 
ATOM      9  C   UNL     1       2.252   2.248  19.032  0.00  0.00    +0.000 A 
ATOM     10  C   UNL     1       2.788   3.382  18.424  0.00  0.00    +0.000 A 
ATOM     11  C   UNL     1       2.508   4.644  18.958  0.00  0.00    +0.000 A 
ATOM     12  H   UNL     1       3.054   7.865  18.428  0.00  0.00    +0.000 HD
ATOM     13  H   UNL     1       0.997   6.078  21.503  0.00  0.00    +0.000 HD
ENDROOT
BRANCH   4  14
ATOM     14  C   UNL     1       1.513   8.471  20.411  0.00  0.00    +0.000 A 
ATOM     15  C   UNL     1       1.104   9.365  19.440  0.00  0.00    +0.000 A 
ATOM     16  N   UNL     1       0.430  10.478  19.891  0.00  0.00    +0.000 NA
ATOM     17  C   UNL     1       0.311  10.415  21.198  0.00  0.00    +0.000 A 
ATOM     18  S   UNL     1       1.003   9.035  21.947  0.00  0.00    +0.000 S 
BRANCH  17  19
ATOM     19  C   UNL     1      -0.371  11.517  22.004  0.00  0.00    +0.000 C 
ATOM     20  C   UNL     1      -1.664  12.053  21.311  0.00  0.00    +0.000 C 
ATOM     21  C   UNL     1      -2.276  12.182  22.716  0.00  0.00    +0.000 C 
ATOM     22  C   UNL     1      -1.337  11.032  23.129  0.00  0.00    +0.000 C 
ENDBRANCH  17  19
ENDBRANCH   4  14
TORSDOF 2
ENDMDL
MODEL 8
REMARK VINA RESULT:      -6.9      1.515      1.889
REMARK  Name = 
REMARK  2 active torsions:
REMARK  status: ('A' for Active; 'I' for Inactive)
REMARK    1  A    between atoms: C_4  and  C_5
REMARK    2  A    between atoms: C_8  and  C_9
REMARK                            x       y       z     vdW  Elec       q    Type
REMARK                         _______ _______ _______ _____ _____    ______ ____
ROOT
ATOM      1  O   UNL     1       3.985   1.947  19.267  0.00  0.00    +0.000 OA
ATOM      2  C   UNL     1       4.112   3.071  18.803  0.00  0.00    +0.000 C 
ATOM      3  N   UNL     1       4.926   3.307  17.727  0.00  0.00    +0.000 N 
ATOM      4  C   UNL     1       5.443   4.613  17.435  0.00  0.00    +0.000 C 
ATOM      5  N   UNL     1       4.386   5.592  17.594  0.00  0.00    +0.000 N 
ATOM      6  C   UNL     1       3.591   5.475  18.735  0.00  0.00    +0.000 A 
ATOM      7  C   UNL     1       2.841   6.569  19.180  0.00  0.00    +0.000 A 
ATOM      8  C   UNL     1       1.938   6.431  20.238  0.00  0.00    +0.000 A 
ATOM      9  C   UNL     1       1.755   5.189  20.847  0.00  0.00    +0.000 A 
ATOM     10  C   UNL     1       2.481   4.084  20.403  0.00  0.00    +0.000 A 
ATOM     11  C   UNL     1       3.385   4.236  19.348  0.00  0.00    +0.000 A 
ATOM     12  H   UNL     1       5.478   2.505  17.456  0.00  0.00    +0.000 HD
ATOM     13  H   UNL     1       4.694   6.538  17.397  0.00  0.00    +0.000 HD
ENDROOT
BRANCH   4  14
ATOM     14  C   UNL     1       5.961   4.609  16.034  0.00  0.00    +0.000 A 
ATOM     15  C   UNL     1       7.091   5.233  15.542  0.00  0.00    +0.000 A 
ATOM     16  N   UNL     1       7.369   5.013  14.211  0.00  0.00    +0.000 NA
ATOM     17  C   UNL     1       6.461   4.208  13.704  0.00  0.00    +0.000 A 
ATOM     18  S   UNL     1       5.236   3.686  14.786  0.00  0.00    +0.000 S 
BRANCH  17  19
ATOM     19  C   UNL     1       6.478   3.790  12.237  0.00  0.00    +0.000 C 
ATOM     20  C   UNL     1       7.572   2.719  11.931  0.00  0.00    +0.000 C 
ATOM     21  C   UNL     1       6.573   2.085  10.947  0.00  0.00    +0.000 C 
ATOM     22  C   UNL     1       5.464   2.672  11.841  0.00  0.00    +0.000 C 
ENDBRANCH  17  19
ENDBRANCH   4  14
TORSDOF 2
ENDMDL
MODEL 9
REMARK VINA RESULT:      -6.9      4.400      8.110
REMARK  Name = 
REMARK  2 active torsions:
REMARK  status: ('A' for Active; 'I' for Inactive)
REMARK    1  A    between atoms: C_4  and  C_5
REMARK    2  A    between atoms: C_8  and  C_9
REMARK                            x       y       z     vdW  Elec       q    Type
REMARK                         _______ _______ _______ _____ _____    ______ ____
ROOT
ATOM      1  O   UNL     1       2.421   3.601  18.240  0.00  0.00    +0.000 OA
ATOM      2  C   UNL     1       2.855   4.716  17.988  0.00  0.00    +0.000 C 
ATOM      3  N   UNL     1       2.229   5.843  18.450  0.00  0.00    +0.000 N 
ATOM      4  C   UNL     1       2.424   7.127  17.840  0.00  0.00    +0.000 C 
ATOM      5  N   UNL     1       3.834   7.315  17.562  0.00  0.00    +0.000 N 
ATOM      6  C   UNL     1       4.506   6.239  16.981  0.00  0.00    +0.000 A 
ATOM      7  C   UNL     1       5.718   6.448  16.315  0.00  0.00    +0.000 A 
ATOM      8  C   UNL     1       6.470   5.367  15.847  0.00  0.00    +0.000 A 
ATOM      9  C   UNL     1       6.030   4.060  16.062  0.00  0.00    +0.000 A 
ATOM     10  C   UNL     1       4.834   3.834  16.741  0.00  0.00    +0.000 A 
ATOM     11  C   UNL     1       4.087   4.923  17.199  0.00  0.00    +0.000 A 
ATOM     12  H   UNL     1       1.341   5.657  18.894  0.00  0.00    +0.000 HD
ATOM     13  H   UNL     1       4.033   8.211  17.130  0.00  0.00    +0.000 HD
ENDROOT
BRANCH   4  14
ATOM     14  C   UNL     1       1.921   8.173  18.781  0.00  0.00    +0.000 A 
ATOM     15  C   UNL     1       1.491   9.451  18.483  0.00  0.00    +0.000 A 
ATOM     16  N   UNL     1       1.019  10.191  19.544  0.00  0.00    +0.000 NA
ATOM     17  C   UNL     1       1.074   9.466  20.639  0.00  0.00    +0.000 A 
ATOM     18  S   UNL     1       1.696   7.877  20.454  0.00  0.00    +0.000 S 
BRANCH  17  19
ATOM     19  C   UNL     1       0.643  10.013  21.996  0.00  0.00    +0.000 C 
ATOM     20  C   UNL     1      -0.402  11.167  21.872  0.00  0.00    +0.000 C 
ATOM     21  C   UNL     1      -1.071  10.598  23.136  0.00  0.00    +0.000 C 
ATOM     22  C   UNL     1      -0.505   9.230  22.707  0.00  0.00    +0.000 C 
ENDBRANCH  17  19
ENDBRANCH   4  14
TORSDOF 2
ENDMDL
