MODEL 1
REMARK VINA RESULT:      -8.4      0.000      0.000
REMARK  Name = 
REMARK  4 active torsions:
REMARK  status: ('A' for Active; 'I' for Inactive)
REMARK    1  A    between atoms: C_7  and  C_8
REMARK    2  A    between atoms: C_12  and  C_13
REMARK    3  A    between atoms: C_13  and  N_14
REMARK    4  A    between atoms: C_15  and  C_17
REMARK                            x       y       z     vdW  Elec       q    Type
REMARK                         _______ _______ _______ _____ _____    ______ ____
ROOT
ATOM      1  C   UNL     1       0.914   9.996  19.965  0.00  0.00    +0.000 A 
ATOM      2  C   UNL     1       1.150  10.335  18.638  0.00  0.00    +0.000 A 
ATOM      3  C   UNL     1       1.789   9.412  17.818  0.00  0.00    +0.000 A 
ATOM      4  C   UNL     1       2.162   8.178  18.342  0.00  0.00    +0.000 A 
ATOM      5  C   UNL     1       1.876   7.893  19.676  0.00  0.00    +0.000 A 
ATOM      6  N   UNL     1       1.276   8.796  20.495  0.00  0.00    +0.000 NA
ENDROOT
BRANCH   1  13
ATOM      7  N   UNL     1      -4.124  12.110  24.456  0.00  0.00    +0.000 NA
ATOM      8  C   UNL     1      -3.265  12.431  23.548  0.00  0.00    +0.000 C 
ATOM      9  N   UNL     1      -3.380  13.587  22.864  0.00  0.00    +0.000 N 
ATOM     10  N   UNL     1      -2.283  11.563  23.205  0.00  0.00    +0.000 N 
ATOM     11  C   UNL     1      -1.239  11.641  22.351  0.00  0.00    +0.000 A 
ATOM     12  N   UNL     1      -0.734  10.584  21.753  0.00  0.00    +0.000 NA
ATOM     13  C   UNL     1       0.274  10.951  20.867  0.00  0.00    +0.000 A 
ATOM     14  C   UNL     1       0.605  12.290  20.896  0.00  0.00    +0.000 A 
ATOM     15  S   UNL     1      -0.409  13.118  21.988  0.00  0.00    +0.000 S 
ATOM     16  H   UNL     1      -4.822  12.854  24.534  0.00  0.00    +0.000 HD
ATOM     17  H   UNL     1      -3.944  14.316  23.276  0.00  0.00    +0.000 HD
ATOM     18  H   UNL     1      -2.533  13.940  22.434  0.00  0.00    +0.000 HD
ATOM     19  H   UNL     1      -2.457  10.642  23.587  0.00  0.00    +0.000 HD
ENDBRANCH   1  13
BRANCH   5  20
ATOM     20  C   UNL     1       2.182   6.528  20.252  0.00  0.00    +0.000 C 
BRANCH  20  21
ATOM     21  N   UNL     1       3.441   5.965  19.801  0.00  0.00    +0.000 N 
ATOM     22  C   UNL     1       3.481   4.840  19.011  0.00  0.00    +0.000 C 
ATOM     23  O   UNL     1       2.456   4.261  18.668  0.00  0.00    +0.000 OA
ATOM     24  H   UNL     1       4.288   6.468  20.026  0.00  0.00    +0.000 HD
BRANCH  22  25
ATOM     25  C   UNL     1       4.892   4.317  18.678  0.00  0.00    +0.000 C 
ATOM     26  C   UNL     1       5.013   4.028  17.171  0.00  0.00    +0.000 C 
ATOM     27  C   UNL     1       5.096   5.277  16.294  0.00  0.00    +0.000 C 
ATOM     28  C   UNL     1       6.522   5.767  16.072  0.00  0.00    +0.000 C 
ATOM     29  C   UNL     1       7.233   6.290  17.314  0.00  0.00    +0.000 C 
ATOM     30  C   UNL     1       7.301   5.310  18.484  0.00  0.00    +0.000 C 
ATOM     31  C   UNL     1       5.989   5.223  19.263  0.00  0.00    +0.000 C 
ENDBRANCH  22  25
ENDBRANCH  20  21
ENDBRANCH   5  20
TORSDOF 4
ENDMDL
MODEL 2
REMARK VINA RESULT:      -8.0      3.520      4.631
REMARK  Name = 
REMARK  4 active torsions:
REMARK  status: ('A' for Active; 'I' for Inactive)
REMARK    1  A    between atoms: C_7  and  C_8
REMARK    2  A    between atoms: C_12  and  C_13
REMARK    3  A    between atoms: C_13  and  N_14
REMARK    4  A    between atoms: C_15  and  C_17
REMARK                            x       y       z     vdW  Elec       q    Type
REMARK                         _______ _______ _______ _____ _____    ______ ____
ROOT
ATOM      1  C   UNL     1      -0.814  10.301  18.891  0.00  0.00    +0.000 A 
ATOM      2  C   UNL     1      -0.595  10.583  20.233  0.00  0.00    +0.000 A 
ATOM      3  C   UNL     1       0.562  10.100  20.836  0.00  0.00    +0.000 A 
ATOM      4  C   UNL     1       1.468   9.362  20.079  0.00  0.00    +0.000 A 
ATOM      5  C   UNL     1       1.198   9.134  18.731  0.00  0.00    +0.000 A 
ATOM      6  N   UNL     1       0.059   9.578  18.137  0.00  0.00    +0.000 NA
ENDROOT
BRANCH   1  13
ATOM      7  N   UNL     1      -7.086  13.561  18.669  0.00  0.00    +0.000 NA
ATOM      8  C   UNL     1      -6.329  12.616  18.221  0.00  0.00    +0.000 C 
ATOM      9  N   UNL     1      -6.856  11.545  17.596  0.00  0.00    +0.000 N 
ATOM     10  N   UNL     1      -4.996  12.646  18.457  0.00  0.00    +0.000 N 
ATOM     11  C   UNL     1      -3.974  11.847  18.079  0.00  0.00    +0.000 A 
ATOM     12  N   UNL     1      -2.885  11.702  18.802  0.00  0.00    +0.000 NA
ATOM     13  C   UNL     1      -2.032  10.763  18.230  0.00  0.00    +0.000 A 
ATOM     14  C   UNL     1      -2.439  10.292  16.999  0.00  0.00    +0.000 A 
ATOM     15  S   UNL     1      -3.947  10.971  16.584  0.00  0.00    +0.000 S 
ATOM     16  H   UNL     1      -8.061  13.339  18.454  0.00  0.00    +0.000 HD
ATOM     17  H   UNL     1      -7.787  11.641  17.216  0.00  0.00    +0.000 HD
ATOM     18  H   UNL     1      -6.233  11.032  16.984  0.00  0.00    +0.000 HD
ATOM     19  H   UNL     1      -4.760  13.343  19.152  0.00  0.00    +0.000 HD
ENDBRANCH   1  13
BRANCH   5  20
ATOM     20  C   UNL     1       2.204   8.418  17.857  0.00  0.00    +0.000 C 
BRANCH  20  21
ATOM     21  N   UNL     1       2.201   6.975  18.013  0.00  0.00    +0.000 N 
ATOM     22  C   UNL     1       3.370   6.251  18.008  0.00  0.00    +0.000 C 
ATOM     23  O   UNL     1       4.459   6.793  17.858  0.00  0.00    +0.000 OA
ATOM     24  H   UNL     1       1.316   6.525  18.198  0.00  0.00    +0.000 HD
BRANCH  22  25
ATOM     25  C   UNL     1       3.200   4.722  18.105  0.00  0.00    +0.000 C 
ATOM     26  C   UNL     1       3.717   4.212  19.462  0.00  0.00    +0.000 C 
ATOM     27  C   UNL     1       2.811   4.547  20.647  0.00  0.00    +0.000 C 
ATOM     28  C   UNL     1       1.753   3.485  20.921  0.00  0.00    +0.000 C 
ATOM     29  C   UNL     1       0.693   3.328  19.837  0.00  0.00    +0.000 C 
ATOM     30  C   UNL     1       1.233   3.036  18.438  0.00  0.00    +0.000 C 
ATOM     31  C   UNL     1       1.773   4.283  17.738  0.00  0.00    +0.000 C 
ENDBRANCH  22  25
ENDBRANCH  20  21
ENDBRANCH   5  20
TORSDOF 4
ENDMDL
MODEL 3
REMARK VINA RESULT:      -7.9      3.401      9.869
REMARK  Name = 
REMARK  4 active torsions:
REMARK  status: ('A' for Active; 'I' for Inactive)
REMARK    1  A    between atoms: C_7  and  C_8
REMARK    2  A    between atoms: C_12  and  C_13
REMARK    3  A    between atoms: C_13  and  N_14
REMARK    4  A    between atoms: C_15  and  C_17
REMARK                            x       y       z     vdW  Elec       q    Type
REMARK                         _______ _______ _______ _____ _____    ______ ____
ROOT
ATOM      1  C   UNL     1       2.175   7.831  18.643  0.00  0.00    +0.000 A 
ATOM      2  C   UNL     1       1.801   8.663  17.595  0.00  0.00    +0.000 A 
ATOM      3  C   UNL     1       1.058   9.803  17.881  0.00  0.00    +0.000 A 
ATOM      4  C   UNL     1       0.721  10.084  19.201  0.00  0.00    +0.000 A 
ATOM      5  C   UNL     1       1.147   9.219  20.208  0.00  0.00    +0.000 A 
ATOM      6  N   UNL     1       1.851   8.088  19.940  0.00  0.00    +0.000 NA
ENDROOT
BRANCH   1  13
ATOM      7  N   UNL     1       7.984   4.187  16.915  0.00  0.00    +0.000 NA
ATOM      8  C   UNL     1       6.697   4.268  16.888  0.00  0.00    +0.000 C 
ATOM      9  N   UNL     1       5.978   3.558  15.995  0.00  0.00    +0.000 N 
ATOM     10  N   UNL     1       6.054   5.141  17.699  0.00  0.00    +0.000 N 
ATOM     11  C   UNL     1       4.747   5.402  17.923  0.00  0.00    +0.000 A 
ATOM     12  N   UNL     1       4.318   6.586  18.303  0.00  0.00    +0.000 NA
ATOM     13  C   UNL     1       2.929   6.608  18.381  0.00  0.00    +0.000 A 
ATOM     14  C   UNL     1       2.323   5.387  18.171  0.00  0.00    +0.000 A 
ATOM     15  S   UNL     1       3.497   4.209  17.795  0.00  0.00    +0.000 S 
ATOM     16  H   UNL     1       8.294   3.529  16.196  0.00  0.00    +0.000 HD
ATOM     17  H   UNL     1       6.422   2.753  15.576  0.00  0.00    +0.000 HD
ATOM     18  H   UNL     1       5.006   3.392  16.232  0.00  0.00    +0.000 HD
ATOM     19  H   UNL     1       6.700   5.795  18.121  0.00  0.00    +0.000 HD
ENDBRANCH   1  13
BRANCH   5  20
ATOM     20  C   UNL     1       0.880   9.543  21.662  0.00  0.00    +0.000 C 
BRANCH  20  21
ATOM     21  N   UNL     1       0.177  10.795  21.869  0.00  0.00    +0.000 N 
ATOM     22  C   UNL     1      -0.828  10.908  22.802  0.00  0.00    +0.000 C 
ATOM     23  O   UNL     1      -1.178   9.952  23.485  0.00  0.00    +0.000 OA
ATOM     24  H   UNL     1       0.497  11.604  21.356  0.00  0.00    +0.000 HD
BRANCH  22  25
ATOM     25  C   UNL     1      -1.532  12.278  22.852  0.00  0.00    +0.000 C 
ATOM     26  C   UNL     1      -1.452  12.971  21.481  0.00  0.00    +0.000 C 
ATOM     27  C   UNL     1      -2.363  12.364  20.413  0.00  0.00    +0.000 C 
ATOM     28  C   UNL     1      -3.755  12.986  20.380  0.00  0.00    +0.000 C 
ATOM     29  C   UNL     1      -4.613  12.728  21.612  0.00  0.00    +0.000 C 
ATOM     30  C   UNL     1      -3.990  13.159  22.939  0.00  0.00    +0.000 C 
ATOM     31  C   UNL     1      -2.944  12.170  23.453  0.00  0.00    +0.000 C 
ENDBRANCH  22  25
ENDBRANCH  20  21
ENDBRANCH   5  20
TORSDOF 4
ENDMDL
MODEL 4
REMARK VINA RESULT:      -7.8      1.432      1.548
REMARK  Name = 
REMARK  4 active torsions:
REMARK  status: ('A' for Active; 'I' for Inactive)
REMARK    1  A    between atoms: C_7  and  C_8
REMARK    2  A    between atoms: C_12  and  C_13
REMARK    3  A    between atoms: C_13  and  N_14
REMARK    4  A    between atoms: C_15  and  C_17
REMARK                            x       y       z     vdW  Elec       q    Type
REMARK                         _______ _______ _______ _____ _____    ______ ____
ROOT
ATOM      1  C   UNL     1       0.654   9.747  19.745  0.00  0.00    +0.000 A 
ATOM      2  C   UNL     1       1.038  10.115  18.461  0.00  0.00    +0.000 A 
ATOM      3  C   UNL     1       1.902   9.281  17.759  0.00  0.00    +0.000 A 
ATOM      4  C   UNL     1       2.348   8.104  18.354  0.00  0.00    +0.000 A 
ATOM      5  C   UNL     1       1.906   7.784  19.637  0.00  0.00    +0.000 A 
ATOM      6  N   UNL     1       1.082   8.602  20.343  0.00  0.00    +0.000 NA
ENDROOT
BRANCH   1  13
ATOM      7  N   UNL     1      -3.898  15.093  20.590  0.00  0.00    +0.000 NA
ATOM      8  C   UNL     1      -2.953  14.373  21.093  0.00  0.00    +0.000 C 
ATOM      9  N   UNL     1      -2.228  14.816  22.140  0.00  0.00    +0.000 N 
ATOM     10  N   UNL     1      -2.616  13.195  20.516  0.00  0.00    +0.000 N 
ATOM     11  C   UNL     1      -1.728  12.229  20.840  0.00  0.00    +0.000 A 
ATOM     12  N   UNL     1      -1.158  11.462  19.936  0.00  0.00    +0.000 NA
ATOM     13  C   UNL     1      -0.228  10.610  20.526  0.00  0.00    +0.000 A 
ATOM     14  C   UNL     1      -0.194  10.664  21.904  0.00  0.00    +0.000 A 
ATOM     15  S   UNL     1      -1.282  11.848  22.470  0.00  0.00    +0.000 S 
ATOM     16  H   UNL     1      -3.968  15.968  21.115  0.00  0.00    +0.000 HD
ATOM     17  H   UNL     1      -2.627  15.553  22.702  0.00  0.00    +0.000 HD
ATOM     18  H   UNL     1      -1.759  14.108  22.693  0.00  0.00    +0.000 HD
ATOM     19  H   UNL     1      -3.039  13.099  19.601  0.00  0.00    +0.000 HD
ENDBRANCH   1  13
BRANCH   5  20
ATOM     20  C   UNL     1       2.293   6.468  20.276  0.00  0.00    +0.000 C 
BRANCH  20  21
ATOM     21  N   UNL     1       3.545   5.920  19.788  0.00  0.00    +0.000 N 
ATOM     22  C   UNL     1       3.584   4.744  19.076  0.00  0.00    +0.000 C 
ATOM     23  O   UNL     1       2.565   4.105  18.837  0.00  0.00    +0.000 OA
ATOM     24  H   UNL     1       4.383   6.468  19.925  0.00  0.00    +0.000 HD
BRANCH  22  25
ATOM     25  C   UNL     1       4.993   4.250  18.693  0.00  0.00    +0.000 C 
ATOM     26  C   UNL     1       5.061   3.945  17.186  0.00  0.00    +0.000 C 
ATOM     27  C   UNL     1       5.080   5.185  16.292  0.00  0.00    +0.000 C 
ATOM     28  C   UNL     1       6.483   5.705  16.007  0.00  0.00    +0.000 C 
ATOM     29  C   UNL     1       7.230   6.260  17.214  0.00  0.00    +0.000 C 
ATOM     30  C   UNL     1       7.368   5.296  18.392  0.00  0.00    +0.000 C 
ATOM     31  C   UNL     1       6.090   5.189  19.224  0.00  0.00    +0.000 C 
ENDBRANCH  22  25
ENDBRANCH  20  21
ENDBRANCH   5  20
TORSDOF 4
ENDMDL
MODEL 5
REMARK VINA RESULT:      -7.7      1.347      1.630
REMARK  Name = 
REMARK  4 active torsions:
REMARK  status: ('A' for Active; 'I' for Inactive)
REMARK    1  A    between atoms: C_7  and  C_8
REMARK    2  A    between atoms: C_12  and  C_13
REMARK    3  A    between atoms: C_13  and  N_14
REMARK    4  A    between atoms: C_15  and  C_17
REMARK                            x       y       z     vdW  Elec       q    Type
REMARK                         _______ _______ _______ _____ _____    ______ ____
ROOT
ATOM      1  C   UNL     1       0.730   9.734  19.924  0.00  0.00    +0.000 A 
ATOM      2  C   UNL     1       1.036  10.334  18.709  0.00  0.00    +0.000 A 
ATOM      3  C   UNL     1       1.866   9.657  17.821  0.00  0.00    +0.000 A 
ATOM      4  C   UNL     1       2.354   8.400  18.168  0.00  0.00    +0.000 A 
ATOM      5  C   UNL     1       1.990   7.846  19.393  0.00  0.00    +0.000 A 
ATOM      6  N   UNL     1       1.201   8.508  20.281  0.00  0.00    +0.000 NA
ENDROOT
BRANCH   1  13
ATOM      7  N   UNL     1      -2.984  15.247  22.340  0.00  0.00    +0.000 NA
ATOM      8  C   UNL     1      -2.255  14.216  22.612  0.00  0.00    +0.000 C 
ATOM      9  N   UNL     1      -1.639  14.100  23.805  0.00  0.00    +0.000 N 
ATOM     10  N   UNL     1      -2.025  13.278  21.662  0.00  0.00    +0.000 N 
ATOM     11  C   UNL     1      -1.365  12.099  21.671  0.00  0.00    +0.000 A 
ATOM     12  N   UNL     1      -0.792  11.603  20.596  0.00  0.00    +0.000 NA
ATOM     13  C   UNL     1      -0.112  10.426  20.896  0.00  0.00    +0.000 A 
ATOM     14  C   UNL     1      -0.284   9.978  22.190  0.00  0.00    +0.000 A 
ATOM     15  S   UNL     1      -1.243  11.081  23.067  0.00  0.00    +0.000 S 
ATOM     16  H   UNL     1      -2.993  15.873  23.148  0.00  0.00    +0.000 HD
ATOM     17  H   UNL     1      -1.998  14.655  24.568  0.00  0.00    +0.000 HD
ATOM     18  H   UNL     1      -1.381  13.162  24.087  0.00  0.00    +0.000 HD
ATOM     19  H   UNL     1      -2.311  13.602  20.747  0.00  0.00    +0.000 HD
ENDBRANCH   1  13
BRANCH   5  20
ATOM     20  C   UNL     1       2.425   6.444  19.761  0.00  0.00    +0.000 C 
BRANCH  20  21
ATOM     21  N   UNL     1       3.680   6.037  19.157  0.00  0.00    +0.000 N 
ATOM     22  C   UNL     1       3.712   5.203  18.064  0.00  0.00    +0.000 C 
ATOM     23  O   UNL     1       2.683   4.760  17.565  0.00  0.00    +0.000 OA
ATOM     24  H   UNL     1       4.530   6.444  19.521  0.00  0.00    +0.000 HD
BRANCH  22  25
ATOM     25  C   UNL     1       5.119   4.798  17.584  0.00  0.00    +0.000 C 
ATOM     26  C   UNL     1       5.598   5.746  16.470  0.00  0.00    +0.000 C 
ATOM     27  C   UNL     1       5.993   7.141  16.957  0.00  0.00    +0.000 C 
ATOM     28  C   UNL     1       7.460   7.252  17.354  0.00  0.00    +0.000 C 
ATOM     29  C   UNL     1       7.868   6.439  18.577  0.00  0.00    +0.000 C 
ATOM     30  C   UNL     1       7.564   4.943  18.494  0.00  0.00    +0.000 C 
ATOM     31  C   UNL     1       6.094   4.620  18.761  0.00  0.00    +0.000 C 
ENDBRANCH  22  25
ENDBRANCH  20  21
ENDBRANCH   5  20
TORSDOF 4
ENDMDL
MODEL 6
REMARK VINA RESULT:      -7.7      2.946      4.507
REMARK  Name = 
REMARK  4 active torsions:
REMARK  status: ('A' for Active; 'I' for Inactive)
REMARK    1  A    between atoms: C_7  and  C_8
REMARK    2  A    between atoms: C_12  and  C_13
REMARK    3  A    between atoms: C_13  and  N_14
REMARK    4  A    between atoms: C_15  and  C_17
REMARK                            x       y       z     vdW  Elec       q    Type
REMARK                         _______ _______ _______ _____ _____    ______ ____
ROOT
ATOM      1  C   UNL     1      -0.428  11.239  21.384  0.00  0.00    +0.000 A 
ATOM      2  C   UNL     1      -0.608  10.743  22.670  0.00  0.00    +0.000 A 
ATOM      3  C   UNL     1      -0.077   9.496  22.983  0.00  0.00    +0.000 A 
ATOM      4  C   UNL     1       0.625   8.790  22.011  0.00  0.00    +0.000 A 
ATOM      5  C   UNL     1       0.788   9.356  20.748  0.00  0.00    +0.000 A 
ATOM      6  N   UNL     1       0.252  10.561  20.420  0.00  0.00    +0.000 NA
ENDROOT
BRANCH   1  13
ATOM      7  N   UNL     1      -0.459  17.413  17.935  0.00  0.00    +0.000 NA
ATOM      8  C   UNL     1      -0.801  16.747  18.986  0.00  0.00    +0.000 C 
ATOM      9  N   UNL     1      -1.112  17.380  20.135  0.00  0.00    +0.000 N 
ATOM     10  N   UNL     1      -0.761  15.394  18.974  0.00  0.00    +0.000 N 
ATOM     11  C   UNL     1      -1.102  14.452  19.883  0.00  0.00    +0.000 A 
ATOM     12  N   UNL     1      -0.521  13.274  19.931  0.00  0.00    +0.000 NA
ATOM     13  C   UNL     1      -0.997  12.530  21.007  0.00  0.00    +0.000 A 
ATOM     14  C   UNL     1      -2.036  13.120  21.697  0.00  0.00    +0.000 A 
ATOM     15  S   UNL     1      -2.372  14.659  21.043  0.00  0.00    +0.000 S 
ATOM     16  H   UNL     1      -0.488  18.413  18.148  0.00  0.00    +0.000 HD
ATOM     17  H   UNL     1      -1.372  18.354  20.072  0.00  0.00    +0.000 HD
ATOM     18  H   UNL     1      -1.684  16.861  20.792  0.00  0.00    +0.000 HD
ATOM     19  H   UNL     1      -0.265  15.046  18.164  0.00  0.00    +0.000 HD
ENDBRANCH   1  13
BRANCH   5  20
ATOM     20  C   UNL     1       1.625   8.659  19.698  0.00  0.00    +0.000 C 
BRANCH  20  21
ATOM     21  N   UNL     1       2.216   7.411  20.144  0.00  0.00    +0.000 N 
ATOM     22  C   UNL     1       2.692   6.482  19.249  0.00  0.00    +0.000 C 
ATOM     23  O   UNL     1       2.623   6.665  18.038  0.00  0.00    +0.000 OA
ATOM     24  H   UNL     1       2.334   7.277  21.138  0.00  0.00    +0.000 HD
BRANCH  22  25
ATOM     25  C   UNL     1       3.219   5.174  19.871  0.00  0.00    +0.000 C 
ATOM     26  C   UNL     1       2.234   4.651  20.932  0.00  0.00    +0.000 C 
ATOM     27  C   UNL     1       0.952   4.047  20.358  0.00  0.00    +0.000 C 
ATOM     28  C   UNL     1       1.062   2.555  20.069  0.00  0.00    +0.000 C 
ATOM     29  C   UNL     1       2.033   2.176  18.957  0.00  0.00    +0.000 C 
ATOM     30  C   UNL     1       3.464   2.677  19.146  0.00  0.00    +0.000 C 
ATOM     31  C   UNL     1       3.628   4.155  18.794  0.00  0.00    +0.000 C 
ENDBRANCH  22  25
ENDBRANCH  20  21
ENDBRANCH   5  20
TORSDOF 4
ENDMDL
MODEL 7
REMARK VINA RESULT:      -7.6      3.967      9.105
REMARK  Name = 
REMARK  4 active torsions:
REMARK  status: ('A' for Active; 'I' for Inactive)
REMARK    1  A    between atoms: C_7  and  C_8
REMARK    2  A    between atoms: C_12  and  C_13
REMARK    3  A    between atoms: C_13  and  N_14
REMARK    4  A    between atoms: C_15  and  C_17
REMARK                            x       y       z     vdW  Elec       q    Type
REMARK                         _______ _______ _______ _____ _____    ______ ____
ROOT
ATOM      1  C   UNL     1       1.567   8.298  19.936  0.00  0.00    +0.000 A 
ATOM      2  C   UNL     1       1.211   8.217  21.276  0.00  0.00    +0.000 A 
ATOM      3  C   UNL     1       0.519   9.280  21.847  0.00  0.00    +0.000 A 
ATOM      4  C   UNL     1       0.193  10.382  21.062  0.00  0.00    +0.000 A 
ATOM      5  C   UNL     1       0.561  10.388  19.717  0.00  0.00    +0.000 A 
ATOM      6  N   UNL     1       1.261   9.369  19.154  0.00  0.00    +0.000 NA
ENDROOT
BRANCH   1  13
ATOM      7  N   UNL     1       4.855   2.036  19.873  0.00  0.00    +0.000 NA
ATOM      8  C   UNL     1       4.788   3.240  19.412  0.00  0.00    +0.000 C 
ATOM      9  N   UNL     1       5.853   3.812  18.815  0.00  0.00    +0.000 N 
ATOM     10  N   UNL     1       3.670   3.980  19.606  0.00  0.00    +0.000 N 
ATOM     11  C   UNL     1       3.301   5.216  19.205  0.00  0.00    +0.000 A 
ATOM     12  N   UNL     1       2.468   5.964  19.896  0.00  0.00    +0.000 NA
ATOM     13  C   UNL     1       2.323   7.217  19.308  0.00  0.00    +0.000 A 
ATOM     14  C   UNL     1       2.966   7.360  18.096  0.00  0.00    +0.000 A 
ATOM     15  S   UNL     1       3.827   5.937  17.720  0.00  0.00    +0.000 S 
ATOM     16  H   UNL     1       5.788   1.659  19.691  0.00  0.00    +0.000 HD
ATOM     17  H   UNL     1       6.573   3.198  18.464  0.00  0.00    +0.000 HD
ATOM     18  H   UNL     1       5.655   4.585  18.190  0.00  0.00    +0.000 HD
ATOM     19  H   UNL     1       3.057   3.549  20.285  0.00  0.00    +0.000 HD
ENDBRANCH   1  13
BRANCH   5  20
ATOM     20  C   UNL     1       0.141  11.526  18.813  0.00  0.00    +0.000 C 
BRANCH  20  21
ATOM     21  N   UNL     1       0.679  12.818  19.199  0.00  0.00    +0.000 N 
ATOM     22  C   UNL     1       1.950  13.201  18.841  0.00  0.00    +0.000 C 
ATOM     23  O   UNL     1       2.684  12.463  18.193  0.00  0.00    +0.000 OA
ATOM     24  H   UNL     1       0.063  13.458  19.679  0.00  0.00    +0.000 HD
BRANCH  22  25
ATOM     25  C   UNL     1       2.407  14.567  19.389  0.00  0.00    +0.000 C 
ATOM     26  C   UNL     1       3.631  15.076  18.606  0.00  0.00    +0.000 C 
ATOM     27  C   UNL     1       3.314  15.570  17.195  0.00  0.00    +0.000 C 
ATOM     28  C   UNL     1       2.961  17.052  17.137  0.00  0.00    +0.000 C 
ATOM     29  C   UNL     1       1.660  17.439  17.831  0.00  0.00    +0.000 C 
ATOM     30  C   UNL     1       1.566  17.039  19.303  0.00  0.00    +0.000 C 
ATOM     31  C   UNL     1       1.236  15.559  19.496  0.00  0.00    +0.000 C 
ENDBRANCH  22  25
ENDBRANCH  20  21
ENDBRANCH   5  20
TORSDOF 4
ENDMDL
MODEL 8
REMARK VINA RESULT:      -7.6      3.907      9.491
REMARK  Name = 
REMARK  4 active torsions:
REMARK  status: ('A' for Active; 'I' for Inactive)
REMARK    1  A    between atoms: C_7  and  C_8
REMARK    2  A    between atoms: C_12  and  C_13
REMARK    3  A    between atoms: C_13  and  N_14
REMARK    4  A    between atoms: C_15  and  C_17
REMARK                            x       y       z     vdW  Elec       q    Type
REMARK                         _______ _______ _______ _____ _____    ______ ____
ROOT
ATOM      1  C   UNL     1       3.372   4.840  18.820  0.00  0.00    +0.000 A 
ATOM      2  C   UNL     1       3.458   3.542  19.309  0.00  0.00    +0.000 A 
ATOM      3  C   UNL     1       2.823   3.239  20.509  0.00  0.00    +0.000 A 
ATOM      4  C   UNL     1       2.116   4.234  21.177  0.00  0.00    +0.000 A 
ATOM      5  C   UNL     1       2.051   5.510  20.620  0.00  0.00    +0.000 A 
ATOM      6  N   UNL     1       2.688   5.827  19.462  0.00  0.00    +0.000 NA
ENDROOT
BRANCH   1  13
ATOM      7  N   UNL     1       6.768   3.446  12.775  0.00  0.00    +0.000 NA
ATOM      8  C   UNL     1       6.602   4.243  13.776  0.00  0.00    +0.000 C 
ATOM      9  N   UNL     1       7.549   5.143  14.108  0.00  0.00    +0.000 N 
ATOM     10  N   UNL     1       5.508   4.123  14.566  0.00  0.00    +0.000 N 
ATOM     11  C   UNL     1       5.051   4.828  15.624  0.00  0.00    +0.000 A 
ATOM     12  N   UNL     1       4.314   4.287  16.569  0.00  0.00    +0.000 NA
ATOM     13  C   UNL     1       4.050   5.207  17.580  0.00  0.00    +0.000 A 
ATOM     14  C   UNL     1       4.498   6.486  17.322  0.00  0.00    +0.000 A 
ATOM     15  S   UNL     1       5.328   6.525  15.833  0.00  0.00    +0.000 S 
ATOM     16  H   UNL     1       7.671   3.641  12.338  0.00  0.00    +0.000 HD
ATOM     17  H   UNL     1       8.223   5.391  13.399  0.00  0.00    +0.000 HD
ATOM     18  H   UNL     1       7.239   5.940  14.652  0.00  0.00    +0.000 HD
ATOM     19  H   UNL     1       5.015   3.258  14.383  0.00  0.00    +0.000 HD
ENDBRANCH   1  13
BRANCH   5  20
ATOM     20  C   UNL     1       1.213   6.589  21.270  0.00  0.00    +0.000 C 
BRANCH  20  21
ATOM     21  N   UNL     1       1.455   7.921  20.746  0.00  0.00    +0.000 N 
ATOM     22  C   UNL     1       0.585   8.957  20.992  0.00  0.00    +0.000 C 
ATOM     23  O   UNL     1      -0.436   8.794  21.652  0.00  0.00    +0.000 OA
ATOM     24  H   UNL     1       2.322   8.081  20.254  0.00  0.00    +0.000 HD
BRANCH  22  25
ATOM     25  C   UNL     1       0.935  10.291  20.306  0.00  0.00    +0.000 C 
ATOM     26  C   UNL     1       0.651  10.207  18.796  0.00  0.00    +0.000 C 
ATOM     27  C   UNL     1      -0.834  10.228  18.432  0.00  0.00    +0.000 C 
ATOM     28  C   UNL     1      -1.385  11.632  18.215  0.00  0.00    +0.000 C 
ATOM     29  C   UNL     1      -1.423  12.516  19.456  0.00  0.00    +0.000 C 
ATOM     30  C   UNL     1      -0.082  12.693  20.168  0.00  0.00    +0.000 C 
ATOM     31  C   UNL     1       0.297  11.489  21.029  0.00  0.00    +0.000 C 
ENDBRANCH  22  25
ENDBRANCH  20  21
ENDBRANCH   5  20
TORSDOF 4
ENDMDL
MODEL 9
REMARK VINA RESULT:      -7.6      3.483      4.573
REMARK  Name = 
REMARK  4 active torsions:
REMARK  status: ('A' for Active; 'I' for Inactive)
REMARK    1  A    between atoms: C_7  and  C_8
REMARK    2  A    between atoms: C_12  and  C_13
REMARK    3  A    between atoms: C_13  and  N_14
REMARK    4  A    between atoms: C_15  and  C_17
REMARK                            x       y       z     vdW  Elec       q    Type
REMARK                         _______ _______ _______ _____ _____    ______ ____
ROOT
ATOM      1  C   UNL     1      -0.710  10.185  18.892  0.00  0.00    +0.000 A 
ATOM      2  C   UNL     1      -0.605  10.290  20.274  0.00  0.00    +0.000 A 
ATOM      3  C   UNL     1       0.513   9.749  20.900  0.00  0.00    +0.000 A 
ATOM      4  C   UNL     1       1.494   9.132  20.130  0.00  0.00    +0.000 A 
ATOM      5  C   UNL     1       1.337   9.080  18.746  0.00  0.00    +0.000 A 
ATOM      6  N   UNL     1       0.237   9.581  18.124  0.00  0.00    +0.000 NA
ENDROOT
BRANCH   1  13
ATOM      7  N   UNL     1      -6.916  13.561  18.560  0.00  0.00    +0.000 NA
ATOM      8  C   UNL     1      -6.149  12.636  18.090  0.00  0.00    +0.000 C 
ATOM      9  N   UNL     1      -6.655  11.620  17.363  0.00  0.00    +0.000 N 
ATOM     10  N   UNL     1      -4.830  12.627  18.398  0.00  0.00    +0.000 N 
ATOM     11  C   UNL     1      -3.800  11.838  18.021  0.00  0.00    +0.000 A 
ATOM     12  N   UNL     1      -2.754  11.624  18.790  0.00  0.00    +0.000 NA
ATOM     13  C   UNL     1      -1.883  10.713  18.201  0.00  0.00    +0.000 A 
ATOM     14  C   UNL     1      -2.229  10.334  16.920  0.00  0.00    +0.000 A 
ATOM     15  S   UNL     1      -3.703  11.066  16.473  0.00  0.00    +0.000 S 
ATOM     16  H   UNL     1      -7.881  13.371  18.278  0.00  0.00    +0.000 HD
ATOM     17  H   UNL     1      -7.563  11.757  16.942  0.00  0.00    +0.000 HD
ATOM     18  H   UNL     1      -6.006  11.138  16.752  0.00  0.00    +0.000 HD
ATOM     19  H   UNL     1      -4.623  13.270  19.151  0.00  0.00    +0.000 HD
ENDBRANCH   1  13
BRANCH   5  20
ATOM     20  C   UNL     1       2.427   8.502  17.871  0.00  0.00    +0.000 C 
BRANCH  20  21
ATOM     21  N   UNL     1       3.037   7.298  18.405  0.00  0.00    +0.000 N 
ATOM     22  C   UNL     1       2.490   6.057  18.181  0.00  0.00    +0.000 C 
ATOM     23  O   UNL     1       1.458   5.918  17.533  0.00  0.00    +0.000 OA
ATOM     24  H   UNL     1       3.920   7.394  18.887  0.00  0.00    +0.000 HD
BRANCH  22  25
ATOM     25  C   UNL     1       3.208   4.883  18.877  0.00  0.00    +0.000 C 
ATOM     26  C   UNL     1       2.774   4.789  20.350  0.00  0.00    +0.000 C 
ATOM     27  C   UNL     1       1.358   4.253  20.558  0.00  0.00    +0.000 C 
ATOM     28  C   UNL     1       1.297   2.736  20.691  0.00  0.00    +0.000 C 
ATOM     29  C   UNL     1       1.675   1.956  19.438  0.00  0.00    +0.000 C 
ATOM     30  C   UNL     1       3.055   2.275  18.866  0.00  0.00    +0.000 C 
ATOM     31  C   UNL     1       3.081   3.580  18.070  0.00  0.00    +0.000 C 
ENDBRANCH  22  25
ENDBRANCH  20  21
ENDBRANCH   5  20
TORSDOF 4
ENDMDL
