MODEL 1
REMARK VINA RESULT:      -9.8      0.000      0.000
REMARK  Name = 
REMARK  9 active torsions:
REMARK  status: ('A' for Active; 'I' for Inactive)
REMARK    1  A    between atoms: C_1  and  C_2
REMARK    2  A    between atoms: C_6  and  C_7
REMARK    3  A    between atoms: C_14  and  N_15
REMARK    4  A    between atoms: N_15  and  C_16
REMARK    5  A    between atoms: C_18  and  C_19
REMARK    6  A    between atoms: C_19  and  O_20
REMARK    7  A    between atoms: C_21  and  O_22
REMARK    8  A    between atoms: C_23  and  O_24
REMARK    9  A    between atoms: C_27  and  C_28
REMARK                            x       y       z     vdW  Elec       q    Type
REMARK                         _______ _______ _______ _____ _____    ______ ____
ROOT
ATOM      1  C   UNL     1       3.157   4.848  19.369  0.00  0.00    +0.000 A 
ATOM      2  C   UNL     1       2.341   3.757  19.559  0.00  0.00    +0.000 A 
ATOM      3 CL   UNL     1       0.683   3.907  20.030  0.00  0.00    +0.000 Cl
ATOM      4  N   UNL     1       2.731   2.461  19.534  0.00  0.00    +0.000 NA
ATOM      5  C   UNL     1       4.025   2.245  19.350  0.00  0.00    +0.000 A 
ATOM      6  N   UNL     1       4.466   0.947  19.206  0.00  0.00    +0.000 N 
ATOM      7  N   UNL     1       4.943   3.205  19.265  0.00  0.00    +0.000 NA
ATOM      8  C   UNL     1       4.517   4.484  19.288  0.00  0.00    +0.000 A 
ATOM      9  H   UNL     1       3.711   0.342  18.913  0.00  0.00    +0.000 HD
ATOM     10  H   UNL     1       5.313   0.922  18.652  0.00  0.00    +0.000 HD
ENDROOT
BRANCH   1  16
ATOM     11  C   UNL     1      -0.174  11.452  18.391  0.00  0.00    +0.000 C 
ATOM     12  C   UNL     1       0.551  10.271  18.972  0.00  0.00    +0.000 A 
ATOM     13  C   UNL     1       1.259   9.397  18.158  0.00  0.00    +0.000 A 
ATOM     14  C   UNL     1       1.835   8.271  18.767  0.00  0.00    +0.000 A 
ATOM     15  C   UNL     1       2.587   7.162  18.288  0.00  0.00    +0.000 A 
ATOM     16  C   UNL     1       2.726   6.262  19.326  0.00  0.00    +0.000 A 
ATOM     17  O   UNL     1       2.231   6.852  20.486  0.00  0.00    +0.000 OA
ATOM     18  C   UNL     1       1.689   8.084  20.137  0.00  0.00    +0.000 A 
ATOM     19  C   UNL     1       1.048   9.042  20.947  0.00  0.00    +0.000 A 
ATOM     20  C   UNL     1       0.934   9.046  22.433  0.00  0.00    +0.000 C 
ATOM     21  N   UNL     1       0.481  10.118  20.310  0.00  0.00    +0.000 NA
ENDBRANCH   1  16
BRANCH   8  22
ATOM     22  N   UNL     1       5.507   5.461  19.267  0.00  0.00    +0.000 N 
ATOM     23  H   UNL     1       5.193   6.190  18.624  0.00  0.00    +0.000 HD
BRANCH  22  24
ATOM     24  C   UNL     1       6.932   5.139  19.071  0.00  0.00    +0.000 C 
ATOM     25  C   UNL     1       7.853   6.383  19.101  0.00  0.00    +0.000 C 
ATOM     26  C   UNL     1       7.904   6.942  17.660  0.00  0.00    +0.000 C 
ATOM     27  C   UNL     1       6.974   6.027  16.860  0.00  0.00    +0.000 C 
ATOM     28  C   UNL     1       7.070   4.678  17.601  0.00  0.00    +0.000 C 
BRANCH  27  29
ATOM     29  O   UNL     1       7.366   5.957  15.502  0.00  0.00    +0.000 OA
ATOM     30  H   UNL     1       7.874   5.136  15.383  0.00  0.00    +0.000 HD
ENDBRANCH  27  29
BRANCH  28  31
ATOM     31  O   UNL     1       8.292   3.986  17.347  0.00  0.00    +0.000 OA
ATOM     32  H   UNL     1       8.940   4.209  18.038  0.00  0.00    +0.000 HD
ENDBRANCH  28  31
BRANCH  26  33
ATOM     33  C   UNL     1       7.558   8.427  17.567  0.00  0.00    +0.000 C 
BRANCH  33  34
ATOM     34  O   UNL     1       8.435   9.248  18.326  0.00  0.00    +0.000 OA
ATOM     35  H   UNL     1       8.530   8.871  19.217  0.00  0.00    +0.000 HD
ENDBRANCH  33  34
ENDBRANCH  26  33
ENDBRANCH  22  24
ENDBRANCH   8  22
TORSDOF 7
ENDMDL
MODEL 2
REMARK VINA RESULT:      -9.4      2.776      6.605
REMARK  Name = 
REMARK  9 active torsions:
REMARK  status: ('A' for Active; 'I' for Inactive)
REMARK    1  A    between atoms: C_1  and  C_2
REMARK    2  A    between atoms: C_6  and  C_7
REMARK    3  A    between atoms: C_14  and  N_15
REMARK    4  A    between atoms: N_15  and  C_16
REMARK    5  A    between atoms: C_18  and  C_19
REMARK    6  A    between atoms: C_19  and  O_20
REMARK    7  A    between atoms: C_21  and  O_22
REMARK    8  A    between atoms: C_23  and  O_24
REMARK    9  A    between atoms: C_27  and  C_28
REMARK                            x       y       z     vdW  Elec       q    Type
REMARK                         _______ _______ _______ _____ _____    ______ ____
ROOT
ATOM      1  C   UNL     1       2.468   7.123  19.234  0.00  0.00    +0.000 A 
ATOM      2  C   UNL     1       1.978   8.391  19.028  0.00  0.00    +0.000 A 
ATOM      3 CL   UNL     1       2.624   9.454  17.825  0.00  0.00    +0.000 Cl
ATOM      4  N   UNL     1       1.046   9.015  19.787  0.00  0.00    +0.000 NA
ATOM      5  C   UNL     1       0.610   8.344  20.843  0.00  0.00    +0.000 A 
ATOM      6  N   UNL     1      -0.416   8.881  21.591  0.00  0.00    +0.000 N 
ATOM      7  N   UNL     1       1.078   7.159  21.226  0.00  0.00    +0.000 NA
ATOM      8  C   UNL     1       2.000   6.565  20.443  0.00  0.00    +0.000 A 
ATOM      9  H   UNL     1      -0.944   9.551  21.048  0.00  0.00    +0.000 HD
ATOM     10  H   UNL     1      -0.942   8.146  22.046  0.00  0.00    +0.000 HD
ENDROOT
BRANCH   1  16
ATOM     11  C   UNL     1       7.285   4.756  14.052  0.00  0.00    +0.000 C 
ATOM     12  C   UNL     1       6.595   5.063  15.351  0.00  0.00    +0.000 A 
ATOM     13  C   UNL     1       5.221   5.253  15.402  0.00  0.00    +0.000 A 
ATOM     14  C   UNL     1       4.665   5.622  16.637  0.00  0.00    +0.000 A 
ATOM     15  C   UNL     1       3.348   5.927  17.080  0.00  0.00    +0.000 A 
ATOM     16  C   UNL     1       3.433   6.409  18.370  0.00  0.00    +0.000 A 
ATOM     17  O   UNL     1       4.745   6.255  18.810  0.00  0.00    +0.000 OA
ATOM     18  C   UNL     1       5.494   5.769  17.744  0.00  0.00    +0.000 A 
ATOM     19  C   UNL     1       6.870   5.474  17.677  0.00  0.00    +0.000 A 
ATOM     20  C   UNL     1       7.851   5.454  18.800  0.00  0.00    +0.000 C 
ATOM     21  N   UNL     1       7.378   5.136  16.447  0.00  0.00    +0.000 NA
ENDBRANCH   1  16
BRANCH   8  22
ATOM     22  N   UNL     1       2.518   5.360  20.908  0.00  0.00    +0.000 N 
ATOM     23  H   UNL     1       3.350   5.158  20.352  0.00  0.00    +0.000 HD
BRANCH  22  24
ATOM     24  C   UNL     1       1.682   4.160  21.094  0.00  0.00    +0.000 C 
ATOM     25  C   UNL     1       2.483   2.920  21.559  0.00  0.00    +0.000 C 
ATOM     26  C   UNL     1       3.004   2.214  20.286  0.00  0.00    +0.000 C 
ATOM     27  C   UNL     1       2.524   3.099  19.133  0.00  0.00    +0.000 C 
ATOM     28  C   UNL     1       1.228   3.731  19.678  0.00  0.00    +0.000 C 
BRANCH  27  29
ATOM     29  O   UNL     1       2.334   2.343  17.952  0.00  0.00    +0.000 OA
ATOM     30  H   UNL     1       3.143   1.823  17.800  0.00  0.00    +0.000 HD
ENDBRANCH  27  29
BRANCH  28  31
ATOM     31  O   UNL     1       0.128   2.821  19.700  0.00  0.00    +0.000 OA
ATOM     32  H   UNL     1       0.409   1.982  20.105  0.00  0.00    +0.000 HD
ENDBRANCH  28  31
BRANCH  26  33
ATOM     33  C   UNL     1       4.511   1.962  20.300  0.00  0.00    +0.000 C 
BRANCH  33  34
ATOM     34  O   UNL     1       5.208   2.726  19.325  0.00  0.00    +0.000 OA
ATOM     35  H   UNL     1       6.007   3.103  19.730  0.00  0.00    +0.000 HD
ENDBRANCH  33  34
ENDBRANCH  26  33
ENDBRANCH  22  24
ENDBRANCH   8  22
TORSDOF 7
ENDMDL
MODEL 3
REMARK VINA RESULT:      -9.2      1.079      1.661
REMARK  Name = 
REMARK  9 active torsions:
REMARK  status: ('A' for Active; 'I' for Inactive)
REMARK    1  A    between atoms: C_1  and  C_2
REMARK    2  A    between atoms: C_6  and  C_7
REMARK    3  A    between atoms: C_14  and  N_15
REMARK    4  A    between atoms: N_15  and  C_16
REMARK    5  A    between atoms: C_18  and  C_19
REMARK    6  A    between atoms: C_19  and  O_20
REMARK    7  A    between atoms: C_21  and  O_22
REMARK    8  A    between atoms: C_23  and  O_24
REMARK    9  A    between atoms: C_27  and  C_28
REMARK                            x       y       z     vdW  Elec       q    Type
REMARK                         _______ _______ _______ _____ _____    ______ ____
ROOT
ATOM      1  C   UNL     1       2.858   4.815  18.816  0.00  0.00    +0.000 A 
ATOM      2  C   UNL     1       2.275   3.811  19.553  0.00  0.00    +0.000 A 
ATOM      3 CL   UNL     1       1.214   4.129  20.882  0.00  0.00    +0.000 Cl
ATOM      4  N   UNL     1       2.533   2.487  19.434  0.00  0.00    +0.000 NA
ATOM      5  C   UNL     1       3.465   2.151  18.556  0.00  0.00    +0.000 A 
ATOM      6  N   UNL     1       3.695   0.813  18.312  0.00  0.00    +0.000 N 
ATOM      7  N   UNL     1       4.189   3.022  17.857  0.00  0.00    +0.000 NA
ATOM      8  C   UNL     1       3.900   4.332  17.996  0.00  0.00    +0.000 A 
ATOM      9  H   UNL     1       2.893   0.258  18.575  0.00  0.00    +0.000 HD
ATOM     10  H   UNL     1       4.054   0.683  17.375  0.00  0.00    +0.000 HD
ENDROOT
BRANCH   1  16
ATOM     11  C   UNL     1      -0.055  11.676  18.524  0.00  0.00    +0.000 C 
ATOM     12  C   UNL     1       0.633  10.416  18.966  0.00  0.00    +0.000 A 
ATOM     13  C   UNL     1       1.193   9.546  18.041  0.00  0.00    +0.000 A 
ATOM     14  C   UNL     1       1.740   8.349  18.530  0.00  0.00    +0.000 A 
ATOM     15  C   UNL     1       2.360   7.222  17.921  0.00  0.00    +0.000 A 
ATOM     16  C   UNL     1       2.531   6.255  18.891  0.00  0.00    +0.000 A 
ATOM     17  O   UNL     1       2.193   6.807  20.124  0.00  0.00    +0.000 OA
ATOM     18  C   UNL     1       1.713   8.091  19.896  0.00  0.00    +0.000 A 
ATOM     19  C   UNL     1       1.224   9.041  20.815  0.00  0.00    +0.000 A 
ATOM     20  C   UNL     1       1.253   8.964  22.303  0.00  0.00    +0.000 C 
ATOM     21  N   UNL     1       0.679  10.189  20.295  0.00  0.00    +0.000 NA
ENDBRANCH   1  16
BRANCH   8  22
ATOM     22  N   UNL     1       4.721   5.219  17.306  0.00  0.00    +0.000 N 
ATOM     23  H   UNL     1       4.135   5.690  16.615  0.00  0.00    +0.000 HD
BRANCH  22  24
ATOM     24  C   UNL     1       6.019   4.815  16.737  0.00  0.00    +0.000 C 
ATOM     25  C   UNL     1       7.079   4.467  17.811  0.00  0.00    +0.000 C 
ATOM     26  C   UNL     1       7.789   5.787  18.190  0.00  0.00    +0.000 C 
ATOM     27  C   UNL     1       7.083   6.857  17.354  0.00  0.00    +0.000 C 
ATOM     28  C   UNL     1       6.622   6.089  16.099  0.00  0.00    +0.000 C 
BRANCH  27  29
ATOM     29  O   UNL     1       7.947   7.941  17.071  0.00  0.00    +0.000 OA
ATOM     30  H   UNL     1       7.415   8.756  17.091  0.00  0.00    +0.000 HD
ENDBRANCH  27  29
BRANCH  28  31
ATOM     31  O   UNL     1       7.689   5.806  15.194  0.00  0.00    +0.000 OA
ATOM     32  H   UNL     1       8.342   6.527  15.227  0.00  0.00    +0.000 HD
ENDBRANCH  28  31
BRANCH  26  33
ATOM     33  C   UNL     1       7.799   6.067  19.692  0.00  0.00    +0.000 C 
BRANCH  33  34
ATOM     34  O   UNL     1       8.581   5.133  20.423  0.00  0.00    +0.000 OA
ATOM     35  H   UNL     1       9.431   5.007  19.970  0.00  0.00    +0.000 HD
ENDBRANCH  33  34
ENDBRANCH  26  33
ENDBRANCH  22  24
ENDBRANCH   8  22
TORSDOF 7
ENDMDL
MODEL 4
REMARK VINA RESULT:      -8.6      1.165      2.204
REMARK  Name = 
REMARK  9 active torsions:
REMARK  status: ('A' for Active; 'I' for Inactive)
REMARK    1  A    between atoms: C_1  and  C_2
REMARK    2  A    between atoms: C_6  and  C_7
REMARK    3  A    between atoms: C_14  and  N_15
REMARK    4  A    between atoms: N_15  and  C_16
REMARK    5  A    between atoms: C_18  and  C_19
REMARK    6  A    between atoms: C_19  and  O_20
REMARK    7  A    between atoms: C_21  and  O_22
REMARK    8  A    between atoms: C_23  and  O_24
REMARK    9  A    between atoms: C_27  and  C_28
REMARK                            x       y       z     vdW  Elec       q    Type
REMARK                         _______ _______ _______ _____ _____    ______ ____
ROOT
ATOM      1  C   UNL     1       3.058   5.215  19.361  0.00  0.00    +0.000 A 
ATOM      2  C   UNL     1       2.277   4.101  19.557  0.00  0.00    +0.000 A 
ATOM      3 CL   UNL     1       0.634   4.199  20.093  0.00  0.00    +0.000 Cl
ATOM      4  N   UNL     1       2.697   2.815  19.488  0.00  0.00    +0.000 NA
ATOM      5  C   UNL     1       3.987   2.636  19.251  0.00  0.00    +0.000 A 
ATOM      6  N   UNL     1       4.454   1.352  19.061  0.00  0.00    +0.000 N 
ATOM      7  N   UNL     1       4.878   3.620  19.153  0.00  0.00    +0.000 NA
ATOM      8  C   UNL     1       4.422   4.887  19.221  0.00  0.00    +0.000 A 
ATOM      9  H   UNL     1       3.703   0.735  18.783  0.00  0.00    +0.000 HD
ATOM     10  H   UNL     1       5.279   1.360  18.475  0.00  0.00    +0.000 HD
ENDROOT
BRANCH   1  16
ATOM     11  C   UNL     1      -0.452  11.758  18.637  0.00  0.00    +0.000 C 
ATOM     12  C   UNL     1       0.313  10.581  19.169  0.00  0.00    +0.000 A 
ATOM     13  C   UNL     1       1.024   9.747  18.317  0.00  0.00    +0.000 A 
ATOM     14  C   UNL     1       1.640   8.619  18.882  0.00  0.00    +0.000 A 
ATOM     15  C   UNL     1       2.409   7.543  18.357  0.00  0.00    +0.000 A 
ATOM     16  C   UNL     1       2.592   6.619  19.366  0.00  0.00    +0.000 A 
ATOM     17  O   UNL     1       2.108   7.165  20.553  0.00  0.00    +0.000 OA
ATOM     18  C   UNL     1       1.529   8.391  20.249  0.00  0.00    +0.000 A 
ATOM     19  C   UNL     1       0.882   9.311  21.098  0.00  0.00    +0.000 A 
ATOM     20  C   UNL     1       0.801   9.272  22.586  0.00  0.00    +0.000 C 
ATOM     21  N   UNL     1       0.275  10.390  20.504  0.00  0.00    +0.000 NA
ENDBRANCH   1  16
BRANCH   8  22
ATOM     22  N   UNL     1       5.388   5.889  19.185  0.00  0.00    +0.000 N 
ATOM     23  H   UNL     1       5.219   6.494  19.990  0.00  0.00    +0.000 HD
BRANCH  22  24
ATOM     24  C   UNL     1       5.673   6.668  17.967  0.00  0.00    +0.000 C 
ATOM     25  C   UNL     1       4.854   6.208  16.737  0.00  0.00    +0.000 C 
ATOM     26  C   UNL     1       5.657   5.075  16.057  0.00  0.00    +0.000 C 
ATOM     27  C   UNL     1       6.889   4.892  16.945  0.00  0.00    +0.000 C 
ATOM     28  C   UNL     1       7.114   6.294  17.546  0.00  0.00    +0.000 C 
BRANCH  27  29
ATOM     29  O   UNL     1       7.992   4.409  16.201  0.00  0.00    +0.000 OA
ATOM     30  H   UNL     1       7.710   3.592  15.752  0.00  0.00    +0.000 HD
ENDBRANCH  27  29
BRANCH  28  31
ATOM     31  O   UNL     1       7.678   7.217  16.614  0.00  0.00    +0.000 OA
ATOM     32  H   UNL     1       7.364   8.115  16.817  0.00  0.00    +0.000 HD
ENDBRANCH  28  31
BRANCH  26  33
ATOM     33  C   UNL     1       4.846   3.799  15.834  0.00  0.00    +0.000 C 
BRANCH  33  34
ATOM     34  O   UNL     1       5.530   2.628  16.260  0.00  0.00    +0.000 OA
ATOM     35  H   UNL     1       5.538   1.984  15.533  0.00  0.00    +0.000 HD
ENDBRANCH  33  34
ENDBRANCH  26  33
ENDBRANCH  22  24
ENDBRANCH   8  22
TORSDOF 7
ENDMDL
MODEL 5
REMARK VINA RESULT:      -8.5      2.971      4.984
REMARK  Name = 
REMARK  9 active torsions:
REMARK  status: ('A' for Active; 'I' for Inactive)
REMARK    1  A    between atoms: C_1  and  C_2
REMARK    2  A    between atoms: C_6  and  C_7
REMARK    3  A    between atoms: C_14  and  N_15
REMARK    4  A    between atoms: N_15  and  C_16
REMARK    5  A    between atoms: C_18  and  C_19
REMARK    6  A    between atoms: C_19  and  O_20
REMARK    7  A    between atoms: C_21  and  O_22
REMARK    8  A    between atoms: C_23  and  O_24
REMARK    9  A    between atoms: C_27  and  C_28
REMARK                            x       y       z     vdW  Elec       q    Type
REMARK                         _______ _______ _______ _____ _____    ______ ____
ROOT
ATOM      1  C   UNL     1       4.028   5.727  17.618  0.00  0.00    +0.000 A 
ATOM      2  C   UNL     1       5.217   6.233  17.146  0.00  0.00    +0.000 A 
ATOM      3 CL   UNL     1       5.644   7.902  17.301  0.00  0.00    +0.000 Cl
ATOM      4  N   UNL     1       6.130   5.557  16.409  0.00  0.00    +0.000 NA
ATOM      5  C   UNL     1       5.814   4.311  16.088  0.00  0.00    +0.000 A 
ATOM      6  N   UNL     1       6.749   3.538  15.434  0.00  0.00    +0.000 N 
ATOM      7  N   UNL     1       4.652   3.731  16.380  0.00  0.00    +0.000 NA
ATOM      8  C   UNL     1       3.769   4.433  17.120  0.00  0.00    +0.000 A 
ATOM      9  H   UNL     1       7.681   3.899  15.583  0.00  0.00    +0.000 HD
ATOM     10  H   UNL     1       6.600   2.558  15.637  0.00  0.00    +0.000 HD
ENDROOT
BRANCH   1  16
ATOM     11  C   UNL     1       0.326   9.590  22.816  0.00  0.00    +0.000 C 
ATOM     12  C   UNL     1       0.834   9.037  21.515  0.00  0.00    +0.000 A 
ATOM     13  C   UNL     1       1.404   7.773  21.449  0.00  0.00    +0.000 A 
ATOM     14  C   UNL     1       1.932   7.366  20.214  0.00  0.00    +0.000 A 
ATOM     15  C   UNL     1       2.603   6.196  19.761  0.00  0.00    +0.000 A 
ATOM     16  C   UNL     1       3.059   6.436  18.481  0.00  0.00    +0.000 A 
ATOM     17  O   UNL     1       2.547   7.659  18.055  0.00  0.00    +0.000 OA
ATOM     18  C   UNL     1       1.855   8.222  19.121  0.00  0.00    +0.000 A 
ATOM     19  C   UNL     1       1.183   9.458  19.200  0.00  0.00    +0.000 A 
ATOM     20  C   UNL     1       0.902  10.412  18.090  0.00  0.00    +0.000 C 
ATOM     21  N   UNL     1       0.698   9.828  20.430  0.00  0.00    +0.000 NA
ENDBRANCH   1  16
BRANCH   8  22
ATOM     22  N   UNL     1       2.539   3.824  17.347  0.00  0.00    +0.000 N 
ATOM     23  H   UNL     1       2.045   4.397  18.033  0.00  0.00    +0.000 HD
BRANCH  22  24
ATOM     24  C   UNL     1       2.411   2.386  17.646  0.00  0.00    +0.000 C 
ATOM     25  C   UNL     1       1.345   2.075  18.724  0.00  0.00    +0.000 C 
ATOM     26  C   UNL     1       2.048   2.176  20.097  0.00  0.00    +0.000 C 
ATOM     27  C   UNL     1       3.484   2.587  19.764  0.00  0.00    +0.000 C 
ATOM     28  C   UNL     1       3.719   1.980  18.366  0.00  0.00    +0.000 C 
BRANCH  27  29
ATOM     29  O   UNL     1       4.392   2.121  20.745  0.00  0.00    +0.000 OA
ATOM     30  H   UNL     1       4.960   2.870  21.000  0.00  0.00    +0.000 HD
ENDBRANCH  27  29
BRANCH  28  31
ATOM     31  O   UNL     1       3.920   0.567  18.397  0.00  0.00    +0.000 OA
ATOM     32  H   UNL     1       3.827   0.207  17.498  0.00  0.00    +0.000 HD
ENDBRANCH  28  31
BRANCH  26  33
ATOM     33  C   UNL     1       1.339   3.106  21.080  0.00  0.00    +0.000 C 
BRANCH  33  34
ATOM     34  O   UNL     1       2.067   3.295  22.286  0.00  0.00    +0.000 OA
ATOM     35  H   UNL     1       2.681   4.039  22.173  0.00  0.00    +0.000 HD
ENDBRANCH  33  34
ENDBRANCH  26  33
ENDBRANCH  22  24
ENDBRANCH   8  22
TORSDOF 7
ENDMDL
MODEL 6
REMARK VINA RESULT:      -8.2      1.470      2.252
REMARK  Name = 
REMARK  9 active torsions:
REMARK  status: ('A' for Active; 'I' for Inactive)
REMARK    1  A    between atoms: C_1  and  C_2
REMARK    2  A    between atoms: C_6  and  C_7
REMARK    3  A    between atoms: C_14  and  N_15
REMARK    4  A    between atoms: N_15  and  C_16
REMARK    5  A    between atoms: C_18  and  C_19
REMARK    6  A    between atoms: C_19  and  O_20
REMARK    7  A    between atoms: C_21  and  O_22
REMARK    8  A    between atoms: C_23  and  O_24
REMARK    9  A    between atoms: C_27  and  C_28
REMARK                            x       y       z     vdW  Elec       q    Type
REMARK                         _______ _______ _______ _____ _____    ______ ____
ROOT
ATOM      1  C   UNL     1       2.940   4.820  18.969  0.00  0.00    +0.000 A 
ATOM      2  C   UNL     1       2.721   3.893  19.960  0.00  0.00    +0.000 A 
ATOM      3 CL   UNL     1       2.170   4.335  21.540  0.00  0.00    +0.000 Cl
ATOM      4  N   UNL     1       3.012   2.573  19.891  0.00  0.00    +0.000 NA
ATOM      5  C   UNL     1       3.601   2.164  18.777  0.00  0.00    +0.000 A 
ATOM      6  N   UNL     1       3.823   0.814  18.603  0.00  0.00    +0.000 N 
ATOM      7  N   UNL     1       3.974   2.968  17.785  0.00  0.00    +0.000 NA
ATOM      8  C   UNL     1       3.662   4.275  17.886  0.00  0.00    +0.000 A 
ATOM      9  H   UNL     1       3.203   0.270  19.187  0.00  0.00    +0.000 HD
ATOM     10  H   UNL     1       3.841   0.584  17.617  0.00  0.00    +0.000 HD
ENDROOT
BRANCH   1  16
ATOM     11  C   UNL     1      -0.225  11.562  18.533  0.00  0.00    +0.000 C 
ATOM     12  C   UNL     1       0.513  10.339  19.000  0.00  0.00    +0.000 A 
ATOM     13  C   UNL     1       1.096   9.466  18.091  0.00  0.00    +0.000 A 
ATOM     14  C   UNL     1       1.691   8.303  18.604  0.00  0.00    +0.000 A 
ATOM     15  C   UNL     1       2.346   7.184  18.018  0.00  0.00    +0.000 A 
ATOM     16  C   UNL     1       2.561   6.249  19.010  0.00  0.00    +0.000 A 
ATOM     17  O   UNL     1       2.215   6.820  20.232  0.00  0.00    +0.000 OA
ATOM     18  C   UNL     1       1.686   8.079  19.976  0.00  0.00    +0.000 A 
ATOM     19  C   UNL     1       1.171   9.034  20.876  0.00  0.00    +0.000 A 
ATOM     20  C   UNL     1       1.218   8.997  22.365  0.00  0.00    +0.000 C 
ATOM     21  N   UNL     1       0.580  10.148  20.334  0.00  0.00    +0.000 NA
ENDBRANCH   1  16
BRANCH   8  22
ATOM     22  N   UNL     1       4.128   5.099  16.865  0.00  0.00    +0.000 N 
ATOM     23  H   UNL     1       4.336   4.496  16.067  0.00  0.00    +0.000 HD
BRANCH  22  24
ATOM     24  C   UNL     1       5.185   6.103  17.080  0.00  0.00    +0.000 C 
ATOM     25  C   UNL     1       5.948   6.478  15.786  0.00  0.00    +0.000 C 
ATOM     26  C   UNL     1       7.107   5.465  15.635  0.00  0.00    +0.000 C 
ATOM     27  C   UNL     1       6.942   4.514  16.822  0.00  0.00    +0.000 C 
ATOM     28  C   UNL     1       6.287   5.396  17.904  0.00  0.00    +0.000 C 
BRANCH  27  29
ATOM     29  O   UNL     1       8.186   3.964  17.215  0.00  0.00    +0.000 OA
ATOM     30  H   UNL     1       8.779   3.995  16.444  0.00  0.00    +0.000 HD
ENDBRANCH  27  29
BRANCH  28  31
ATOM     31  O   UNL     1       7.201   6.310  18.509  0.00  0.00    +0.000 OA
ATOM     32  H   UNL     1       6.710   6.939  19.067  0.00  0.00    +0.000 HD
ENDBRANCH  28  31
BRANCH  26  33
ATOM     33  C   UNL     1       7.139   4.772  14.274  0.00  0.00    +0.000 C 
BRANCH  33  34
ATOM     34  O   UNL     1       6.381   3.570  14.247  0.00  0.00    +0.000 OA
ATOM     35  H   UNL     1       6.213   3.282  15.160  0.00  0.00    +0.000 HD
ENDBRANCH  33  34
ENDBRANCH  26  33
ENDBRANCH  22  24
ENDBRANCH   8  22
TORSDOF 7
ENDMDL
MODEL 7
REMARK VINA RESULT:      -8.1      1.461      2.454
REMARK  Name = 
REMARK  9 active torsions:
REMARK  status: ('A' for Active; 'I' for Inactive)
REMARK    1  A    between atoms: C_1  and  C_2
REMARK    2  A    between atoms: C_6  and  C_7
REMARK    3  A    between atoms: C_14  and  N_15
REMARK    4  A    between atoms: N_15  and  C_16
REMARK    5  A    between atoms: C_18  and  C_19
REMARK    6  A    between atoms: C_19  and  O_20
REMARK    7  A    between atoms: C_21  and  O_22
REMARK    8  A    between atoms: C_23  and  O_24
REMARK    9  A    between atoms: C_27  and  C_28
REMARK                            x       y       z     vdW  Elec       q    Type
REMARK                         _______ _______ _______ _____ _____    ______ ____
ROOT
ATOM      1  C   UNL     1       2.590   4.177  19.556  0.00  0.00    +0.000 A 
ATOM      2  C   UNL     1       2.279   2.995  20.186  0.00  0.00    +0.000 A 
ATOM      3 CL   UNL     1       1.271   2.928  21.591  0.00  0.00    +0.000 Cl
ATOM      4  N   UNL     1       2.796   1.779  19.892  0.00  0.00    +0.000 NA
ATOM      5  C   UNL     1       3.713   1.751  18.937  0.00  0.00    +0.000 A 
ATOM      6  N   UNL     1       4.196   0.529  18.518  0.00  0.00    +0.000 N 
ATOM      7  N   UNL     1       4.192   2.829  18.322  0.00  0.00    +0.000 NA
ATOM      8  C   UNL     1       3.649   4.023  18.637  0.00  0.00    +0.000 A 
ATOM      9  H   UNL     1       3.546  -0.210  18.745  0.00  0.00    +0.000 HD
ATOM     10  H   UNL     1       4.508   0.585  17.557  0.00  0.00    +0.000 HD
ENDROOT
BRANCH   1  16
ATOM     11  C   UNL     1       0.596  10.967  21.917  0.00  0.00    +0.000 C 
ATOM     12  C   UNL     1       0.920   9.769  21.071  0.00  0.00    +0.000 A 
ATOM     13  C   UNL     1       0.839   8.484  21.590  0.00  0.00    +0.000 A 
ATOM     14  C   UNL     1       1.242   7.426  20.761  0.00  0.00    +0.000 A 
ATOM     15  C   UNL     1       1.333   6.016  20.928  0.00  0.00    +0.000 A 
ATOM     16  C   UNL     1       1.980   5.497  19.825  0.00  0.00    +0.000 A 
ATOM     17  O   UNL     1       2.144   6.519  18.893  0.00  0.00    +0.000 OA
ATOM     18  C   UNL     1       1.687   7.697  19.472  0.00  0.00    +0.000 A 
ATOM     19  C   UNL     1       1.665   9.004  18.945  0.00  0.00    +0.000 A 
ATOM     20  C   UNL     1       1.980   9.427  17.551  0.00  0.00    +0.000 C 
ATOM     21  N   UNL     1       1.283  10.013  19.794  0.00  0.00    +0.000 NA
ENDBRANCH   1  16
BRANCH   8  22
ATOM     22  N   UNL     1       4.219   5.137  18.027  0.00  0.00    +0.000 N 
ATOM     23  H   UNL     1       3.461   5.793  17.835  0.00  0.00    +0.000 HD
BRANCH  22  24
ATOM     24  C   UNL     1       5.146   5.026  16.886  0.00  0.00    +0.000 C 
ATOM     25  C   UNL     1       6.583   4.625  17.299  0.00  0.00    +0.000 C 
ATOM     26  C   UNL     1       7.339   5.932  17.632  0.00  0.00    +0.000 C 
ATOM     27  C   UNL     1       6.297   7.037  17.444  0.00  0.00    +0.000 C 
ATOM     28  C   UNL     1       5.357   6.467  16.363  0.00  0.00    +0.000 C 
BRANCH  27  29
ATOM     29  O   UNL     1       6.906   8.261  17.079  0.00  0.00    +0.000 OA
ATOM     30  H   UNL     1       6.424   8.977  17.530  0.00  0.00    +0.000 HD
ENDBRANCH  27  29
BRANCH  28  31
ATOM     31  O   UNL     1       5.923   6.505  15.053  0.00  0.00    +0.000 OA
ATOM     32  H   UNL     1       5.500   5.828  14.497  0.00  0.00    +0.000 HD
ENDBRANCH  28  31
BRANCH  26  33
ATOM     33  C   UNL     1       8.002   5.921  19.009  0.00  0.00    +0.000 C 
BRANCH  33  34
ATOM     34  O   UNL     1       7.181   5.341  20.013  0.00  0.00    +0.000 OA
ATOM     35  H   UNL     1       7.172   5.925  20.791  0.00  0.00    +0.000 HD
ENDBRANCH  33  34
ENDBRANCH  26  33
ENDBRANCH  22  24
ENDBRANCH   8  22
TORSDOF 7
ENDMDL
MODEL 8
REMARK VINA RESULT:      -7.9      1.524      2.456
REMARK  Name = 
REMARK  9 active torsions:
REMARK  status: ('A' for Active; 'I' for Inactive)
REMARK    1  A    between atoms: C_1  and  C_2
REMARK    2  A    between atoms: C_6  and  C_7
REMARK    3  A    between atoms: C_14  and  N_15
REMARK    4  A    between atoms: N_15  and  C_16
REMARK    5  A    between atoms: C_18  and  C_19
REMARK    6  A    between atoms: C_19  and  O_20
REMARK    7  A    between atoms: C_21  and  O_22
REMARK    8  A    between atoms: C_23  and  O_24
REMARK    9  A    between atoms: C_27  and  C_28
REMARK                            x       y       z     vdW  Elec       q    Type
REMARK                         _______ _______ _______ _____ _____    ______ ____
ROOT
ATOM      1  C   UNL     1       2.610   4.187  19.491  0.00  0.00    +0.000 A 
ATOM      2  C   UNL     1       2.328   2.998  20.121  0.00  0.00    +0.000 A 
ATOM      3 CL   UNL     1       1.354   2.910  21.549  0.00  0.00    +0.000 Cl
ATOM      4  N   UNL     1       2.850   1.789  19.806  0.00  0.00    +0.000 NA
ATOM      5  C   UNL     1       3.745   1.778  18.830  0.00  0.00    +0.000 A 
ATOM      6  N   UNL     1       4.231   0.564  18.391  0.00  0.00    +0.000 N 
ATOM      7  N   UNL     1       4.196   2.865  18.210  0.00  0.00    +0.000 NA
ATOM      8  C   UNL     1       3.648   4.051  18.546  0.00  0.00    +0.000 A 
ATOM      9  H   UNL     1       3.595  -0.184  18.628  0.00  0.00    +0.000 HD
ATOM     10  H   UNL     1       4.519   0.629  17.423  0.00  0.00    +0.000 HD
ENDROOT
BRANCH   1  16
ATOM     11  C   UNL     1       0.586  10.930  21.959  0.00  0.00    +0.000 C 
ATOM     12  C   UNL     1       0.911   9.746  21.094  0.00  0.00    +0.000 A 
ATOM     13  C   UNL     1       0.846   8.454  21.599  0.00  0.00    +0.000 A 
ATOM     14  C   UNL     1       1.249   7.409  20.752  0.00  0.00    +0.000 A 
ATOM     15  C   UNL     1       1.354   5.998  20.901  0.00  0.00    +0.000 A 
ATOM     16  C   UNL     1       1.992   5.498  19.784  0.00  0.00    +0.000 A 
ATOM     17  O   UNL     1       2.136   6.533  18.863  0.00  0.00    +0.000 OA
ATOM     18  C   UNL     1       1.677   7.700  19.462  0.00  0.00    +0.000 A 
ATOM     19  C   UNL     1       1.636   9.012  18.951  0.00  0.00    +0.000 A 
ATOM     20  C   UNL     1       1.931   9.455  17.558  0.00  0.00    +0.000 C 
ATOM     21  N   UNL     1       1.256  10.008  19.816  0.00  0.00    +0.000 NA
ENDBRANCH   1  16
BRANCH   8  22
ATOM     22  N   UNL     1       4.191   5.175  17.930  0.00  0.00    +0.000 N 
ATOM     23  H   UNL     1       4.440   4.902  16.978  0.00  0.00    +0.000 HD
BRANCH  22  24
ATOM     24  C   UNL     1       5.249   5.987  18.558  0.00  0.00    +0.000 C 
ATOM     25  C   UNL     1       6.007   6.890  17.556  0.00  0.00    +0.000 C 
ATOM     26  C   UNL     1       7.165   6.048  16.973  0.00  0.00    +0.000 C 
ATOM     27  C   UNL     1       7.006   4.673  17.628  0.00  0.00    +0.000 C 
ATOM     28  C   UNL     1       6.355   4.993  18.988  0.00  0.00    +0.000 C 
BRANCH  27  29
ATOM     29  O   UNL     1       8.251   4.009  17.737  0.00  0.00    +0.000 OA
ATOM     30  H   UNL     1       8.777   4.476  18.411  0.00  0.00    +0.000 HD
ENDBRANCH  27  29
BRANCH  28  31
ATOM     31  O   UNL     1       7.270   5.554  19.928  0.00  0.00    +0.000 OA
ATOM     32  H   UNL     1       7.185   6.523  19.926  0.00  0.00    +0.000 HD
ENDBRANCH  28  31
BRANCH  26  33
ATOM     33  C   UNL     1       7.193   6.018  15.446  0.00  0.00    +0.000 C 
BRANCH  33  34
ATOM     34  O   UNL     1       7.456   4.723  14.923  0.00  0.00    +0.000 OA
ATOM     35  H   UNL     1       7.464   4.082  15.654  0.00  0.00    +0.000 HD
ENDBRANCH  33  34
ENDBRANCH  26  33
ENDBRANCH  22  24
ENDBRANCH   8  22
TORSDOF 7
ENDMDL
MODEL 9
REMARK VINA RESULT:      -7.8      2.910      4.722
REMARK  Name = 
REMARK  9 active torsions:
REMARK  status: ('A' for Active; 'I' for Inactive)
REMARK    1  A    between atoms: C_1  and  C_2
REMARK    2  A    between atoms: C_6  and  C_7
REMARK    3  A    between atoms: C_14  and  N_15
REMARK    4  A    between atoms: N_15  and  C_16
REMARK    5  A    between atoms: C_18  and  C_19
REMARK    6  A    between atoms: C_19  and  O_20
REMARK    7  A    between atoms: C_21  and  O_22
REMARK    8  A    between atoms: C_23  and  O_24
REMARK    9  A    between atoms: C_27  and  C_28
REMARK                            x       y       z     vdW  Elec       q    Type
REMARK                         _______ _______ _______ _____ _____    ______ ____
ROOT
ATOM      1  C   UNL     1       4.009   6.598  18.203  0.00  0.00    +0.000 A 
ATOM      2  C   UNL     1       4.861   6.505  17.128  0.00  0.00    +0.000 A 
ATOM      3 CL   UNL     1       4.675   7.474  15.707  0.00  0.00    +0.000 Cl
ATOM      4  N   UNL     1       5.851   5.593  16.977  0.00  0.00    +0.000 NA
ATOM      5  C   UNL     1       5.964   4.691  17.940  0.00  0.00    +0.000 A 
ATOM      6  N   UNL     1       7.020   3.805  17.896  0.00  0.00    +0.000 N 
ATOM      7  N   UNL     1       5.139   4.592  18.978  0.00  0.00    +0.000 NA
ATOM      8  C   UNL     1       4.169   5.521  19.100  0.00  0.00    +0.000 A 
ATOM      9  H   UNL     1       7.770   4.169  17.326  0.00  0.00    +0.000 HD
ATOM     10  H   UNL     1       7.262   3.499  18.830  0.00  0.00    +0.000 HD
ENDROOT
BRANCH   1  16
ATOM     11  C   UNL     1      -2.115  10.844  18.565  0.00  0.00    +0.000 C 
ATOM     12  C   UNL     1      -0.836  10.122  18.882  0.00  0.00    +0.000 A 
ATOM     13  C   UNL     1       0.039   9.744  17.874  0.00  0.00    +0.000 A 
ATOM     14  C   UNL     1       1.169   8.998  18.245  0.00  0.00    +0.000 A 
ATOM     15  C   UNL     1       2.251   8.415  17.529  0.00  0.00    +0.000 A 
ATOM     16  C   UNL     1       2.972   7.633  18.408  0.00  0.00    +0.000 A 
ATOM     17  O   UNL     1       2.474   7.844  19.691  0.00  0.00    +0.000 OA
ATOM     18  C   UNL     1       1.371   8.683  19.584  0.00  0.00    +0.000 A 
ATOM     19  C   UNL     1       0.513   9.167  20.592  0.00  0.00    +0.000 A 
ATOM     20  C   UNL     1       0.676   9.029  22.067  0.00  0.00    +0.000 C 
ATOM     21  N   UNL     1      -0.590   9.876  20.186  0.00  0.00    +0.000 NA
ENDBRANCH   1  16
BRANCH   8  22
ATOM     22  N   UNL     1       3.282   5.348  20.158  0.00  0.00    +0.000 N 
ATOM     23  H   UNL     1       3.417   6.135  20.793  0.00  0.00    +0.000 HD
BRANCH  22  24
ATOM     24  C   UNL     1       3.161   4.073  20.888  0.00  0.00    +0.000 C 
ATOM     25  C   UNL     1       3.552   2.839  20.039  0.00  0.00    +0.000 C 
ATOM     26  C   UNL     1       2.282   2.389  19.282  0.00  0.00    +0.000 C 
ATOM     27  C   UNL     1       1.213   3.407  19.686  0.00  0.00    +0.000 C 
ATOM     28  C   UNL     1       1.645   3.843  21.100  0.00  0.00    +0.000 C 
BRANCH  27  29
ATOM     29  O   UNL     1      -0.082   2.839  19.637  0.00  0.00    +0.000 OA
ATOM     30  H   UNL     1      -0.262   2.593  18.713  0.00  0.00    +0.000 HD
ENDBRANCH  27  29
BRANCH  28  31
ATOM     31  O   UNL     1       1.367   2.860  22.097  0.00  0.00    +0.000 OA
ATOM     32  H   UNL     1       0.850   2.135  21.703  0.00  0.00    +0.000 HD
ENDBRANCH  28  31
BRANCH  26  33
ATOM     33  C   UNL     1       2.484   2.254  17.774  0.00  0.00    +0.000 C 
BRANCH  33  34
ATOM     34  O   UNL     1       1.942   3.347  17.043  0.00  0.00    +0.000 OA
ATOM     35  H   UNL     1       0.983   3.383  17.195  0.00  0.00    +0.000 HD
ENDBRANCH  33  34
ENDBRANCH  26  33
ENDBRANCH  22  24
ENDBRANCH   8  22
TORSDOF 7
ENDMDL
