MODEL 1
REMARK VINA RESULT:      -8.2      0.000      0.000
REMARK  Name = 
REMARK  13 active torsions:
REMARK  status: ('A' for Active; 'I' for Inactive)
REMARK    1  A    between atoms: C_1  and  O_2
REMARK    2  A    between atoms: O_2  and  C_3
REMARK    3  A    between atoms: C_7  and  C_8
REMARK    4  A    between atoms: C_8  and  O_9
REMARK    5  A    between atoms: C_8  and  C_13
REMARK    6  A    between atoms: O_9  and  C_10
REMARK    7  A    between atoms: C_10  and  C_11
REMARK    8  A    between atoms: C_18  and  O_19
REMARK    9  A    between atoms: O_19  and  C_20
REMARK   10  A    between atoms: C_23  and  C_24
REMARK   11  A    between atoms: C_23  and  C_25
REMARK   12  A    between atoms: C_30  and  O_31
REMARK   13  A    between atoms: O_31  and  C_32
REMARK                            x       y       z     vdW  Elec       q    Type
REMARK                         _______ _______ _______ _____ _____    ______ ____
ROOT
ATOM      1  C   UNL     1       6.505   6.459  16.718  0.00  0.00    +0.000 C 
ENDROOT
BRANCH   1   2
ATOM      2  C   UNL     1       5.603   5.674  17.729  0.00  0.00    +0.000 A 
ATOM      3  C   UNL     1       6.188   4.634  18.475  0.00  0.00    +0.000 A 
ATOM      4  C   UNL     1       5.442   3.870  19.375  0.00  0.00    +0.000 A 
ATOM      5  C   UNL     1       4.080   4.116  19.544  0.00  0.00    +0.000 A 
ATOM      6  C   UNL     1       3.442   5.184  18.877  0.00  0.00    +0.000 A 
ATOM      7  C   UNL     1       4.210   5.958  17.946  0.00  0.00    +0.000 A 
ATOM      8  C   UNL     1       2.046   5.414  19.269  0.00  0.00    +0.000 C 
ATOM      9  C   UNL     1       1.362   4.437  19.874  0.00  0.00    +0.000 C 
ATOM     10  C   UNL     1       2.011   3.138  20.257  0.00  0.00    +0.000 C 
ATOM     11  C   UNL     1       1.732   2.055  19.207  0.00  0.00    +0.000 C 
ATOM     12  C   UNL     1       1.440   2.701  21.614  0.00  0.00    +0.000 C 
ATOM     13  O   UNL     1       3.439   3.270  20.424  0.00  0.00    +0.000 OA
BRANCH   7  14
ATOM     14  O   UNL     1       3.782   7.057  17.246  0.00  0.00    +0.000 OA
ATOM     15  C   UNL     1       3.025   8.100  17.847  0.00  0.00    +0.000 C 
ENDBRANCH   7  14
ENDBRANCH   1   2
BRANCH   1  20
ATOM     16  C   UNL     1       9.617  10.956  19.412  0.00  0.00    +0.000 A 
ATOM     17  C   UNL     1       9.302   9.596  19.585  0.00  0.00    +0.000 A 
ATOM     18  C   UNL     1       8.505   8.954  18.639  0.00  0.00    +0.000 A 
ATOM     19  C   UNL     1       8.184   7.613  18.388  0.00  0.00    +0.000 A 
ATOM     20  C   UNL     1       7.301   7.590  17.325  0.00  0.00    +0.000 A 
ATOM     21  O   UNL     1       7.107   8.874  16.874  0.00  0.00    +0.000 OA
ATOM     22  C   UNL     1       7.888   9.691  17.645  0.00  0.00    +0.000 A 
ATOM     23  C   UNL     1       8.103  11.054  17.489  0.00  0.00    +0.000 A 
ATOM     24  C   UNL     1       9.012  11.684  18.368  0.00  0.00    +0.000 A 
BRANCH  16  26
ATOM     25  C   UNL     1      10.069  12.258  21.317  0.00  0.00    +0.000 C 
ATOM     26  O   UNL     1      10.595  11.478  20.227  0.00  0.00    +0.000 OA
ENDBRANCH  16  26
BRANCH  24  27
ATOM     27  O   UNL     1       9.252  12.972  17.964  0.00  0.00    +0.000 OA
ATOM     28  C   UNL     1       8.447  14.013  18.482  0.00  0.00    +0.000 C 
ENDBRANCH  24  27
ENDBRANCH   1  20
BRANCH   1  29
ATOM     29  O   UNL     1       7.459   5.520  16.064  0.00  0.00    +0.000 OA
BRANCH  29  30
ATOM     30  C   UNL     1       7.249   5.075  14.770  0.00  0.00    +0.000 C 
ATOM     31  C   UNL     1       6.127   4.056  14.652  0.00  0.00    +0.000 C 
ATOM     32  O   UNL     1       7.789   5.501  13.785  0.00  0.00    +0.000 OA
ENDBRANCH  29  30
ENDBRANCH   1  29
TORSDOF 7
ENDMDL
MODEL 2
REMARK VINA RESULT:      -7.9      4.303      7.317
REMARK  Name = 
REMARK  13 active torsions:
REMARK  status: ('A' for Active; 'I' for Inactive)
REMARK    1  A    between atoms: C_1  and  O_2
REMARK    2  A    between atoms: O_2  and  C_3
REMARK    3  A    between atoms: C_7  and  C_8
REMARK    4  A    between atoms: C_8  and  O_9
REMARK    5  A    between atoms: C_8  and  C_13
REMARK    6  A    between atoms: O_9  and  C_10
REMARK    7  A    between atoms: C_10  and  C_11
REMARK    8  A    between atoms: C_18  and  O_19
REMARK    9  A    between atoms: O_19  and  C_20
REMARK   10  A    between atoms: C_23  and  C_24
REMARK   11  A    between atoms: C_23  and  C_25
REMARK   12  A    between atoms: C_30  and  O_31
REMARK   13  A    between atoms: O_31  and  C_32
REMARK                            x       y       z     vdW  Elec       q    Type
REMARK                         _______ _______ _______ _____ _____    ______ ____
ROOT
ATOM      1  C   UNL     1       2.589   6.062  19.852  0.00  0.00    +0.000 C 
ENDROOT
BRANCH   1   2
ATOM      2  C   UNL     1       3.561   6.037  18.627  0.00  0.00    +0.000 A 
ATOM      3  C   UNL     1       3.381   6.997  17.613  0.00  0.00    +0.000 A 
ATOM      4  C   UNL     1       4.191   7.021  16.476  0.00  0.00    +0.000 A 
ATOM      5  C   UNL     1       5.198   6.071  16.311  0.00  0.00    +0.000 A 
ATOM      6  C   UNL     1       5.477   5.119  17.315  0.00  0.00    +0.000 A 
ATOM      7  C   UNL     1       4.636   5.093  18.476  0.00  0.00    +0.000 A 
ATOM      8  C   UNL     1       6.660   4.286  17.070  0.00  0.00    +0.000 C 
ATOM      9  C   UNL     1       7.142   4.177  15.826  0.00  0.00    +0.000 C 
ATOM     10  C   UNL     1       6.566   4.963  14.684  0.00  0.00    +0.000 C 
ATOM     11  C   UNL     1       5.573   4.115  13.880  0.00  0.00    +0.000 C 
ATOM     12  C   UNL     1       7.724   5.402  13.776  0.00  0.00    +0.000 C 
ATOM     13  O   UNL     1       5.902   6.166  15.129  0.00  0.00    +0.000 OA
BRANCH   7  14
ATOM     14  O   UNL     1       4.779   4.281  19.573  0.00  0.00    +0.000 OA
ATOM     15  C   UNL     1       4.526   2.883  19.528  0.00  0.00    +0.000 C 
ENDBRANCH   7  14
ENDBRANCH   1   2
BRANCH   1  20
ATOM     16  C   UNL     1       0.007  11.410  21.230  0.00  0.00    +0.000 A 
ATOM     17  C   UNL     1       0.225  10.135  21.781  0.00  0.00    +0.000 A 
ATOM     18  C   UNL     1       0.915   9.179  21.036  0.00  0.00    +0.000 A 
ATOM     19  C   UNL     1       1.478   7.931  21.340  0.00  0.00    +0.000 A 
ATOM     20  C   UNL     1       2.004   7.418  20.169  0.00  0.00    +0.000 A 
ATOM     21  O   UNL     1       1.833   8.335  19.159  0.00  0.00    +0.000 OA
ATOM     22  C   UNL     1       1.219   9.427  19.710  0.00  0.00    +0.000 A 
ATOM     23  C   UNL     1       0.944  10.644  19.100  0.00  0.00    +0.000 A 
ATOM     24  C   UNL     1       0.361  11.661  19.890  0.00  0.00    +0.000 A 
BRANCH  16  26
ATOM     25  C   UNL     1      -1.502  11.928  22.958  0.00  0.00    +0.000 C 
ATOM     26  O   UNL     1      -0.455  12.387  22.084  0.00  0.00    +0.000 OA
ENDBRANCH  16  26
BRANCH  24  27
ATOM     27  O   UNL     1       0.329  12.844  19.196  0.00  0.00    +0.000 OA
ATOM     28  C   UNL     1      -0.694  13.050  18.242  0.00  0.00    +0.000 C 
ENDBRANCH  24  27
ENDBRANCH   1  20
BRANCH   1  29
ATOM     29  O   UNL     1       1.462   5.115  19.619  0.00  0.00    +0.000 OA
BRANCH  29  30
ATOM     30  C   UNL     1       1.338   3.955  20.363  0.00  0.00    +0.000 C 
ATOM     31  C   UNL     1       0.765   2.786  19.578  0.00  0.00    +0.000 C 
ATOM     32  O   UNL     1       1.734   3.796  21.487  0.00  0.00    +0.000 OA
ENDBRANCH  29  30
ENDBRANCH   1  29
TORSDOF 7
ENDMDL
MODEL 3
REMARK VINA RESULT:      -7.8      4.305      7.562
REMARK  Name = 
REMARK  13 active torsions:
REMARK  status: ('A' for Active; 'I' for Inactive)
REMARK    1  A    between atoms: C_1  and  O_2
REMARK    2  A    between atoms: O_2  and  C_3
REMARK    3  A    between atoms: C_7  and  C_8
REMARK    4  A    between atoms: C_8  and  O_9
REMARK    5  A    between atoms: C_8  and  C_13
REMARK    6  A    between atoms: O_9  and  C_10
REMARK    7  A    between atoms: C_10  and  C_11
REMARK    8  A    between atoms: C_18  and  O_19
REMARK    9  A    between atoms: O_19  and  C_20
REMARK   10  A    between atoms: C_23  and  C_24
REMARK   11  A    between atoms: C_23  and  C_25
REMARK   12  A    between atoms: C_30  and  O_31
REMARK   13  A    between atoms: O_31  and  C_32
REMARK                            x       y       z     vdW  Elec       q    Type
REMARK                         _______ _______ _______ _____ _____    ______ ____
ROOT
ATOM      1  C   UNL     1       2.599   6.142  19.843  0.00  0.00    +0.000 C 
ENDROOT
BRANCH   1   2
ATOM      2  C   UNL     1       3.569   6.101  18.616  0.00  0.00    +0.000 A 
ATOM      3  C   UNL     1       3.395   7.056  17.597  0.00  0.00    +0.000 A 
ATOM      4  C   UNL     1       4.203   7.066  16.458  0.00  0.00    +0.000 A 
ATOM      5  C   UNL     1       5.201   6.106  16.297  0.00  0.00    +0.000 A 
ATOM      6  C   UNL     1       5.473   5.158  17.307  0.00  0.00    +0.000 A 
ATOM      7  C   UNL     1       4.635   5.146  18.469  0.00  0.00    +0.000 A 
ATOM      8  C   UNL     1       6.649   4.313  17.064  0.00  0.00    +0.000 C 
ATOM      9  C   UNL     1       7.127   4.192  15.820  0.00  0.00    +0.000 C 
ATOM     10  C   UNL     1       6.556   4.976  14.674  0.00  0.00    +0.000 C 
ATOM     11  C   UNL     1       5.553   4.132  13.877  0.00  0.00    +0.000 C 
ATOM     12  C   UNL     1       7.716   5.399  13.761  0.00  0.00    +0.000 C 
ATOM     13  O   UNL     1       5.903   6.187  15.113  0.00  0.00    +0.000 OA
BRANCH   7  14
ATOM     14  O   UNL     1       4.773   4.340  19.571  0.00  0.00    +0.000 OA
ATOM     15  C   UNL     1       4.581   2.933  19.518  0.00  0.00    +0.000 C 
ENDBRANCH   7  14
ENDBRANCH   1   2
BRANCH   1  20
ATOM     16  C   UNL     1       0.056  11.628  20.620  0.00  0.00    +0.000 A 
ATOM     17  C   UNL     1       0.689  10.854  19.632  0.00  0.00    +0.000 A 
ATOM     18  C   UNL     1       1.126   9.568  19.948  0.00  0.00    +0.000 A 
ATOM     19  C   UNL     1       1.582   8.482  19.187  0.00  0.00    +0.000 A 
ATOM     20  C   UNL     1       1.917   7.472  20.068  0.00  0.00    +0.000 A 
ATOM     21  O   UNL     1       1.631   7.877  21.350  0.00  0.00    +0.000 OA
ATOM     22  C   UNL     1       1.097   9.135  21.261  0.00  0.00    +0.000 A 
ATOM     23  C   UNL     1       0.558   9.902  22.285  0.00  0.00    +0.000 A 
ATOM     24  C   UNL     1      -0.004  11.154  21.946  0.00  0.00    +0.000 A 
BRANCH  16  26
ATOM     25  C   UNL     1      -0.151  13.214  18.897  0.00  0.00    +0.000 C 
ATOM     26  O   UNL     1      -0.572  12.780  20.203  0.00  0.00    +0.000 OA
ENDBRANCH  16  26
BRANCH  24  27
ATOM     27  O   UNL     1      -0.654  11.693  23.026  0.00  0.00    +0.000 OA
ATOM     28  C   UNL     1      -2.067  11.666  23.058  0.00  0.00    +0.000 C 
ENDBRANCH  24  27
ENDBRANCH   1  20
BRANCH   1  29
ATOM     29  O   UNL     1       1.544   5.102  19.685  0.00  0.00    +0.000 OA
BRANCH  29  30
ATOM     30  C   UNL     1       1.473   4.020  20.544  0.00  0.00    +0.000 C 
ATOM     31  C   UNL     1       0.825   2.792  19.925  0.00  0.00    +0.000 C 
ATOM     32  O   UNL     1       1.961   3.961  21.641  0.00  0.00    +0.000 OA
ENDBRANCH  29  30
ENDBRANCH   1  29
TORSDOF 7
ENDMDL
MODEL 4
REMARK VINA RESULT:      -7.6      6.083      9.718
REMARK  Name = 
REMARK  13 active torsions:
REMARK  status: ('A' for Active; 'I' for Inactive)
REMARK    1  A    between atoms: C_1  and  O_2
REMARK    2  A    between atoms: O_2  and  C_3
REMARK    3  A    between atoms: C_7  and  C_8
REMARK    4  A    between atoms: C_8  and  O_9
REMARK    5  A    between atoms: C_8  and  C_13
REMARK    6  A    between atoms: O_9  and  C_10
REMARK    7  A    between atoms: C_10  and  C_11
REMARK    8  A    between atoms: C_18  and  O_19
REMARK    9  A    between atoms: O_19  and  C_20
REMARK   10  A    between atoms: C_23  and  C_24
REMARK   11  A    between atoms: C_23  and  C_25
REMARK   12  A    between atoms: C_30  and  O_31
REMARK   13  A    between atoms: O_31  and  C_32
REMARK                            x       y       z     vdW  Elec       q    Type
REMARK                         _______ _______ _______ _____ _____    ______ ____
ROOT
ATOM      1  C   UNL     1       0.985  10.981  18.803  0.00  0.00    +0.000 C 
ENDROOT
BRANCH   1   2
ATOM      2  C   UNL     1       1.575   9.532  18.801  0.00  0.00    +0.000 A 
ATOM      3  C   UNL     1       2.398   9.150  17.724  0.00  0.00    +0.000 A 
ATOM      4  C   UNL     1       2.938   7.865  17.637  0.00  0.00    +0.000 A 
ATOM      5  C   UNL     1       2.658   6.916  18.620  0.00  0.00    +0.000 A 
ATOM      6  C   UNL     1       1.893   7.249  19.760  0.00  0.00    +0.000 A 
ATOM      7  C   UNL     1       1.333   8.566  19.839  0.00  0.00    +0.000 A 
ATOM      8  C   UNL     1       1.810   6.197  20.779  0.00  0.00    +0.000 C 
ATOM      9  C   UNL     1       2.079   4.930  20.442  0.00  0.00    +0.000 C 
ATOM     10  C   UNL     1       2.563   4.564  19.069  0.00  0.00    +0.000 C 
ATOM     11  C   UNL     1       1.406   4.066  18.194  0.00  0.00    +0.000 C 
ATOM     12  C   UNL     1       3.615   3.454  19.215  0.00  0.00    +0.000 C 
ATOM     13  O   UNL     1       3.209   5.671  18.404  0.00  0.00    +0.000 OA
BRANCH   7  14
ATOM     14  O   UNL     1       0.610   9.087  20.882  0.00  0.00    +0.000 OA
ATOM     15  C   UNL     1       1.160   9.261  22.182  0.00  0.00    +0.000 C 
ENDBRANCH   7  14
ENDBRANCH   1   2
BRANCH   1  20
ATOM     16  C   UNL     1      -5.091  11.291  18.423  0.00  0.00    +0.000 A 
ATOM     17  C   UNL     1      -3.994  10.667  17.804  0.00  0.00    +0.000 A 
ATOM     18  C   UNL     1      -2.707  10.922  18.277  0.00  0.00    +0.000 A 
ATOM     19  C   UNL     1      -1.455  10.333  18.051  0.00  0.00    +0.000 A 
ATOM     20  C   UNL     1      -0.523  11.052  18.776  0.00  0.00    +0.000 A 
ATOM     21  O   UNL     1      -1.168  12.035  19.489  0.00  0.00    +0.000 OA
ATOM     22  C   UNL     1      -2.505  11.912  19.221  0.00  0.00    +0.000 A 
ATOM     23  C   UNL     1      -3.554  12.614  19.798  0.00  0.00    +0.000 A 
ATOM     24  C   UNL     1      -4.870  12.267  19.415  0.00  0.00    +0.000 A 
BRANCH  16  26
ATOM     25  C   UNL     1      -6.854   9.854  19.019  0.00  0.00    +0.000 C 
ATOM     26  O   UNL     1      -6.343  10.827  18.089  0.00  0.00    +0.000 OA
ENDBRANCH  16  26
BRANCH  24  27
ATOM     27  O   UNL     1      -5.783  12.916  20.206  0.00  0.00    +0.000 OA
ATOM     28  C   UNL     1      -5.844  12.598  21.582  0.00  0.00    +0.000 C 
ENDBRANCH  24  27
ENDBRANCH   1  20
BRANCH   1  29
ATOM     29  O   UNL     1       1.461  11.715  20.010  0.00  0.00    +0.000 OA
BRANCH  29  30
ATOM     30  C   UNL     1       1.970  12.998  19.911  0.00  0.00    +0.000 C 
ATOM     31  C   UNL     1       2.675  13.274  18.593  0.00  0.00    +0.000 C 
ATOM     32  O   UNL     1       1.801  13.883  20.707  0.00  0.00    +0.000 OA
ENDBRANCH  29  30
ENDBRANCH   1  29
TORSDOF 7
ENDMDL
MODEL 5
REMARK VINA RESULT:      -7.4      4.777      7.098
REMARK  Name = 
REMARK  13 active torsions:
REMARK  status: ('A' for Active; 'I' for Inactive)
REMARK    1  A    between atoms: C_1  and  O_2
REMARK    2  A    between atoms: O_2  and  C_3
REMARK    3  A    between atoms: C_7  and  C_8
REMARK    4  A    between atoms: C_8  and  O_9
REMARK    5  A    between atoms: C_8  and  C_13
REMARK    6  A    between atoms: O_9  and  C_10
REMARK    7  A    between atoms: C_10  and  C_11
REMARK    8  A    between atoms: C_18  and  O_19
REMARK    9  A    between atoms: O_19  and  C_20
REMARK   10  A    between atoms: C_23  and  C_24
REMARK   11  A    between atoms: C_23  and  C_25
REMARK   12  A    between atoms: C_30  and  O_31
REMARK   13  A    between atoms: O_31  and  C_32
REMARK                            x       y       z     vdW  Elec       q    Type
REMARK                         _______ _______ _______ _____ _____    ______ ____
ROOT
ATOM      1  C   UNL     1       0.346  11.032  19.404  0.00  0.00    +0.000 C 
ENDROOT
BRANCH   1   2
ATOM      2  C   UNL     1       1.134   9.704  19.149  0.00  0.00    +0.000 A 
ATOM      3  C   UNL     1       1.874   9.588  17.957  0.00  0.00    +0.000 A 
ATOM      4  C   UNL     1       2.580   8.423  17.645  0.00  0.00    +0.000 A 
ATOM      5  C   UNL     1       2.554   7.333  18.513  0.00  0.00    +0.000 A 
ATOM      6  C   UNL     1       1.886   7.402  19.755  0.00  0.00    +0.000 A 
ATOM      7  C   UNL     1       1.155   8.595  20.065  0.00  0.00    +0.000 A 
ATOM      8  C   UNL     1       2.073   6.236  20.626  0.00  0.00    +0.000 C 
ATOM      9  C   UNL     1       2.481   5.077  20.096  0.00  0.00    +0.000 C 
ATOM     10  C   UNL     1       2.851   4.958  18.646  0.00  0.00    +0.000 C 
ATOM     11  C   UNL     1       1.684   4.392  17.827  0.00  0.00    +0.000 C 
ATOM     12  C   UNL     1       4.061   4.019  18.538  0.00  0.00    +0.000 C 
ATOM     13  O   UNL     1       3.250   6.225  18.078  0.00  0.00    +0.000 OA
BRANCH   7  14
ATOM     14  O   UNL     1       0.490   8.868  21.234  0.00  0.00    +0.000 OA
ATOM     15  C   UNL     1       1.165   9.230  22.432  0.00  0.00    +0.000 C 
ENDBRANCH   7  14
ENDBRANCH   1   2
BRANCH   1  20
ATOM     16  C   UNL     1       3.963  15.931  19.681  0.00  0.00    +0.000 A 
ATOM     17  C   UNL     1       3.244  15.163  18.749  0.00  0.00    +0.000 A 
ATOM     18  C   UNL     1       2.513  14.061  19.192  0.00  0.00    +0.000 A 
ATOM     19  C   UNL     1       1.547  13.234  18.601  0.00  0.00    +0.000 A 
ATOM     20  C   UNL     1       1.207  12.267  19.527  0.00  0.00    +0.000 A 
ATOM     21  O   UNL     1       1.893  12.501  20.695  0.00  0.00    +0.000 OA
ATOM     22  C   UNL     1       2.643  13.629  20.499  0.00  0.00    +0.000 A 
ATOM     23  C   UNL     1       3.412  14.310  21.433  0.00  0.00    +0.000 A 
ATOM     24  C   UNL     1       4.051  15.501  21.020  0.00  0.00    +0.000 A 
BRANCH  16  26
ATOM     25  C   UNL     1       5.871  17.096  18.954  0.00  0.00    +0.000 C 
ATOM     26  O   UNL     1       4.462  17.137  19.243  0.00  0.00    +0.000 OA
ENDBRANCH  16  26
BRANCH  24  27
ATOM     27  O   UNL     1       4.607  16.142  22.097  0.00  0.00    +0.000 OA
ATOM     28  C   UNL     1       3.756  16.783  23.026  0.00  0.00    +0.000 C 
ENDBRANCH  24  27
ENDBRANCH   1  20
BRANCH   1  29
ATOM     29  O   UNL     1      -0.630  11.256  18.301  0.00  0.00    +0.000 OA
BRANCH  29  30
ATOM     30  C   UNL     1      -1.992  11.146  18.520  0.00  0.00    +0.000 C 
ATOM     31  C   UNL     1      -2.636   9.987  17.776  0.00  0.00    +0.000 C 
ATOM     32  O   UNL     1      -2.634  11.799  19.298  0.00  0.00    +0.000 OA
ENDBRANCH  29  30
ENDBRANCH   1  29
TORSDOF 7
ENDMDL
MODEL 6
REMARK VINA RESULT:      -7.4      5.129      7.384
REMARK  Name = 
REMARK  13 active torsions:
REMARK  status: ('A' for Active; 'I' for Inactive)
REMARK    1  A    between atoms: C_1  and  O_2
REMARK    2  A    between atoms: O_2  and  C_3
REMARK    3  A    between atoms: C_7  and  C_8
REMARK    4  A    between atoms: C_8  and  O_9
REMARK    5  A    between atoms: C_8  and  C_13
REMARK    6  A    between atoms: O_9  and  C_10
REMARK    7  A    between atoms: C_10  and  C_11
REMARK    8  A    between atoms: C_18  and  O_19
REMARK    9  A    between atoms: O_19  and  C_20
REMARK   10  A    between atoms: C_23  and  C_24
REMARK   11  A    between atoms: C_23  and  C_25
REMARK   12  A    between atoms: C_30  and  O_31
REMARK   13  A    between atoms: O_31  and  C_32
REMARK                            x       y       z     vdW  Elec       q    Type
REMARK                         _______ _______ _______ _____ _____    ______ ____
ROOT
ATOM      1  C   UNL     1       0.204  11.047  19.002  0.00  0.00    +0.000 C 
ENDROOT
BRANCH   1   2
ATOM      2  C   UNL     1       1.053   9.736  18.905  0.00  0.00    +0.000 A 
ATOM      3  C   UNL     1       1.890   9.566  17.786  0.00  0.00    +0.000 A 
ATOM      4  C   UNL     1       2.656   8.410  17.615  0.00  0.00    +0.000 A 
ATOM      5  C   UNL     1       2.595   7.381  18.553  0.00  0.00    +0.000 A 
ATOM      6  C   UNL     1       1.826   7.511  19.731  0.00  0.00    +0.000 A 
ATOM      7  C   UNL     1       1.034   8.694  19.897  0.00  0.00    +0.000 A 
ATOM      8  C   UNL     1       1.979   6.415  20.695  0.00  0.00    +0.000 C 
ATOM      9  C   UNL     1       2.465   5.238  20.283  0.00  0.00    +0.000 C 
ATOM     10  C   UNL     1       2.955   5.034  18.879  0.00  0.00    +0.000 C 
ATOM     11  C   UNL     1       1.878   4.370  18.013  0.00  0.00    +0.000 C 
ATOM     12  C   UNL     1       4.200   4.136  18.934  0.00  0.00    +0.000 C 
ATOM     13  O   UNL     1       3.358   6.273  18.255  0.00  0.00    +0.000 OA
BRANCH   7  14
ATOM     14  O   UNL     1       0.268   9.021  20.987  0.00  0.00    +0.000 OA
ATOM     15  C   UNL     1       0.834   9.459  22.216  0.00  0.00    +0.000 C 
ENDBRANCH   7  14
ENDBRANCH   1   2
BRANCH   1  20
ATOM     16  C   UNL     1       3.552  16.119  18.515  0.00  0.00    +0.000 A 
ATOM     17  C   UNL     1       3.700  14.724  18.614  0.00  0.00    +0.000 A 
ATOM     18  C   UNL     1       2.564  13.922  18.708  0.00  0.00    +0.000 A 
ATOM     19  C   UNL     1       2.337  12.542  18.607  0.00  0.00    +0.000 A 
ATOM     20  C   UNL     1       0.991  12.326  18.833  0.00  0.00    +0.000 A 
ATOM     21  O   UNL     1       0.365  13.536  19.016  0.00  0.00    +0.000 OA
ATOM     22  C   UNL     1       1.322  14.505  18.883  0.00  0.00    +0.000 A 
ATOM     23  C   UNL     1       1.141  15.882  18.877  0.00  0.00    +0.000 A 
ATOM     24  C   UNL     1       2.274  16.696  18.653  0.00  0.00    +0.000 A 
BRANCH  16  26
ATOM     25  C   UNL     1       5.525  17.123  19.306  0.00  0.00    +0.000 C 
ATOM     26  O   UNL     1       4.674  16.843  18.180  0.00  0.00    +0.000 OA
ENDBRANCH  16  26
BRANCH  24  27
ATOM     27  O   UNL     1       1.896  18.004  18.491  0.00  0.00    +0.000 OA
ATOM     28  C   UNL     1       0.594  18.287  18.019  0.00  0.00    +0.000 C 
ENDBRANCH  24  27
ENDBRANCH   1  20
BRANCH   1  29
ATOM     29  O   UNL     1      -0.871  11.027  17.971  0.00  0.00    +0.000 OA
BRANCH  29  30
ATOM     30  C   UNL     1      -2.205  11.119  18.328  0.00  0.00    +0.000 C 
ATOM     31  C   UNL     1      -3.081  10.051  17.694  0.00  0.00    +0.000 C 
ATOM     32  O   UNL     1      -2.663  11.874  19.143  0.00  0.00    +0.000 OA
ENDBRANCH  29  30
ENDBRANCH   1  29
TORSDOF 7
ENDMDL
MODEL 7
REMARK VINA RESULT:      -7.4      5.931      9.529
REMARK  Name = 
REMARK  13 active torsions:
REMARK  status: ('A' for Active; 'I' for Inactive)
REMARK    1  A    between atoms: C_1  and  O_2
REMARK    2  A    between atoms: O_2  and  C_3
REMARK    3  A    between atoms: C_7  and  C_8
REMARK    4  A    between atoms: C_8  and  O_9
REMARK    5  A    between atoms: C_8  and  C_13
REMARK    6  A    between atoms: O_9  and  C_10
REMARK    7  A    between atoms: C_10  and  C_11
REMARK    8  A    between atoms: C_18  and  O_19
REMARK    9  A    between atoms: O_19  and  C_20
REMARK   10  A    between atoms: C_23  and  C_24
REMARK   11  A    between atoms: C_23  and  C_25
REMARK   12  A    between atoms: C_30  and  O_31
REMARK   13  A    between atoms: O_31  and  C_32
REMARK                            x       y       z     vdW  Elec       q    Type
REMARK                         _______ _______ _______ _____ _____    ______ ____
ROOT
ATOM      1  C   UNL     1       0.701  11.200  19.200  0.00  0.00    +0.000 C 
ENDROOT
BRANCH   1   2
ATOM      2  C   UNL     1      -0.845  11.137  18.966  0.00  0.00    +0.000 A 
ATOM      3  C   UNL     1      -1.343  10.175  18.066  0.00  0.00    +0.000 A 
ATOM      4  C   UNL     1      -2.707  10.076  17.783  0.00  0.00    +0.000 A 
ATOM      5  C   UNL     1      -3.615  10.948  18.383  0.00  0.00    +0.000 A 
ATOM      6  C   UNL     1      -3.193  11.894  19.344  0.00  0.00    +0.000 A 
ATOM      7  C   UNL     1      -1.791  11.999  19.622  0.00  0.00    +0.000 A 
ATOM      8  C   UNL     1      -4.277  12.636  20.000  0.00  0.00    +0.000 C 
ATOM      9  C   UNL     1      -5.482  12.690  19.422  0.00  0.00    +0.000 C 
ATOM     10  C   UNL     1      -5.791  11.929  18.165  0.00  0.00    +0.000 C 
ATOM     11  C   UNL     1      -5.668  12.833  16.932  0.00  0.00    +0.000 C 
ATOM     12  C   UNL     1      -7.226  11.394  18.272  0.00  0.00    +0.000 C 
ATOM     13  O   UNL     1      -4.927  10.784  17.994  0.00  0.00    +0.000 OA
BRANCH   7  14
ATOM     14  O   UNL     1      -1.200  12.815  20.552  0.00  0.00    +0.000 OA
ATOM     15  C   UNL     1      -1.190  12.512  21.941  0.00  0.00    +0.000 C 
ENDBRANCH   7  14
ENDBRANCH   1   2
BRANCH   1  20
ATOM     16  C   UNL     1       3.495   5.872  18.215  0.00  0.00    +0.000 A 
ATOM     17  C   UNL     1       3.167   7.067  17.550  0.00  0.00    +0.000 A 
ATOM     18  C   UNL     1       2.477   8.064  18.238  0.00  0.00    +0.000 A 
ATOM     19  C   UNL     1       2.189   9.409  17.967  0.00  0.00    +0.000 A 
ATOM     20  C   UNL     1       1.425   9.888  19.015  0.00  0.00    +0.000 A 
ATOM     21  O   UNL     1       1.278   8.895  19.955  0.00  0.00    +0.000 OA
ATOM     22  C   UNL     1       1.969   7.806  19.498  0.00  0.00    +0.000 A 
ATOM     23  C   UNL     1       2.197   6.607  20.159  0.00  0.00    +0.000 A 
ATOM     24  C   UNL     1       3.005   5.642  19.516  0.00  0.00    +0.000 A 
BRANCH  16  26
ATOM     25  C   UNL     1       3.736   3.916  16.934  0.00  0.00    +0.000 C 
ATOM     26  O   UNL     1       4.379   5.028  17.582  0.00  0.00    +0.000 OA
ENDBRANCH  16  26
BRANCH  24  27
ATOM     27  O   UNL     1       3.284   4.607  20.371  0.00  0.00    +0.000 OA
ATOM     28  C   UNL     1       2.387   3.515  20.440  0.00  0.00    +0.000 C 
ENDBRANCH  24  27
ENDBRANCH   1  20
BRANCH   1  29
ATOM     29  O   UNL     1       1.308  12.198  18.274  0.00  0.00    +0.000 OA
BRANCH  29  30
ATOM     30  C   UNL     1       2.278  13.082  18.713  0.00  0.00    +0.000 C 
ATOM     31  C   UNL     1       2.210  13.370  20.204  0.00  0.00    +0.000 C 
ATOM     32  O   UNL     1       3.181  13.518  18.050  0.00  0.00    +0.000 OA
ENDBRANCH  29  30
ENDBRANCH   1  29
TORSDOF 7
ENDMDL
MODEL 8
REMARK VINA RESULT:      -7.3      4.784      7.173
REMARK  Name = 
REMARK  13 active torsions:
REMARK  status: ('A' for Active; 'I' for Inactive)
REMARK    1  A    between atoms: C_1  and  O_2
REMARK    2  A    between atoms: O_2  and  C_3
REMARK    3  A    between atoms: C_7  and  C_8
REMARK    4  A    between atoms: C_8  and  O_9
REMARK    5  A    between atoms: C_8  and  C_13
REMARK    6  A    between atoms: O_9  and  C_10
REMARK    7  A    between atoms: C_10  and  C_11
REMARK    8  A    between atoms: C_18  and  O_19
REMARK    9  A    between atoms: O_19  and  C_20
REMARK   10  A    between atoms: C_23  and  C_24
REMARK   11  A    between atoms: C_23  and  C_25
REMARK   12  A    between atoms: C_30  and  O_31
REMARK   13  A    between atoms: O_31  and  C_32
REMARK                            x       y       z     vdW  Elec       q    Type
REMARK                         _______ _______ _______ _____ _____    ______ ____
ROOT
ATOM      1  C   UNL     1       0.128  10.880  19.148  0.00  0.00    +0.000 C 
ENDROOT
BRANCH   1   2
ATOM      2  C   UNL     1       1.018   9.601  18.994  0.00  0.00    +0.000 A 
ATOM      3  C   UNL     1       1.811   9.478  17.837  0.00  0.00    +0.000 A 
ATOM      4  C   UNL     1       2.609   8.353  17.615  0.00  0.00    +0.000 A 
ATOM      5  C   UNL     1       2.626   7.310  18.539  0.00  0.00    +0.000 A 
ATOM      6  C   UNL     1       1.906   7.395  19.751  0.00  0.00    +0.000 A 
ATOM      7  C   UNL     1       1.081   8.546  19.969  0.00  0.00    +0.000 A 
ATOM      8  C   UNL     1       2.141   6.292  20.690  0.00  0.00    +0.000 C 
ATOM      9  C   UNL     1       2.650   5.140  20.240  0.00  0.00    +0.000 C 
ATOM     10  C   UNL     1       3.085   4.973  18.812  0.00  0.00    +0.000 C 
ATOM     11  C   UNL     1       1.995   4.282  17.984  0.00  0.00    +0.000 C 
ATOM     12  C   UNL     1       4.363   4.120  18.799  0.00  0.00    +0.000 C 
ATOM     13  O   UNL     1       3.415   6.234  18.191  0.00  0.00    +0.000 OA
BRANCH   7  14
ATOM     14  O   UNL     1       0.352   8.830  21.097  0.00  0.00    +0.000 OA
ATOM     15  C   UNL     1       0.959   9.239  22.316  0.00  0.00    +0.000 C 
ENDBRANCH   7  14
ENDBRANCH   1   2
BRANCH   1  20
ATOM     16  C   UNL     1       2.990  16.262  19.115  0.00  0.00    +0.000 A 
ATOM     17  C   UNL     1       1.735  15.700  19.409  0.00  0.00    +0.000 A 
ATOM     18  C   UNL     1       1.549  14.327  19.255  0.00  0.00    +0.000 A 
ATOM     19  C   UNL     1       0.541  13.434  19.644  0.00  0.00    +0.000 A 
ATOM     20  C   UNL     1       0.890  12.184  19.170  0.00  0.00    +0.000 A 
ATOM     21  O   UNL     1       2.112  12.264  18.545  0.00  0.00    +0.000 OA
ATOM     22  C   UNL     1       2.531  13.563  18.651  0.00  0.00    +0.000 A 
ATOM     23  C   UNL     1       3.754  14.095  18.267  0.00  0.00    +0.000 A 
ATOM     24  C   UNL     1       3.995  15.460  18.539  0.00  0.00    +0.000 A 
BRANCH  16  26
ATOM     25  C   UNL     1       2.067  18.138  20.191  0.00  0.00    +0.000 C 
ATOM     26  O   UNL     1       3.198  17.564  19.511  0.00  0.00    +0.000 OA
ENDBRANCH  16  26
BRANCH  24  27
ATOM     27  O   UNL     1       5.303  15.776  18.272  0.00  0.00    +0.000 OA
ATOM     28  C   UNL     1       6.190  14.746  17.885  0.00  0.00    +0.000 C 
ENDBRANCH  24  27
ENDBRANCH   1  20
BRANCH   1  29
ATOM     29  O   UNL     1      -0.861  10.939  18.036  0.00  0.00    +0.000 OA
BRANCH  29  30
ATOM     30  C   UNL     1      -2.221  10.970  18.290  0.00  0.00    +0.000 C 
ATOM     31  C   UNL     1      -2.986   9.822  17.652  0.00  0.00    +0.000 C 
ATOM     32  O   UNL     1      -2.780  11.736  19.028  0.00  0.00    +0.000 OA
ENDBRANCH  29  30
ENDBRANCH   1  29
TORSDOF 7
ENDMDL
MODEL 9
REMARK VINA RESULT:      -7.3      5.006      7.201
REMARK  Name = 
REMARK  13 active torsions:
REMARK  status: ('A' for Active; 'I' for Inactive)
REMARK    1  A    between atoms: C_1  and  O_2
REMARK    2  A    between atoms: O_2  and  C_3
REMARK    3  A    between atoms: C_7  and  C_8
REMARK    4  A    between atoms: C_8  and  O_9
REMARK    5  A    between atoms: C_8  and  C_13
REMARK    6  A    between atoms: O_9  and  C_10
REMARK    7  A    between atoms: C_10  and  C_11
REMARK    8  A    between atoms: C_18  and  O_19
REMARK    9  A    between atoms: O_19  and  C_20
REMARK   10  A    between atoms: C_23  and  C_24
REMARK   11  A    between atoms: C_23  and  C_25
REMARK   12  A    between atoms: C_30  and  O_31
REMARK   13  A    between atoms: O_31  and  C_32
REMARK                            x       y       z     vdW  Elec       q    Type
REMARK                         _______ _______ _______ _____ _____    ______ ____
ROOT
ATOM      1  C   UNL     1       0.192  10.807  19.388  0.00  0.00    +0.000 C 
ENDROOT
BRANCH   1   2
ATOM      2  C   UNL     1       1.059   9.530  19.131  0.00  0.00    +0.000 A 
ATOM      3  C   UNL     1       1.796   9.455  17.933  0.00  0.00    +0.000 A 
ATOM      4  C   UNL     1       2.570   8.336  17.620  0.00  0.00    +0.000 A 
ATOM      5  C   UNL     1       2.619   7.249  18.491  0.00  0.00    +0.000 A 
ATOM      6  C   UNL     1       1.957   7.281  19.738  0.00  0.00    +0.000 A 
ATOM      7  C   UNL     1       1.155   8.428  20.050  0.00  0.00    +0.000 A 
ATOM      8  C   UNL     1       2.223   6.132  20.612  0.00  0.00    +0.000 C 
ATOM      9  C   UNL     1       2.698   4.999  20.083  0.00  0.00    +0.000 C 
ATOM     10  C   UNL     1       3.064   4.897  18.630  0.00  0.00    +0.000 C 
ATOM     11  C   UNL     1       1.929   4.257  17.821  0.00  0.00    +0.000 C 
ATOM     12  C   UNL     1       4.330   4.035  18.516  0.00  0.00    +0.000 C 
ATOM     13  O   UNL     1       3.379   6.185  18.055  0.00  0.00    +0.000 OA
BRANCH   7  14
ATOM     14  O   UNL     1       0.484   8.663  21.223  0.00  0.00    +0.000 OA
ATOM     15  C   UNL     1       1.131   9.153  22.391  0.00  0.00    +0.000 C 
ENDBRANCH   7  14
ENDBRANCH   1   2
BRANCH   1  20
ATOM     16  C   UNL     1       3.222  15.984  20.473  0.00  0.00    +0.000 A 
ATOM     17  C   UNL     1       2.720  14.857  21.147  0.00  0.00    +0.000 A 
ATOM     18  C   UNL     1       2.055  13.869  20.423  0.00  0.00    +0.000 A 
ATOM     19  C   UNL     1       1.632  12.565  20.719  0.00  0.00    +0.000 A 
ATOM     20  C   UNL     1       0.981  12.076  19.603  0.00  0.00    +0.000 A 
ATOM     21  O   UNL     1       1.035  13.018  18.602  0.00  0.00    +0.000 OA
ATOM     22  C   UNL     1       1.740  14.083  19.093  0.00  0.00    +0.000 A 
ATOM     23  C   UNL     1       2.143  15.222  18.409  0.00  0.00    +0.000 A 
ATOM     24  C   UNL     1       2.929  16.168  19.107  0.00  0.00    +0.000 A 
BRANCH  16  26
ATOM     25  C   UNL     1       4.243  16.402  22.549  0.00  0.00    +0.000 C 
ATOM     26  O   UNL     1       4.075  16.803  21.177  0.00  0.00    +0.000 OA
ENDBRANCH  16  26
BRANCH  24  27
ATOM     27  O   UNL     1       3.396  17.127  18.246  0.00  0.00    +0.000 OA
ATOM     28  C   UNL     1       2.797  17.253  16.971  0.00  0.00    +0.000 C 
ENDBRANCH  24  27
ENDBRANCH   1  20
BRANCH   1  29
ATOM     29  O   UNL     1      -0.733  11.025  18.240  0.00  0.00    +0.000 OA
BRANCH  29  30
ATOM     30  C   UNL     1      -2.105  11.006  18.415  0.00  0.00    +0.000 C 
ATOM     31  C   UNL     1      -2.796   9.861  17.691  0.00  0.00    +0.000 C 
ATOM     32  O   UNL     1      -2.730  11.727  19.147  0.00  0.00    +0.000 OA
ENDBRANCH  29  30
ENDBRANCH   1  29
TORSDOF 7
ENDMDL
