MODEL 1
REMARK VINA RESULT:      -8.3      0.000      0.000
REMARK  Name = 
REMARK  0 active torsions:
REMARK  status: ('A' for Active; 'I' for Inactive)
REMARK                            x       y       z     vdW  Elec       q    Type
REMARK                         _______ _______ _______ _____ _____    ______ ____
ROOT
ATOM      1  C   UNL     1       1.058   3.537  20.440  0.00  0.00    +0.000 A 
ATOM      2  C   UNL     1       1.022   2.833  19.238  0.00  0.00    +0.000 A 
ATOM      3  C   UNL     1       2.000   3.041  18.259  0.00  0.00    +0.000 A 
ATOM      4  C   UNL     1       3.029   3.974  18.498  0.00  0.00    +0.000 A 
ATOM      5  C   UNL     1       3.040   4.666  19.714  0.00  0.00    +0.000 A 
ATOM      6  C   UNL     1       2.068   4.469  20.702  0.00  0.00    +0.000 A 
ATOM      7  N   UNL     1       4.133   5.506  19.701  0.00  0.00    +0.000 N 
ATOM      8  C   UNL     1       4.816   5.375  18.526  0.00  0.00    +0.000 A 
ATOM      9  N   UNL     1       5.935   6.051  18.184  0.00  0.00    +0.000 NA
ATOM     10  C   UNL     1       6.385   5.703  16.944  0.00  0.00    +0.000 A 
ATOM     11  N   UNL     1       7.455   6.174  16.306  0.00  0.00    +0.000 NA
ATOM     12  O   UNL     1       7.458   5.493  15.085  0.00  0.00    +0.000 OA
ATOM     13  N   UNL     1       6.388   4.601  14.973  0.00  0.00    +0.000 NA
ATOM     14  C   UNL     1       5.725   4.730  16.121  0.00  0.00    +0.000 A 
ATOM     15  N   UNL     1       4.595   4.071  16.507  0.00  0.00    +0.000 NA
ATOM     16  C   UNL     1       4.152   4.424  17.749  0.00  0.00    +0.000 A 
ATOM     17  H   UNL     1       4.401   6.133  20.446  0.00  0.00    +0.000 HD
ENDROOT
TORSDOF 0
ENDMDL
MODEL 2
REMARK VINA RESULT:      -8.1      1.360      1.383
REMARK  Name = 
REMARK  0 active torsions:
REMARK  status: ('A' for Active; 'I' for Inactive)
REMARK                            x       y       z     vdW  Elec       q    Type
REMARK                         _______ _______ _______ _____ _____    ______ ____
ROOT
ATOM      1  C   UNL     1       1.340   2.865  21.075  0.00  0.00    +0.000 A 
ATOM      2  C   UNL     1       0.747   3.576  20.034  0.00  0.00    +0.000 A 
ATOM      3  C   UNL     1       1.528   4.139  19.019  0.00  0.00    +0.000 A 
ATOM      4  C   UNL     1       2.928   3.981  19.056  0.00  0.00    +0.000 A 
ATOM      5  C   UNL     1       3.496   3.262  20.114  0.00  0.00    +0.000 A 
ATOM      6  C   UNL     1       2.727   2.693  21.137  0.00  0.00    +0.000 A 
ATOM      7  N   UNL     1       4.861   3.251  19.921  0.00  0.00    +0.000 N 
ATOM      8  C   UNL     1       5.182   3.935  18.784  0.00  0.00    +0.000 A 
ATOM      9  N   UNL     1       6.431   4.119  18.301  0.00  0.00    +0.000 NA
ATOM     10  C   UNL     1       6.432   4.846  17.146  0.00  0.00    +0.000 A 
ATOM     11  N   UNL     1       7.483   5.206  16.413  0.00  0.00    +0.000 NA
ATOM     12  O   UNL     1       6.934   5.929  15.350  0.00  0.00    +0.000 OA
ATOM     13  N   UNL     1       5.541   6.013  15.430  0.00  0.00    +0.000 NA
ATOM     14  C   UNL     1       5.230   5.344  16.540  0.00  0.00    +0.000 A 
ATOM     15  N   UNL     1       3.989   5.134  17.063  0.00  0.00    +0.000 NA
ATOM     16  C   UNL     1       3.997   4.406  18.218  0.00  0.00    +0.000 A 
ATOM     17  H   UNL     1       5.536   2.806  20.525  0.00  0.00    +0.000 HD
ENDROOT
TORSDOF 0
ENDMDL
MODEL 3
REMARK VINA RESULT:      -8.0      1.460      1.736
REMARK  Name = 
REMARK  0 active torsions:
REMARK  status: ('A' for Active; 'I' for Inactive)
REMARK                            x       y       z     vdW  Elec       q    Type
REMARK                         _______ _______ _______ _____ _____    ______ ____
ROOT
ATOM      1  C   UNL     1       1.252   3.086  21.190  0.00  0.00    +0.000 A 
ATOM      2  C   UNL     1       2.468   2.446  21.419  0.00  0.00    +0.000 A 
ATOM      3  C   UNL     1       3.601   2.778  20.666  0.00  0.00    +0.000 A 
ATOM      4  C   UNL     1       3.502   3.769  19.670  0.00  0.00    +0.000 A 
ATOM      5  C   UNL     1       2.268   4.395  19.463  0.00  0.00    +0.000 A 
ATOM      6  C   UNL     1       1.126   4.074  20.208  0.00  0.00    +0.000 A 
ATOM      7  N   UNL     1       2.435   5.313  18.448  0.00  0.00    +0.000 N 
ATOM      8  C   UNL     1       3.725   5.295  18.003  0.00  0.00    +0.000 A 
ATOM      9  N   UNL     1       4.230   6.069  17.016  0.00  0.00    +0.000 NA
ATOM     10  C   UNL     1       5.554   5.821  16.797  0.00  0.00    +0.000 A 
ATOM     11  N   UNL     1       6.352   6.402  15.904  0.00  0.00    +0.000 NA
ATOM     12  O   UNL     1       7.593   5.786  16.096  0.00  0.00    +0.000 OA
ATOM     13  N   UNL     1       7.556   4.824  17.109  0.00  0.00    +0.000 NA
ATOM     14  C   UNL     1       6.296   4.845  17.542  0.00  0.00    +0.000 A 
ATOM     15  N   UNL     1       5.745   4.085  18.531  0.00  0.00    +0.000 NA
ATOM     16  C   UNL     1       4.421   4.340  18.745  0.00  0.00    +0.000 A 
ATOM     17  H   UNL     1       1.715   5.917  18.079  0.00  0.00    +0.000 HD
ENDROOT
TORSDOF 0
ENDMDL
MODEL 4
REMARK VINA RESULT:      -7.9      0.997      2.195
REMARK  Name = 
REMARK  0 active torsions:
REMARK  status: ('A' for Active; 'I' for Inactive)
REMARK                            x       y       z     vdW  Elec       q    Type
REMARK                         _______ _______ _______ _____ _____    ______ ____
ROOT
ATOM      1  C   UNL     1       0.736   3.039  19.752  0.00  0.00    +0.000 A 
ATOM      2  C   UNL     1       1.139   4.201  20.407  0.00  0.00    +0.000 A 
ATOM      3  C   UNL     1       2.258   4.916  19.967  0.00  0.00    +0.000 A 
ATOM      4  C   UNL     1       2.979   4.451  18.849  0.00  0.00    +0.000 A 
ATOM      5  C   UNL     1       2.551   3.282  18.210  0.00  0.00    +0.000 A 
ATOM      6  C   UNL     1       1.433   2.556  18.640  0.00  0.00    +0.000 A 
ATOM      7  N   UNL     1       3.412   3.045  17.161  0.00  0.00    +0.000 N 
ATOM      8  C   UNL     1       4.370   4.016  17.108  0.00  0.00    +0.000 A 
ATOM      9  N   UNL     1       5.371   4.088  16.202  0.00  0.00    +0.000 NA
ATOM     10  C   UNL     1       6.171   5.174  16.407  0.00  0.00    +0.000 A 
ATOM     11  N   UNL     1       7.239   5.541  15.702  0.00  0.00    +0.000 NA
ATOM     12  O   UNL     1       7.683   6.710  16.329  0.00  0.00    +0.000 OA
ATOM     13  N   UNL     1       6.885   7.062  17.421  0.00  0.00    +0.000 NA
ATOM     14  C   UNL     1       5.950   6.113  17.470  0.00  0.00    +0.000 A 
ATOM     15  N   UNL     1       4.925   6.001  18.362  0.00  0.00    +0.000 NA
ATOM     16  C   UNL     1       4.130   4.912  18.150  0.00  0.00    +0.000 A 
ATOM     17  H   UNL     1       3.354   2.269  16.517  0.00  0.00    +0.000 HD
ENDROOT
TORSDOF 0
ENDMDL
MODEL 5
REMARK VINA RESULT:      -7.8      2.931      5.262
REMARK  Name = 
REMARK  0 active torsions:
REMARK  status: ('A' for Active; 'I' for Inactive)
REMARK                            x       y       z     vdW  Elec       q    Type
REMARK                         _______ _______ _______ _____ _____    ______ ____
ROOT
ATOM      1  C   UNL     1       7.997   7.143  18.184  0.00  0.00    +0.000 A 
ATOM      2  C   UNL     1       7.029   7.615  17.299  0.00  0.00    +0.000 A 
ATOM      3  C   UNL     1       5.786   6.980  17.197  0.00  0.00    +0.000 A 
ATOM      4  C   UNL     1       5.517   5.854  18.001  0.00  0.00    +0.000 A 
ATOM      5  C   UNL     1       6.508   5.403  18.881  0.00  0.00    +0.000 A 
ATOM      6  C   UNL     1       7.756   6.028  18.993  0.00  0.00    +0.000 A 
ATOM      7  N   UNL     1       6.004   4.305  19.543  0.00  0.00    +0.000 N 
ATOM      8  C   UNL     1       4.734   4.039  19.119  0.00  0.00    +0.000 A 
ATOM      9  N   UNL     1       3.949   3.032  19.562  0.00  0.00    +0.000 NA
ATOM     10  C   UNL     1       2.730   3.024  18.948  0.00  0.00    +0.000 A 
ATOM     11  N   UNL     1       1.725   2.174  19.147  0.00  0.00    +0.000 NA
ATOM     12  O   UNL     1       0.725   2.608  18.272  0.00  0.00    +0.000 OA
ATOM     13  N   UNL     1       1.116   3.729  17.534  0.00  0.00    +0.000 NA
ATOM     14  C   UNL     1       2.355   3.986  17.951  0.00  0.00    +0.000 A 
ATOM     15  N   UNL     1       3.181   4.988  17.534  0.00  0.00    +0.000 NA
ATOM     16  C   UNL     1       4.397   4.989  18.154  0.00  0.00    +0.000 A 
ATOM     17  H   UNL     1       6.493   3.765  20.243  0.00  0.00    +0.000 HD
ENDROOT
TORSDOF 0
ENDMDL
MODEL 6
REMARK VINA RESULT:      -7.8      1.427      2.289
REMARK  Name = 
REMARK  0 active torsions:
REMARK  status: ('A' for Active; 'I' for Inactive)
REMARK                            x       y       z     vdW  Elec       q    Type
REMARK                         _______ _______ _______ _____ _____    ______ ____
ROOT
ATOM      1  C   UNL     1       0.730   2.900  20.748  0.00  0.00    +0.000 A 
ATOM      2  C   UNL     1       1.845   3.049  21.571  0.00  0.00    +0.000 A 
ATOM      3  C   UNL     1       3.100   3.340  21.025  0.00  0.00    +0.000 A 
ATOM      4  C   UNL     1       3.231   3.481  19.629  0.00  0.00    +0.000 A 
ATOM      5  C   UNL     1       2.094   3.325  18.828  0.00  0.00    +0.000 A 
ATOM      6  C   UNL     1       0.832   3.035  19.360  0.00  0.00    +0.000 A 
ATOM      7  N   UNL     1       2.483   3.511  17.518  0.00  0.00    +0.000 N 
ATOM      8  C   UNL     1       3.820   3.777  17.456  0.00  0.00    +0.000 A 
ATOM      9  N   UNL     1       4.527   4.008  16.327  0.00  0.00    +0.000 NA
ATOM     10  C   UNL     1       5.846   4.244  16.587  0.00  0.00    +0.000 A 
ATOM     11  N   UNL     1       6.813   4.505  15.710  0.00  0.00    +0.000 NA
ATOM     12  O   UNL     1       7.959   4.662  16.495  0.00  0.00    +0.000 OA
ATOM     13  N   UNL     1       7.696   4.497  17.858  0.00  0.00    +0.000 NA
ATOM     14  C   UNL     1       6.390   4.238  17.915  0.00  0.00    +0.000 A 
ATOM     15  N   UNL     1       5.638   3.999  19.028  0.00  0.00    +0.000 NA
ATOM     16  C   UNL     1       4.320   3.766  18.759  0.00  0.00    +0.000 A 
ATOM     17  H   UNL     1       1.876   3.459  16.713  0.00  0.00    +0.000 HD
ENDROOT
TORSDOF 0
ENDMDL
MODEL 7
REMARK VINA RESULT:      -7.6      1.899      1.989
REMARK  Name = 
REMARK  0 active torsions:
REMARK  status: ('A' for Active; 'I' for Inactive)
REMARK                            x       y       z     vdW  Elec       q    Type
REMARK                         _______ _______ _______ _____ _____    ______ ____
ROOT
ATOM      1  C   UNL     1       1.413   2.174  19.110  0.00  0.00    +0.000 A 
ATOM      2  C   UNL     1       1.005   3.222  18.287  0.00  0.00    +0.000 A 
ATOM      3  C   UNL     1       1.916   4.198  17.870  0.00  0.00    +0.000 A 
ATOM      4  C   UNL     1       3.259   4.114  18.290  0.00  0.00    +0.000 A 
ATOM      5  C   UNL     1       3.640   3.051  19.116  0.00  0.00    +0.000 A 
ATOM      6  C   UNL     1       2.739   2.067  19.541  0.00  0.00    +0.000 A 
ATOM      7  N   UNL     1       4.986   3.195  19.381  0.00  0.00    +0.000 N 
ATOM      8  C   UNL     1       5.473   4.307  18.757  0.00  0.00    +0.000 A 
ATOM      9  N   UNL     1       6.751   4.743  18.806  0.00  0.00    +0.000 NA
ATOM     10  C   UNL     1       6.933   5.884  18.080  0.00  0.00    +0.000 A 
ATOM     11  N   UNL     1       8.060   6.573  17.916  0.00  0.00    +0.000 NA
ATOM     12  O   UNL     1       7.696   7.643  17.093  0.00  0.00    +0.000 OA
ATOM     13  N   UNL     1       6.342   7.611  16.749  0.00  0.00    +0.000 NA
ATOM     14  C   UNL     1       5.869   6.524  17.359  0.00  0.00    +0.000 A 
ATOM     15  N   UNL     1       4.591   6.049  17.337  0.00  0.00    +0.000 NA
ATOM     16  C   UNL     1       4.419   4.907  18.065  0.00  0.00    +0.000 A 
ATOM     17  H   UNL     1       5.541   2.576  19.952  0.00  0.00    +0.000 HD
ENDROOT
TORSDOF 0
ENDMDL
MODEL 8
REMARK VINA RESULT:      -7.6      1.008      1.085
REMARK  Name = 
REMARK  0 active torsions:
REMARK  status: ('A' for Active; 'I' for Inactive)
REMARK                            x       y       z     vdW  Elec       q    Type
REMARK                         _______ _______ _______ _____ _____    ______ ____
ROOT
ATOM      1  C   UNL     1       0.721   2.674  19.341  0.00  0.00    +0.000 A 
ATOM      2  C   UNL     1       1.469   1.777  18.579  0.00  0.00    +0.000 A 
ATOM      3  C   UNL     1       2.641   2.192  17.936  0.00  0.00    +0.000 A 
ATOM      4  C   UNL     1       3.062   3.530  18.064  0.00  0.00    +0.000 A 
ATOM      5  C   UNL     1       2.292   4.408  18.835  0.00  0.00    +0.000 A 
ATOM      6  C   UNL     1       1.118   4.007  19.484  0.00  0.00    +0.000 A 
ATOM      7  N   UNL     1       2.911   5.639  18.803  0.00  0.00    +0.000 N 
ATOM      8  C   UNL     1       4.042   5.579  18.041  0.00  0.00    +0.000 A 
ATOM      9  N   UNL     1       4.885   6.607  17.799  0.00  0.00    +0.000 NA
ATOM     10  C   UNL     1       5.929   6.237  17.001  0.00  0.00    +0.000 A 
ATOM     11  N   UNL     1       6.934   6.998  16.572  0.00  0.00    +0.000 NA
ATOM     12  O   UNL     1       7.715   6.136  15.797  0.00  0.00    +0.000 OA
ATOM     13  N   UNL     1       7.188   4.842  15.749  0.00  0.00    +0.000 NA
ATOM     14  C   UNL     1       6.085   4.904  16.494  0.00  0.00    +0.000 A 
ATOM     15  N   UNL     1       5.208   3.895  16.764  0.00  0.00    +0.000 NA
ATOM     16  C   UNL     1       4.168   4.274  17.563  0.00  0.00    +0.000 A 
ATOM     17  H   UNL     1       2.584   6.473  19.269  0.00  0.00    +0.000 HD
ENDROOT
TORSDOF 0
ENDMDL
MODEL 9
REMARK VINA RESULT:      -7.5      3.024      5.484
REMARK  Name = 
REMARK  0 active torsions:
REMARK  status: ('A' for Active; 'I' for Inactive)
REMARK                            x       y       z     vdW  Elec       q    Type
REMARK                         _______ _______ _______ _____ _____    ______ ____
ROOT
ATOM      1  C   UNL     1       7.425   4.945  15.349  0.00  0.00    +0.000 A 
ATOM      2  C   UNL     1       6.283   4.785  14.567  0.00  0.00    +0.000 A 
ATOM      3  C   UNL     1       5.075   4.375  15.143  0.00  0.00    +0.000 A 
ATOM      4  C   UNL     1       5.021   4.124  16.529  0.00  0.00    +0.000 A 
ATOM      5  C   UNL     1       6.184   4.293  17.289  0.00  0.00    +0.000 A 
ATOM      6  C   UNL     1       7.399   4.703  16.727  0.00  0.00    +0.000 A 
ATOM      7  N   UNL     1       5.870   3.989  18.597  0.00  0.00    +0.000 N 
ATOM      8  C   UNL     1       4.557   3.633  18.697  0.00  0.00    +0.000 A 
ATOM      9  N   UNL     1       3.921   3.274  19.834  0.00  0.00    +0.000 NA
ATOM     10  C   UNL     1       2.608   2.973  19.615  0.00  0.00    +0.000 A 
ATOM     11  N   UNL     1       1.702   2.586  20.510  0.00  0.00    +0.000 NA
ATOM     12  O   UNL     1       0.532   2.410  19.766  0.00  0.00    +0.000 OA
ATOM     13  N   UNL     1       0.719   2.689  18.409  0.00  0.00    +0.000 NA
ATOM     14  C   UNL     1       2.002   3.038  18.315  0.00  0.00    +0.000 A 
ATOM     15  N   UNL     1       2.683   3.405  17.193  0.00  0.00    +0.000 NA
ATOM     16  C   UNL     1       3.995   3.706  17.421  0.00  0.00    +0.000 A 
ATOM     17  H   UNL     1       6.511   4.021  19.377  0.00  0.00    +0.000 HD
ENDROOT
TORSDOF 0
ENDMDL
