MODEL 1
REMARK VINA RESULT:      -7.2      0.000      0.000
REMARK  Name = 
REMARK  7 active torsions:
REMARK  status: ('A' for Active; 'I' for Inactive)
REMARK    1  A    between atoms: C_1  and  C_2
REMARK    2  A    between atoms: C_2  and  C_4
REMARK    3  A    between atoms: C_9  and  C_10
REMARK    4  A    between atoms: N_12  and  C_13
REMARK    5  A    between atoms: C_13  and  C_14
REMARK    6  A    between atoms: C_18  and  O_19
REMARK    7  A    between atoms: O_19  and  C_20
REMARK                            x       y       z     vdW  Elec       q    Type
REMARK                         _______ _______ _______ _____ _____    ______ ____
ROOT
ATOM      1  C   UNL     1       0.796   9.488  19.043  0.00  0.00    +0.000 C 
ATOM      2  O   UNL     1       0.261   9.960  18.043  0.00  0.00    +0.000 OA
ATOM      3  N   UNL     1       1.919   8.693  18.957  0.00  0.00    +0.000 N 
ATOM      4  H   UNL     1       2.130   8.066  19.722  0.00  0.00    +0.000 HD
ENDROOT
BRANCH   1  10
ATOM      5  C   UNL     1      -0.325  11.083  20.797  0.00  0.00    +0.000 A 
ATOM      6  C   UNL     1      -0.814  11.235  22.112  0.00  0.00    +0.000 A 
ATOM      7  C   UNL     1      -0.756  10.187  23.031  0.00  0.00    +0.000 A 
ATOM      8  C   UNL     1      -0.190   8.980  22.653  0.00  0.00    +0.000 A 
ATOM      9  C   UNL     1       0.323   8.828  21.361  0.00  0.00    +0.000 A 
ATOM     10  C   UNL     1       0.265   9.867  20.403  0.00  0.00    +0.000 A 
BRANCH   5  12
ATOM     11  C   UNL     1      -1.777  12.573  19.283  0.00  0.00    +0.000 C 
ATOM     12  C   UNL     1      -0.439  12.270  19.904  0.00  0.00    +0.000 C 
ATOM     13  O   UNL     1       0.539  12.967  19.670  0.00  0.00    +0.000 OA
ENDBRANCH   5  12
ENDBRANCH   1  10
BRANCH   3  14
ATOM     14  C   UNL     1       2.540   8.362  17.694  0.00  0.00    +0.000 C 
BRANCH  14  15
ATOM     15  C   UNL     1       3.371   7.106  17.747  0.00  0.00    +0.000 A 
ATOM     16  C   UNL     1       4.560   7.015  17.020  0.00  0.00    +0.000 A 
ATOM     17  C   UNL     1       5.340   5.876  17.153  0.00  0.00    +0.000 A 
ATOM     18  N   UNL     1       5.029   4.835  17.953  0.00  0.00    +0.000 NA
ATOM     19  C   UNL     1       3.863   4.926  18.623  0.00  0.00    +0.000 A 
ATOM     20  C   UNL     1       3.003   6.015  18.542  0.00  0.00    +0.000 A 
BRANCH  19  21
ATOM     21  O   UNL     1       3.485   3.893  19.462  0.00  0.00    +0.000 OA
BRANCH  21  22
ATOM     22  C   UNL     1       2.301   4.125  20.269  0.00  0.00    +0.000 C 
ATOM     23  C   UNL     1       1.098   3.193  20.003  0.00  0.00    +0.000 C 
ATOM     24  C   UNL     1       1.072   2.793  21.482  0.00  0.00    +0.000 C 
ATOM     25  C   UNL     1       2.382   3.554  21.703  0.00  0.00    +0.000 C 
ENDBRANCH  21  22
ENDBRANCH  19  21
ENDBRANCH  14  15
ENDBRANCH   3  14
TORSDOF 6
ENDMDL
MODEL 2
REMARK VINA RESULT:      -7.2      2.571      8.118
REMARK  Name = 
REMARK  7 active torsions:
REMARK  status: ('A' for Active; 'I' for Inactive)
REMARK    1  A    between atoms: C_1  and  C_2
REMARK    2  A    between atoms: C_2  and  C_4
REMARK    3  A    between atoms: C_9  and  C_10
REMARK    4  A    between atoms: N_12  and  C_13
REMARK    5  A    between atoms: C_13  and  C_14
REMARK    6  A    between atoms: C_18  and  O_19
REMARK    7  A    between atoms: O_19  and  C_20
REMARK                            x       y       z     vdW  Elec       q    Type
REMARK                         _______ _______ _______ _____ _____    ______ ____
ROOT
ATOM      1  C   UNL     1       4.723   3.677  17.173  0.00  0.00    +0.000 C 
ATOM      2  O   UNL     1       3.556   3.397  16.908  0.00  0.00    +0.000 OA
ATOM      3  N   UNL     1       5.242   3.498  18.438  0.00  0.00    +0.000 N 
ATOM      4  H   UNL     1       6.060   4.028  18.706  0.00  0.00    +0.000 HD
ENDROOT
BRANCH   1  10
ATOM      5  C   UNL     1       6.841   4.852  16.170  0.00  0.00    +0.000 A 
ATOM      6  C   UNL     1       7.588   5.151  15.010  0.00  0.00    +0.000 A 
ATOM      7  C   UNL     1       7.170   4.723  13.750  0.00  0.00    +0.000 A 
ATOM      8  C   UNL     1       5.989   4.008  13.631  0.00  0.00    +0.000 A 
ATOM      9  C   UNL     1       5.227   3.731  14.770  0.00  0.00    +0.000 A 
ATOM     10  C   UNL     1       5.633   4.138  16.062  0.00  0.00    +0.000 A 
BRANCH   5  12
ATOM     11  C   UNL     1       7.349   6.845  17.716  0.00  0.00    +0.000 C 
ATOM     12  C   UNL     1       7.385   5.362  17.460  0.00  0.00    +0.000 C 
ATOM     13  O   UNL     1       7.867   4.591  18.278  0.00  0.00    +0.000 OA
ENDBRANCH   5  12
ENDBRANCH   1  10
BRANCH   3  14
ATOM     14  C   UNL     1       4.455   2.974  19.531  0.00  0.00    +0.000 C 
BRANCH  14  15
ATOM     15  C   UNL     1       3.255   3.820  19.865  0.00  0.00    +0.000 A 
ATOM     16  C   UNL     1       2.040   3.221  20.205  0.00  0.00    +0.000 A 
ATOM     17  C   UNL     1       0.977   4.028  20.583  0.00  0.00    +0.000 A 
ATOM     18  N   UNL     1       1.038   5.375  20.652  0.00  0.00    +0.000 NA
ATOM     19  C   UNL     1       2.208   5.938  20.291  0.00  0.00    +0.000 A 
ATOM     20  C   UNL     1       3.323   5.218  19.880  0.00  0.00    +0.000 A 
BRANCH  19  21
ATOM     21  O   UNL     1       2.337   7.315  20.341  0.00  0.00    +0.000 OA
BRANCH  21  22
ATOM     22  C   UNL     1       1.146   8.057  20.707  0.00  0.00    +0.000 C 
ATOM     23  C   UNL     1       1.228   8.885  22.009  0.00  0.00    +0.000 C 
ATOM     24  C   UNL     1       0.829  10.148  21.239  0.00  0.00    +0.000 C 
ATOM     25  C   UNL     1       0.946   9.374  19.924  0.00  0.00    +0.000 C 
ENDBRANCH  21  22
ENDBRANCH  19  21
ENDBRANCH  14  15
ENDBRANCH   3  14
TORSDOF 6
ENDMDL
MODEL 3
REMARK VINA RESULT:      -7.2      1.884      2.544
REMARK  Name = 
REMARK  7 active torsions:
REMARK  status: ('A' for Active; 'I' for Inactive)
REMARK    1  A    between atoms: C_1  and  C_2
REMARK    2  A    between atoms: C_2  and  C_4
REMARK    3  A    between atoms: C_9  and  C_10
REMARK    4  A    between atoms: N_12  and  C_13
REMARK    5  A    between atoms: C_13  and  C_14
REMARK    6  A    between atoms: C_18  and  O_19
REMARK    7  A    between atoms: O_19  and  C_20
REMARK                            x       y       z     vdW  Elec       q    Type
REMARK                         _______ _______ _______ _____ _____    ______ ____
ROOT
ATOM      1  C   UNL     1       1.594   9.369  18.140  0.00  0.00    +0.000 C 
ATOM      2  O   UNL     1       2.336   9.913  17.327  0.00  0.00    +0.000 OA
ATOM      3  N   UNL     1       1.982   8.247  18.841  0.00  0.00    +0.000 N 
ATOM      4  H   UNL     1       1.269   7.646  19.230  0.00  0.00    +0.000 HD
ENDROOT
BRANCH   1  10
ATOM      5  C   UNL     1      -0.051  10.919  19.470  0.00  0.00    +0.000 A 
ATOM      6  C   UNL     1      -1.356  11.447  19.570  0.00  0.00    +0.000 A 
ATOM      7  C   UNL     1      -2.347  11.105  18.650  0.00  0.00    +0.000 A 
ATOM      8  C   UNL     1      -2.052  10.213  17.631  0.00  0.00    +0.000 A 
ATOM      9  C   UNL     1      -0.770   9.662  17.540  0.00  0.00    +0.000 A 
ATOM     10  C   UNL     1       0.260  10.002  18.448  0.00  0.00    +0.000 A 
BRANCH   5  12
ATOM     11  C   UNL     1       1.666  12.648  20.296  0.00  0.00    +0.000 C 
ATOM     12  C   UNL     1       0.923  11.356  20.509  0.00  0.00    +0.000 C 
ATOM     13  O   UNL     1       1.125  10.667  21.500  0.00  0.00    +0.000 OA
ENDBRANCH   5  12
ENDBRANCH   1  10
BRANCH   3  14
ATOM     14  C   UNL     1       3.281   7.637  18.668  0.00  0.00    +0.000 C 
BRANCH  14  15
ATOM     15  C   UNL     1       3.220   6.264  18.050  0.00  0.00    +0.000 A 
ATOM     16  C   UNL     1       4.319   5.750  17.358  0.00  0.00    +0.000 A 
ATOM     17  C   UNL     1       4.257   4.453  16.871  0.00  0.00    +0.000 A 
ATOM     18  N   UNL     1       3.194   3.637  17.026  0.00  0.00    +0.000 NA
ATOM     19  C   UNL     1       2.131   4.158  17.669  0.00  0.00    +0.000 A 
ATOM     20  C   UNL     1       2.087   5.451  18.177  0.00  0.00    +0.000 A 
BRANCH  19  21
ATOM     21  O   UNL     1       1.008   3.373  17.864  0.00  0.00    +0.000 OA
BRANCH  21  22
ATOM     22  C   UNL     1       0.976   2.595  19.088  0.00  0.00    +0.000 C 
ATOM     23  C   UNL     1       2.342   2.115  19.629  0.00  0.00    +0.000 C 
ATOM     24  C   UNL     1       2.053   2.789  20.975  0.00  0.00    +0.000 C 
ATOM     25  C   UNL     1       0.800   3.432  20.375  0.00  0.00    +0.000 C 
ENDBRANCH  21  22
ENDBRANCH  19  21
ENDBRANCH  14  15
ENDBRANCH   3  14
TORSDOF 6
ENDMDL
MODEL 4
REMARK VINA RESULT:      -7.2      2.276      8.180
REMARK  Name = 
REMARK  7 active torsions:
REMARK  status: ('A' for Active; 'I' for Inactive)
REMARK    1  A    between atoms: C_1  and  C_2
REMARK    2  A    between atoms: C_2  and  C_4
REMARK    3  A    between atoms: C_9  and  C_10
REMARK    4  A    between atoms: N_12  and  C_13
REMARK    5  A    between atoms: C_13  and  C_14
REMARK    6  A    between atoms: C_18  and  O_19
REMARK    7  A    between atoms: O_19  and  C_20
REMARK                            x       y       z     vdW  Elec       q    Type
REMARK                         _______ _______ _______ _____ _____    ______ ____
ROOT
ATOM      1  C   UNL     1       3.950   5.009  17.909  0.00  0.00    +0.000 C 
ATOM      2  O   UNL     1       3.425   3.993  18.356  0.00  0.00    +0.000 OA
ATOM      3  N   UNL     1       3.592   6.265  18.350  0.00  0.00    +0.000 N 
ATOM      4  H   UNL     1       3.780   7.061  17.755  0.00  0.00    +0.000 HD
ENDROOT
BRANCH   1  10
ATOM      5  C   UNL     1       6.459   5.060  17.148  0.00  0.00    +0.000 A 
ATOM      6  C   UNL     1       7.382   4.832  16.105  0.00  0.00    +0.000 A 
ATOM      7  C   UNL     1       6.961   4.388  14.851  0.00  0.00    +0.000 A 
ATOM      8  C   UNL     1       5.609   4.186  14.618  0.00  0.00    +0.000 A 
ATOM      9  C   UNL     1       4.684   4.436  15.636  0.00  0.00    +0.000 A 
ATOM     10  C   UNL     1       5.082   4.871  16.922  0.00  0.00    +0.000 A 
BRANCH   5  12
ATOM     11  C   UNL     1       7.875   6.776  18.441  0.00  0.00    +0.000 C 
ATOM     12  C   UNL     1       7.024   5.533  18.442  0.00  0.00    +0.000 C 
ATOM     13  O   UNL     1       6.815   4.912  19.475  0.00  0.00    +0.000 OA
ENDBRANCH   5  12
ENDBRANCH   1  10
BRANCH   3  14
ATOM     14  C   UNL     1       2.579   6.472  19.361  0.00  0.00    +0.000 C 
BRANCH  14  15
ATOM     15  C   UNL     1       2.028   7.875  19.378  0.00  0.00    +0.000 A 
ATOM     16  C   UNL     1       1.801   8.559  18.182  0.00  0.00    +0.000 A 
ATOM     17  C   UNL     1       1.218   9.817  18.230  0.00  0.00    +0.000 A 
ATOM     18  N   UNL     1       0.846  10.434  19.371  0.00  0.00    +0.000 NA
ATOM     19  C   UNL     1       1.101   9.773  20.517  0.00  0.00    +0.000 A 
ATOM     20  C   UNL     1       1.697   8.519  20.575  0.00  0.00    +0.000 A 
BRANCH  19  21
ATOM     21  O   UNL     1       0.742  10.349  21.723  0.00  0.00    +0.000 OA
BRANCH  21  22
ATOM     22  C   UNL     1      -0.564  10.979  21.767  0.00  0.00    +0.000 C 
ATOM     23  C   UNL     1      -1.303  10.928  23.123  0.00  0.00    +0.000 C 
ATOM     24  C   UNL     1      -1.433  12.455  23.117  0.00  0.00    +0.000 C 
ATOM     25  C   UNL     1      -0.529  12.520  21.884  0.00  0.00    +0.000 C 
ENDBRANCH  21  22
ENDBRANCH  19  21
ENDBRANCH  14  15
ENDBRANCH   3  14
TORSDOF 6
ENDMDL
MODEL 5
REMARK VINA RESULT:      -7.1      0.967      1.354
REMARK  Name = 
REMARK  7 active torsions:
REMARK  status: ('A' for Active; 'I' for Inactive)
REMARK    1  A    between atoms: C_1  and  C_2
REMARK    2  A    between atoms: C_2  and  C_4
REMARK    3  A    between atoms: C_9  and  C_10
REMARK    4  A    between atoms: N_12  and  C_13
REMARK    5  A    between atoms: C_13  and  C_14
REMARK    6  A    between atoms: C_18  and  O_19
REMARK    7  A    between atoms: O_19  and  C_20
REMARK                            x       y       z     vdW  Elec       q    Type
REMARK                         _______ _______ _______ _____ _____    ______ ____
ROOT
ATOM      1  C   UNL     1       1.097   9.319  19.057  0.00  0.00    +0.000 C 
ATOM      2  O   UNL     1       0.691   9.828  18.016  0.00  0.00    +0.000 OA
ATOM      3  N   UNL     1       2.117   8.391  19.062  0.00  0.00    +0.000 N 
ATOM      4  H   UNL     1       2.199   7.763  19.849  0.00  0.00    +0.000 HD
ENDROOT
BRANCH   1  10
ATOM      5  C   UNL     1       0.248  11.115  20.769  0.00  0.00    +0.000 A 
ATOM      6  C   UNL     1      -0.335  11.362  22.030  0.00  0.00    +0.000 A 
ATOM      7  C   UNL     1      -0.673  10.315  22.888  0.00  0.00    +0.000 A 
ATOM      8  C   UNL     1      -0.413   9.008  22.505  0.00  0.00    +0.000 A 
ATOM      9  C   UNL     1       0.191   8.754  21.269  0.00  0.00    +0.000 A 
ATOM     10  C   UNL     1       0.530   9.794  20.372  0.00  0.00    +0.000 A 
BRANCH   5  12
ATOM     11  C   UNL     1       1.970  12.855  19.977  0.00  0.00    +0.000 C 
ATOM     12  C   UNL     1       0.566  12.310  19.939  0.00  0.00    +0.000 C 
ATOM     13  O   UNL     1      -0.300  12.844  19.261  0.00  0.00    +0.000 OA
ENDBRANCH   5  12
ENDBRANCH   1  10
BRANCH   3  14
ATOM     14  C   UNL     1       2.773   7.955  17.849  0.00  0.00    +0.000 C 
BRANCH  14  15
ATOM     15  C   UNL     1       3.446   6.613  17.982  0.00  0.00    +0.000 A 
ATOM     16  C   UNL     1       4.451   6.236  17.090  0.00  0.00    +0.000 A 
ATOM     17  C   UNL     1       5.105   5.028  17.288  0.00  0.00    +0.000 A 
ATOM     18  N   UNL     1       4.836   4.181  18.303  0.00  0.00    +0.000 NA
ATOM     19  C   UNL     1       3.842   4.547  19.137  0.00  0.00    +0.000 A 
ATOM     20  C   UNL     1       3.116   5.725  19.012  0.00  0.00    +0.000 A 
BRANCH  19  21
ATOM     21  O   UNL     1       3.516   3.723  20.201  0.00  0.00    +0.000 OA
BRANCH  21  22
ATOM     22  C   UNL     1       2.615   2.625  19.908  0.00  0.00    +0.000 C 
ATOM     23  C   UNL     1       1.116   2.879  20.180  0.00  0.00    +0.000 C 
ATOM     24  C   UNL     1       0.783   2.510  18.731  0.00  0.00    +0.000 C 
ATOM     25  C   UNL     1       2.278   2.457  18.409  0.00  0.00    +0.000 C 
ENDBRANCH  21  22
ENDBRANCH  19  21
ENDBRANCH  14  15
ENDBRANCH   3  14
TORSDOF 6
ENDMDL
MODEL 6
REMARK VINA RESULT:      -7.1      2.229      7.893
REMARK  Name = 
REMARK  7 active torsions:
REMARK  status: ('A' for Active; 'I' for Inactive)
REMARK    1  A    between atoms: C_1  and  C_2
REMARK    2  A    between atoms: C_2  and  C_4
REMARK    3  A    between atoms: C_9  and  C_10
REMARK    4  A    between atoms: N_12  and  C_13
REMARK    5  A    between atoms: C_13  and  C_14
REMARK    6  A    between atoms: C_18  and  O_19
REMARK    7  A    between atoms: O_19  and  C_20
REMARK                            x       y       z     vdW  Elec       q    Type
REMARK                         _______ _______ _______ _____ _____    ______ ____
ROOT
ATOM      1  C   UNL     1       2.923   6.029  18.817  0.00  0.00    +0.000 C 
ATOM      2  O   UNL     1       3.602   6.371  19.783  0.00  0.00    +0.000 OA
ATOM      3  N   UNL     1       2.381   6.952  17.948  0.00  0.00    +0.000 N 
ATOM      4  H   UNL     1       1.584   6.682  17.389  0.00  0.00    +0.000 HD
ENDROOT
BRANCH   1  10
ATOM      5  C   UNL     1       3.745   3.644  18.100  0.00  0.00    +0.000 A 
ATOM      6  C   UNL     1       3.414   2.284  17.925  0.00  0.00    +0.000 A 
ATOM      7  C   UNL     1       2.129   1.811  18.196  0.00  0.00    +0.000 A 
ATOM      8  C   UNL     1       1.154   2.698  18.625  0.00  0.00    +0.000 A 
ATOM      9  C   UNL     1       1.465   4.054  18.775  0.00  0.00    +0.000 A 
ATOM     10  C   UNL     1       2.762   4.558  18.523  0.00  0.00    +0.000 A 
BRANCH   5  12
ATOM     11  C   UNL     1       5.526   4.218  16.333  0.00  0.00    +0.000 C 
ATOM     12  C   UNL     1       5.147   4.032  17.779  0.00  0.00    +0.000 C 
ATOM     13  O   UNL     1       5.971   4.176  18.671  0.00  0.00    +0.000 OA
ENDBRANCH   5  12
ENDBRANCH   1  10
BRANCH   3  14
ATOM     14  C   UNL     1       2.571   8.375  18.112  0.00  0.00    +0.000 C 
BRANCH  14  15
ATOM     15  C   UNL     1       1.402   9.063  18.770  0.00  0.00    +0.000 A 
ATOM     16  C   UNL     1       1.216   8.975  20.151  0.00  0.00    +0.000 A 
ATOM     17  C   UNL     1       0.177   9.684  20.734  0.00  0.00    +0.000 A 
ATOM     18  N   UNL     1      -0.679  10.471  20.048  0.00  0.00    +0.000 NA
ATOM     19  C   UNL     1      -0.504  10.520  18.713  0.00  0.00    +0.000 A 
ATOM     20  C   UNL     1       0.494   9.832  18.034  0.00  0.00    +0.000 A 
BRANCH  19  21
ATOM     21  O   UNL     1      -1.347  11.311  17.951  0.00  0.00    +0.000 OA
BRANCH  21  22
ATOM     22  C   UNL     1      -2.216  10.611  17.025  0.00  0.00    +0.000 C 
ATOM     23  C   UNL     1      -3.286   9.690  17.653  0.00  0.00    +0.000 C 
ATOM     24  C   UNL     1      -4.387  10.441  16.898  0.00  0.00    +0.000 C 
ATOM     25  C   UNL     1      -3.356  11.475  16.439  0.00  0.00    +0.000 C 
ENDBRANCH  21  22
ENDBRANCH  19  21
ENDBRANCH  14  15
ENDBRANCH   3  14
TORSDOF 6
ENDMDL
MODEL 7
REMARK VINA RESULT:      -7.1      1.434      1.733
REMARK  Name = 
REMARK  7 active torsions:
REMARK  status: ('A' for Active; 'I' for Inactive)
REMARK    1  A    between atoms: C_1  and  C_2
REMARK    2  A    between atoms: C_2  and  C_4
REMARK    3  A    between atoms: C_9  and  C_10
REMARK    4  A    between atoms: N_12  and  C_13
REMARK    5  A    between atoms: C_13  and  C_14
REMARK    6  A    between atoms: C_18  and  O_19
REMARK    7  A    between atoms: O_19  and  C_20
REMARK                            x       y       z     vdW  Elec       q    Type
REMARK                         _______ _______ _______ _____ _____    ______ ____
ROOT
ATOM      1  C   UNL     1       1.809   8.808  18.595  0.00  0.00    +0.000 C 
ATOM      2  O   UNL     1       1.593   9.361  17.520  0.00  0.00    +0.000 OA
ATOM      3  N   UNL     1       2.745   7.804  18.719  0.00  0.00    +0.000 N 
ATOM      4  H   UNL     1       2.667   7.160  19.495  0.00  0.00    +0.000 HD
ENDROOT
BRANCH   1  10
ATOM      5  C   UNL     1       0.506  10.567  20.038  0.00  0.00    +0.000 A 
ATOM      6  C   UNL     1      -0.165  10.837  21.250  0.00  0.00    +0.000 A 
ATOM      7  C   UNL     1      -0.285   9.864  22.242  0.00  0.00    +0.000 A 
ATOM      8  C   UNL     1       0.283   8.615  22.044  0.00  0.00    +0.000 A 
ATOM      9  C   UNL     1       0.974   8.347  20.858  0.00  0.00    +0.000 A 
ATOM     10  C   UNL     1       1.099   9.308  19.828  0.00  0.00    +0.000 A 
BRANCH   5  12
ATOM     11  C   UNL     1       1.835  12.500  18.980  0.00  0.00    +0.000 C 
ATOM     12  C   UNL     1       0.572  11.683  19.053  0.00  0.00    +0.000 C 
ATOM     13  O   UNL     1      -0.388  11.938  18.339  0.00  0.00    +0.000 OA
ENDBRANCH   5  12
ENDBRANCH   1  10
BRANCH   3  14
ATOM     14  C   UNL     1       3.532   7.335  17.600  0.00  0.00    +0.000 C 
BRANCH  14  15
ATOM     15  C   UNL     1       3.566   5.833  17.481  0.00  0.00    +0.000 A 
ATOM     16  C   UNL     1       4.688   5.192  16.952  0.00  0.00    +0.000 A 
ATOM     17  C   UNL     1       4.719   3.805  16.930  0.00  0.00    +0.000 A 
ATOM     18  N   UNL     1       3.727   3.019  17.396  0.00  0.00    +0.000 NA
ATOM     19  C   UNL     1       2.639   3.654  17.874  0.00  0.00    +0.000 A 
ATOM     20  C   UNL     1       2.503   5.037  17.922  0.00  0.00    +0.000 A 
BRANCH  19  21
ATOM     21  O   UNL     1       1.585   2.907  18.370  0.00  0.00    +0.000 OA
BRANCH  21  22
ATOM     22  C   UNL     1       1.750   2.380  19.712  0.00  0.00    +0.000 C 
ATOM     23  C   UNL     1       3.067   2.744  20.433  0.00  0.00    +0.000 C 
ATOM     24  C   UNL     1       2.272   3.330  21.604  0.00  0.00    +0.000 C 
ATOM     25  C   UNL     1       0.979   3.156  20.804  0.00  0.00    +0.000 C 
ENDBRANCH  21  22
ENDBRANCH  19  21
ENDBRANCH  14  15
ENDBRANCH   3  14
TORSDOF 6
ENDMDL
MODEL 8
REMARK VINA RESULT:      -7.1      0.926      1.118
REMARK  Name = 
REMARK  7 active torsions:
REMARK  status: ('A' for Active; 'I' for Inactive)
REMARK    1  A    between atoms: C_1  and  C_2
REMARK    2  A    between atoms: C_2  and  C_4
REMARK    3  A    between atoms: C_9  and  C_10
REMARK    4  A    between atoms: N_12  and  C_13
REMARK    5  A    between atoms: C_13  and  C_14
REMARK    6  A    between atoms: C_18  and  O_19
REMARK    7  A    between atoms: O_19  and  C_20
REMARK                            x       y       z     vdW  Elec       q    Type
REMARK                         _______ _______ _______ _____ _____    ______ ____
ROOT
ATOM      1  C   UNL     1       1.006   9.313  19.107  0.00  0.00    +0.000 C 
ATOM      2  O   UNL     1       0.490   9.772  18.091  0.00  0.00    +0.000 OA
ATOM      3  N   UNL     1       2.112   8.492  19.052  0.00  0.00    +0.000 N 
ATOM      4  H   UNL     1       2.302   7.880  19.833  0.00  0.00    +0.000 HD
ENDROOT
BRANCH   1  10
ATOM      5  C   UNL     1       0.279  11.045  20.937  0.00  0.00    +0.000 A 
ATOM      6  C   UNL     1      -0.287  11.247  22.214  0.00  0.00    +0.000 A 
ATOM      7  C   UNL     1      -0.694  10.171  23.003  0.00  0.00    +0.000 A 
ATOM      8  C   UNL     1      -0.523   8.878  22.533  0.00  0.00    +0.000 A 
ATOM      9  C   UNL     1       0.063   8.666  21.280  0.00  0.00    +0.000 A 
ATOM     10  C   UNL     1       0.471   9.738  20.452  0.00  0.00    +0.000 A 
BRANCH   5  12
ATOM     11  C   UNL     1      -0.375  12.993  19.388  0.00  0.00    +0.000 C 
ATOM     12  C   UNL     1       0.677  12.269  20.186  0.00  0.00    +0.000 C 
ATOM     13  O   UNL     1       1.836  12.659  20.206  0.00  0.00    +0.000 OA
ENDBRANCH   5  12
ENDBRANCH   1  10
BRANCH   3  14
ATOM     14  C   UNL     1       2.736   8.116  17.803  0.00  0.00    +0.000 C 
BRANCH  14  15
ATOM     15  C   UNL     1       3.155   6.670  17.755  0.00  0.00    +0.000 A 
ATOM     16  C   UNL     1       4.485   6.328  17.503  0.00  0.00    +0.000 A 
ATOM     17  C   UNL     1       4.853   4.990  17.544  0.00  0.00    +0.000 A 
ATOM     18  N   UNL     1       4.001   3.981  17.821  0.00  0.00    +0.000 NA
ATOM     19  C   UNL     1       2.716   4.326  18.032  0.00  0.00    +0.000 A 
ATOM     20  C   UNL     1       2.245   5.633  17.994  0.00  0.00    +0.000 A 
BRANCH  19  21
ATOM     21  O   UNL     1       1.791   3.339  18.324  0.00  0.00    +0.000 OA
BRANCH  21  22
ATOM     22  C   UNL     1       1.943   2.679  19.607  0.00  0.00    +0.000 C 
ATOM     23  C   UNL     1       3.079   3.201  20.514  0.00  0.00    +0.000 C 
ATOM     24  C   UNL     1       2.073   3.450  21.643  0.00  0.00    +0.000 C 
ATOM     25  C   UNL     1       0.926   3.127  20.681  0.00  0.00    +0.000 C 
ENDBRANCH  21  22
ENDBRANCH  19  21
ENDBRANCH  14  15
ENDBRANCH   3  14
TORSDOF 6
ENDMDL
MODEL 9
REMARK VINA RESULT:      -7.1      2.277      8.099
REMARK  Name = 
REMARK  7 active torsions:
REMARK  status: ('A' for Active; 'I' for Inactive)
REMARK    1  A    between atoms: C_1  and  C_2
REMARK    2  A    between atoms: C_2  and  C_4
REMARK    3  A    between atoms: C_9  and  C_10
REMARK    4  A    between atoms: N_12  and  C_13
REMARK    5  A    between atoms: C_13  and  C_14
REMARK    6  A    between atoms: C_18  and  O_19
REMARK    7  A    between atoms: O_19  and  C_20
REMARK                            x       y       z     vdW  Elec       q    Type
REMARK                         _______ _______ _______ _____ _____    ______ ____
ROOT
ATOM      1  C   UNL     1       4.397   5.160  17.504  0.00  0.00    +0.000 C 
ATOM      2  O   UNL     1       4.133   4.140  18.136  0.00  0.00    +0.000 OA
ATOM      3  N   UNL     1       3.901   6.392  17.874  0.00  0.00    +0.000 N 
ATOM      4  H   UNL     1       3.852   7.124  17.180  0.00  0.00    +0.000 HD
ENDROOT
BRANCH   1  10
ATOM      5  C   UNL     1       6.655   5.631  16.257  0.00  0.00    +0.000 A 
ATOM      6  C   UNL     1       7.442   5.398  15.109  0.00  0.00    +0.000 A 
ATOM      7  C   UNL     1       6.980   4.592  14.068  0.00  0.00    +0.000 A 
ATOM      8  C   UNL     1       5.718   4.026  14.152  0.00  0.00    +0.000 A 
ATOM      9  C   UNL     1       4.919   4.274  15.273  0.00  0.00    +0.000 A 
ATOM     10  C   UNL     1       5.366   5.074  16.351  0.00  0.00    +0.000 A 
BRANCH   5  12
ATOM     11  C   UNL     1       7.703   5.878  18.594  0.00  0.00    +0.000 C 
ATOM     12  C   UNL     1       7.252   6.509  17.303  0.00  0.00    +0.000 C 
ATOM     13  O   UNL     1       7.352   7.714  17.119  0.00  0.00    +0.000 OA
ENDBRANCH   5  12
ENDBRANCH   1  10
BRANCH   3  14
ATOM     14  C   UNL     1       3.040   6.567  19.023  0.00  0.00    +0.000 C 
BRANCH  14  15
ATOM     15  C   UNL     1       2.254   7.852  18.991  0.00  0.00    +0.000 A 
ATOM     16  C   UNL     1       2.431   8.763  17.948  0.00  0.00    +0.000 A 
ATOM     17  C   UNL     1       1.635   9.898  17.907  0.00  0.00    +0.000 A 
ATOM     18  N   UNL     1       0.681  10.185  18.818  0.00  0.00    +0.000 NA
ATOM     19  C   UNL     1       0.544   9.311  19.834  0.00  0.00    +0.000 A 
ATOM     20  C   UNL     1       1.306   8.157  19.974  0.00  0.00    +0.000 A 
BRANCH  19  21
ATOM     21  O   UNL     1      -0.418   9.545  20.801  0.00  0.00    +0.000 OA
BRANCH  21  22
ATOM     22  C   UNL     1      -0.140  10.623  21.731  0.00  0.00    +0.000 C 
ATOM     23  C   UNL     1      -0.987  11.905  21.566  0.00  0.00    +0.000 C 
ATOM     24  C   UNL     1      -1.434  11.807  23.028  0.00  0.00    +0.000 C 
ATOM     25  C   UNL     1      -0.764  10.435  23.133  0.00  0.00    +0.000 C 
ENDBRANCH  21  22
ENDBRANCH  19  21
ENDBRANCH  14  15
ENDBRANCH   3  14
TORSDOF 6
ENDMDL
