MODEL 1
REMARK VINA RESULT:      -7.6      0.000      0.000
REMARK  Name = 
REMARK  3 active torsions:
REMARK  status: ('A' for Active; 'I' for Inactive)
REMARK    1  A    between atoms: C_1  and  C_2
REMARK    2  A    between atoms: C_12  and  O_13
REMARK    3  A    between atoms: C_16  and  N_17
REMARK                            x       y       z     vdW  Elec       q    Type
REMARK                         _______ _______ _______ _____ _____    ______ ____
ROOT
ATOM      1  C   UNL     1       2.956   2.377  17.300  0.00  0.00    +0.000 C 
ATOM      2  C   UNL     1       3.620   3.226  18.428  0.00  0.00    +0.000 C 
ATOM      3  C   UNL     1       4.012   2.359  19.803  0.00  0.00    +0.000 C 
ATOM      4  C   UNL     1       3.115   2.623  21.214  0.00  0.00    +0.000 C 
ATOM      5  C   UNL     1       1.986   3.527  21.509  0.00  0.00    +0.000 C 
ATOM      6  C   UNL     1       1.151   4.670  20.537  0.00  0.00    +0.000 C 
ATOM      7  C   UNL     1       1.656   4.929  18.913  0.00  0.00    +0.000 C 
ATOM      8  C   UNL     1       2.472   6.044  18.072  0.00  0.00    +0.000 C 
ATOM      9  C   UNL     1       3.911   5.615  17.473  0.00  0.00    +0.000 A 
ATOM     10  C   UNL     1       4.740   6.549  16.837  0.00  0.00    +0.000 A 
ATOM     11  C   UNL     1       6.049   6.205  16.470  0.00  0.00    +0.000 A 
ATOM     12  C   UNL     1       6.562   4.915  16.715  0.00  0.00    +0.000 A 
ATOM     13  C   UNL     1       5.755   3.956  17.312  0.00  0.00    +0.000 A 
ATOM     14  C   UNL     1       4.461   4.273  17.701  0.00  0.00    +0.000 A 
ATOM     15  C   UNL     1       2.767   4.101  19.153  0.00  0.00    +0.000 C 
ENDROOT
BRANCH  15  16
ATOM     16  N   UNL     1       3.697   4.894  20.149  0.00  0.00    +0.000 NA
ATOM     17  H   UNL     1       4.690   5.093  19.891  0.00  0.00    +0.000 HD
ATOM     18  H   UNL     1       3.383   5.821  20.520  0.00  0.00    +0.000 HD
ENDBRANCH  15  16
BRANCH  12  19
ATOM     19  O   UNL     1       7.832   4.595  16.406  0.00  0.00    +0.000 OA
ATOM     20  H   UNL     1       8.057   3.952  15.718  0.00  0.00    +0.000 HD
ENDBRANCH  12  19
TORSDOF 2
ENDMDL
MODEL 2
REMARK VINA RESULT:      -7.2      2.586      5.031
REMARK  Name = 
REMARK  3 active torsions:
REMARK  status: ('A' for Active; 'I' for Inactive)
REMARK    1  A    between atoms: C_1  and  C_2
REMARK    2  A    between atoms: C_12  and  O_13
REMARK    3  A    between atoms: C_16  and  N_17
REMARK                            x       y       z     vdW  Elec       q    Type
REMARK                         _______ _______ _______ _____ _____    ______ ____
ROOT
ATOM      1  C   UNL     1       3.374   6.584  18.587  0.00  0.00    +0.000 C 
ATOM      2  C   UNL     1       4.167   5.255  18.788  0.00  0.00    +0.000 C 
ATOM      3  C   UNL     1       5.731   5.463  19.341  0.00  0.00    +0.000 C 
ATOM      4  C   UNL     1       7.016   5.151  18.283  0.00  0.00    +0.000 C 
ATOM      5  C   UNL     1       7.047   4.694  16.879  0.00  0.00    +0.000 C 
ATOM      6  C   UNL     1       5.792   4.290  15.779  0.00  0.00    +0.000 C 
ATOM      7  C   UNL     1       4.154   4.353  16.303  0.00  0.00    +0.000 C 
ATOM      8  C   UNL     1       2.990   3.315  16.730  0.00  0.00    +0.000 C 
ATOM      9  C   UNL     1       2.514   3.329  18.275  0.00  0.00    +0.000 A 
ATOM     10  C   UNL     1       1.600   2.385  18.762  0.00  0.00    +0.000 A 
ATOM     11  C   UNL     1       1.322   2.304  20.134  0.00  0.00    +0.000 A 
ATOM     12  C   UNL     1       1.940   3.173  21.057  0.00  0.00    +0.000 A 
ATOM     13  C   UNL     1       2.824   4.142  20.603  0.00  0.00    +0.000 A 
ATOM     14  C   UNL     1       3.130   4.234  19.253  0.00  0.00    +0.000 A 
ATOM     15  C   UNL     1       4.609   4.593  17.612  0.00  0.00    +0.000 C 
ENDROOT
BRANCH  15  16
ATOM     16  N   UNL     1       5.287   3.252  18.092  0.00  0.00    +0.000 NA
ATOM     17  H   UNL     1       5.043   2.849  19.024  0.00  0.00    +0.000 HD
ATOM     18  H   UNL     1       5.250   2.406  17.477  0.00  0.00    +0.000 HD
ENDBRANCH  15  16
BRANCH  12  19
ATOM     19  O   UNL     1       1.711   3.068  22.379  0.00  0.00    +0.000 OA
ATOM     20  H   UNL     1       0.845   3.241  22.775  0.00  0.00    +0.000 HD
ENDBRANCH  12  19
TORSDOF 2
ENDMDL
MODEL 3
REMARK VINA RESULT:      -6.8      1.159      1.159
REMARK  Name = 
REMARK  3 active torsions:
REMARK  status: ('A' for Active; 'I' for Inactive)
REMARK    1  A    between atoms: C_1  and  C_2
REMARK    2  A    between atoms: C_12  and  O_13
REMARK    3  A    between atoms: C_16  and  N_17
REMARK                            x       y       z     vdW  Elec       q    Type
REMARK                         _______ _______ _______ _____ _____    ______ ____
ROOT
ATOM      1  C   UNL     1       1.567   3.586  17.156  0.00  0.00    +0.000 C 
ATOM      2  C   UNL     1       2.817   3.754  18.076  0.00  0.00    +0.000 C 
ATOM      3  C   UNL     1       3.045   2.504  19.162  0.00  0.00    +0.000 C 
ATOM      4  C   UNL     1       2.772   2.795  20.807  0.00  0.00    +0.000 C 
ATOM      5  C   UNL     1       2.353   4.010  21.536  0.00  0.00    +0.000 C 
ATOM      6  C   UNL     1       1.992   5.599  20.998  0.00  0.00    +0.000 C 
ATOM      7  C   UNL     1       2.147   5.984  19.328  0.00  0.00    +0.000 C 
ATOM      8  C   UNL     1       3.178   6.782  18.370  0.00  0.00    +0.000 C 
ATOM      9  C   UNL     1       4.017   5.912  17.296  0.00  0.00    +0.000 A 
ATOM     10  C   UNL     1       5.018   6.498  16.511  0.00  0.00    +0.000 A 
ATOM     11  C   UNL     1       5.848   5.705  15.706  0.00  0.00    +0.000 A 
ATOM     12  C   UNL     1       5.692   4.305  15.652  0.00  0.00    +0.000 A 
ATOM     13  C   UNL     1       4.687   3.696  16.392  0.00  0.00    +0.000 A 
ATOM     14  C   UNL     1       3.862   4.454  17.210  0.00  0.00    +0.000 A 
ATOM     15  C   UNL     1       2.718   4.716  19.115  0.00  0.00    +0.000 C 
ENDROOT
BRANCH  15  16
ATOM     16  N   UNL     1       4.129   4.748  19.819  0.00  0.00    +0.000 NA
ATOM     17  H   UNL     1       4.800   3.960  19.680  0.00  0.00    +0.000 HD
ATOM     18  H   UNL     1       4.749   5.582  19.692  0.00  0.00    +0.000 HD
ENDBRANCH  15  16
BRANCH  12  19
ATOM     19  O   UNL     1       6.515   3.535  14.917  0.00  0.00    +0.000 OA
ATOM     20  H   UNL     1       6.971   3.863  14.128  0.00  0.00    +0.000 HD
ENDBRANCH  12  19
TORSDOF 2
ENDMDL
MODEL 4
REMARK VINA RESULT:      -6.7      1.645      2.402
REMARK  Name = 
REMARK  3 active torsions:
REMARK  status: ('A' for Active; 'I' for Inactive)
REMARK    1  A    between atoms: C_1  and  C_2
REMARK    2  A    between atoms: C_12  and  O_13
REMARK    3  A    between atoms: C_16  and  N_17
REMARK                            x       y       z     vdW  Elec       q    Type
REMARK                         _______ _______ _______ _____ _____    ______ ____
ROOT
ATOM      1  C   UNL     1       4.954   3.179  19.949  0.00  0.00    +0.000 C 
ATOM      2  C   UNL     1       3.895   4.122  19.297  0.00  0.00    +0.000 C 
ATOM      3  C   UNL     1       2.970   4.980  20.394  0.00  0.00    +0.000 C 
ATOM      4  C   UNL     1       1.338   4.569  20.579  0.00  0.00    +0.000 C 
ATOM      5  C   UNL     1       0.499   3.546  19.922  0.00  0.00    +0.000 C 
ATOM      6  C   UNL     1       0.852   2.384  18.709  0.00  0.00    +0.000 C 
ATOM      7  C   UNL     1       2.429   2.327  18.024  0.00  0.00    +0.000 C 
ATOM      8  C   UNL     1       3.158   2.770  16.649  0.00  0.00    +0.000 C 
ATOM      9  C   UNL     1       4.246   3.962  16.737  0.00  0.00    +0.000 A 
ATOM     10  C   UNL     1       4.836   4.493  15.582  0.00  0.00    +0.000 A 
ATOM     11  C   UNL     1       5.651   5.631  15.658  0.00  0.00    +0.000 A 
ATOM     12  C   UNL     1       5.909   6.265  16.890  0.00  0.00    +0.000 A 
ATOM     13  C   UNL     1       5.367   5.744  18.058  0.00  0.00    +0.000 A 
ATOM     14  C   UNL     1       4.544   4.628  18.011  0.00  0.00    +0.000 A 
ATOM     15  C   UNL     1       2.751   3.500  18.731  0.00  0.00    +0.000 C 
ENDROOT
BRANCH  15  16
ATOM     16  N   UNL     1       1.907   4.656  18.069  0.00  0.00    +0.000 NA
ATOM     17  H   UNL     1       0.866   4.580  18.020  0.00  0.00    +0.000 HD
ATOM     18  H   UNL     1       2.034   5.641  18.398  0.00  0.00    +0.000 HD
ENDBRANCH  15  16
BRANCH  12  19
ATOM     19  O   UNL     1       6.652   7.384  16.961  0.00  0.00    +0.000 OA
ATOM     20  H   UNL     1       6.300   8.225  17.288  0.00  0.00    +0.000 HD
ENDBRANCH  12  19
TORSDOF 2
ENDMDL
MODEL 5
REMARK VINA RESULT:      -6.7      1.470      1.710
REMARK  Name = 
REMARK  3 active torsions:
REMARK  status: ('A' for Active; 'I' for Inactive)
REMARK    1  A    between atoms: C_1  and  C_2
REMARK    2  A    between atoms: C_12  and  O_13
REMARK    3  A    between atoms: C_16  and  N_17
REMARK                            x       y       z     vdW  Elec       q    Type
REMARK                         _______ _______ _______ _____ _____    ______ ____
ROOT
ATOM      1  C   UNL     1       1.476   4.579  17.148  0.00  0.00    +0.000 C 
ATOM      2  C   UNL     1       2.556   3.770  17.933  0.00  0.00    +0.000 C 
ATOM      3  C   UNL     1       2.110   2.200  18.298  0.00  0.00    +0.000 C 
ATOM      4  C   UNL     1       1.772   1.804  19.909  0.00  0.00    +0.000 C 
ATOM      5  C   UNL     1       1.799   2.608  21.148  0.00  0.00    +0.000 C 
ATOM      6  C   UNL     1       2.194   4.254  21.435  0.00  0.00    +0.000 C 
ATOM      7  C   UNL     1       2.705   5.243  20.123  0.00  0.00    +0.000 C 
ATOM      8  C   UNL     1       4.086   5.868  19.558  0.00  0.00    +0.000 C 
ATOM      9  C   UNL     1       4.624   5.313  18.138  0.00  0.00    +0.000 A 
ATOM     10  C   UNL     1       5.870   5.707  17.630  0.00  0.00    +0.000 A 
ATOM     11  C   UNL     1       6.396   5.095  16.483  0.00  0.00    +0.000 A 
ATOM     12  C   UNL     1       5.688   4.083  15.804  0.00  0.00    +0.000 A 
ATOM     13  C   UNL     1       4.436   3.694  16.262  0.00  0.00    +0.000 A 
ATOM     14  C   UNL     1       3.898   4.271  17.404  0.00  0.00    +0.000 A 
ATOM     15  C   UNL     1       2.728   4.101  19.303  0.00  0.00    +0.000 C 
ENDROOT
BRANCH  15  16
ATOM     16  N   UNL     1       3.925   3.215  19.821  0.00  0.00    +0.000 NA
ATOM     17  H   UNL     1       3.776   2.201  20.022  0.00  0.00    +0.000 HD
ATOM     18  H   UNL     1       4.823   3.196  19.284  0.00  0.00    +0.000 HD
ENDBRANCH  15  16
BRANCH  12  19
ATOM     19  O   UNL     1       6.210   3.462  14.731  0.00  0.00    +0.000 OA
ATOM     20  H   UNL     1       6.482   3.937  13.933  0.00  0.00    +0.000 HD
ENDBRANCH  12  19
TORSDOF 2
ENDMDL
MODEL 6
REMARK VINA RESULT:      -6.6      1.657      2.603
REMARK  Name = 
REMARK  3 active torsions:
REMARK  status: ('A' for Active; 'I' for Inactive)
REMARK    1  A    between atoms: C_1  and  C_2
REMARK    2  A    between atoms: C_12  and  O_13
REMARK    3  A    between atoms: C_16  and  N_17
REMARK                            x       y       z     vdW  Elec       q    Type
REMARK                         _______ _______ _______ _____ _____    ______ ____
ROOT
ATOM      1  C   UNL     1       2.827   6.159  17.700  0.00  0.00    +0.000 C 
ATOM      2  C   UNL     1       3.257   4.660  17.630  0.00  0.00    +0.000 C 
ATOM      3  C   UNL     1       2.025   3.609  17.219  0.00  0.00    +0.000 C 
ATOM      4  C   UNL     1       1.418   2.564  18.405  0.00  0.00    +0.000 C 
ATOM      5  C   UNL     1       1.780   2.367  19.824  0.00  0.00    +0.000 C 
ATOM      6  C   UNL     1       2.964   3.115  20.816  0.00  0.00    +0.000 C 
ATOM      7  C   UNL     1       4.011   4.300  20.138  0.00  0.00    +0.000 C 
ATOM      8  C   UNL     1       5.549   4.403  19.647  0.00  0.00    +0.000 C 
ATOM      9  C   UNL     1       5.809   4.609  18.065  0.00  0.00    +0.000 A 
ATOM     10  C   UNL     1       7.106   4.587  17.534  0.00  0.00    +0.000 A 
ATOM     11  C   UNL     1       7.307   4.602  16.146  0.00  0.00    +0.000 A 
ATOM     12  C   UNL     1       6.220   4.651  15.250  0.00  0.00    +0.000 A 
ATOM     13  C   UNL     1       4.924   4.708  15.744  0.00  0.00    +0.000 A 
ATOM     14  C   UNL     1       4.694   4.679  17.113  0.00  0.00    +0.000 A 
ATOM     15  C   UNL     1       3.483   4.004  18.869  0.00  0.00    +0.000 C 
ENDROOT
BRANCH  15  16
ATOM     16  N   UNL     1       3.991   2.555  18.511  0.00  0.00    +0.000 NA
ATOM     17  H   UNL     1       3.598   1.726  19.010  0.00  0.00    +0.000 HD
ATOM     18  H   UNL     1       3.971   2.233  17.515  0.00  0.00    +0.000 HD
ENDBRANCH  15  16
BRANCH  12  19
ATOM     19  O   UNL     1       6.407   4.618  13.918  0.00  0.00    +0.000 OA
ATOM     20  H   UNL     1       6.398   5.415  13.369  0.00  0.00    +0.000 HD
ENDBRANCH  12  19
TORSDOF 2
ENDMDL
MODEL 7
REMARK VINA RESULT:      -6.3      2.407      4.977
REMARK  Name = 
REMARK  3 active torsions:
REMARK  status: ('A' for Active; 'I' for Inactive)
REMARK    1  A    between atoms: C_1  and  C_2
REMARK    2  A    between atoms: C_12  and  O_13
REMARK    3  A    between atoms: C_16  and  N_17
REMARK                            x       y       z     vdW  Elec       q    Type
REMARK                         _______ _______ _______ _____ _____    ______ ____
ROOT
ATOM      1  C   UNL     1       1.280   4.383  17.265  0.00  0.00    +0.000 C 
ATOM      2  C   UNL     1       2.349   5.041  18.192  0.00  0.00    +0.000 C 
ATOM      3  C   UNL     1       2.111   6.673  18.467  0.00  0.00    +0.000 C 
ATOM      4  C   UNL     1       3.181   7.781  17.764  0.00  0.00    +0.000 C 
ATOM      5  C   UNL     1       4.368   7.594  16.906  0.00  0.00    +0.000 C 
ATOM      6  C   UNL     1       5.130   6.181  16.297  0.00  0.00    +0.000 C 
ATOM      7  C   UNL     1       4.513   4.634  16.729  0.00  0.00    +0.000 C 
ATOM      8  C   UNL     1       4.905   3.419  17.722  0.00  0.00    +0.000 C 
ATOM      9  C   UNL     1       3.918   3.134  18.970  0.00  0.00    +0.000 A 
ATOM     10  C   UNL     1       4.241   2.184  19.949  0.00  0.00    +0.000 A 
ATOM     11  C   UNL     1       3.462   2.063  21.108  0.00  0.00    +0.000 A 
ATOM     12  C   UNL     1       2.331   2.878  21.317  0.00  0.00    +0.000 A 
ATOM     13  C   UNL     1       1.964   3.806  20.351  0.00  0.00    +0.000 A 
ATOM     14  C   UNL     1       2.726   3.959  19.201  0.00  0.00    +0.000 A 
ATOM     15  C   UNL     1       3.632   5.264  17.626  0.00  0.00    +0.000 C 
ENDROOT
BRANCH  15  16
ATOM     16  N   UNL     1       4.529   5.840  18.788  0.00  0.00    +0.000 NA
ATOM     17  H   UNL     1       5.558   5.661  18.791  0.00  0.00    +0.000 HD
ATOM     18  H   UNL     1       4.489   6.861  19.012  0.00  0.00    +0.000 HD
ENDBRANCH  15  16
BRANCH  12  19
ATOM     19  O   UNL     1       1.608   2.797  22.449  0.00  0.00    +0.000 OA
ATOM     20  H   UNL     1       1.896   2.284  23.217  0.00  0.00    +0.000 HD
ENDBRANCH  12  19
TORSDOF 2
ENDMDL
MODEL 8
REMARK VINA RESULT:      -6.2      2.583      5.052
REMARK  Name = 
REMARK  3 active torsions:
REMARK  status: ('A' for Active; 'I' for Inactive)
REMARK    1  A    between atoms: C_1  and  C_2
REMARK    2  A    between atoms: C_12  and  O_13
REMARK    3  A    between atoms: C_16  and  N_17
REMARK                            x       y       z     vdW  Elec       q    Type
REMARK                         _______ _______ _______ _____ _____    ______ ____
ROOT
ATOM      1  C   UNL     1       4.035   7.240  16.722  0.00  0.00    +0.000 C 
ATOM      2  C   UNL     1       4.622   6.139  17.659  0.00  0.00    +0.000 C 
ATOM      3  C   UNL     1       6.154   6.474  18.240  0.00  0.00    +0.000 C 
ATOM      4  C   UNL     1       7.461   5.567  17.660  0.00  0.00    +0.000 C 
ATOM      5  C   UNL     1       7.535   4.459  16.686  0.00  0.00    +0.000 C 
ATOM      6  C   UNL     1       6.325   3.654  15.774  0.00  0.00    +0.000 C 
ATOM      7  C   UNL     1       4.676   4.104  15.972  0.00  0.00    +0.000 C 
ATOM      8  C   UNL     1       3.351   3.523  16.696  0.00  0.00    +0.000 C 
ATOM      9  C   UNL     1       2.766   4.358  17.951  0.00  0.00    +0.000 A 
ATOM     10  C   UNL     1       1.698   3.868  18.714  0.00  0.00    +0.000 A 
ATOM     11  C   UNL     1       1.308   4.517  19.893  0.00  0.00    +0.000 A 
ATOM     12  C   UNL     1       1.966   5.682  20.338  0.00  0.00    +0.000 A 
ATOM     13  C   UNL     1       3.006   6.213  19.588  0.00  0.00    +0.000 A 
ATOM     14  C   UNL     1       3.424   5.582  18.424  0.00  0.00    +0.000 A 
ATOM     15  C   UNL     1       5.058   4.939  17.038  0.00  0.00    +0.000 C 
ENDROOT
BRANCH  15  16
ATOM     16  N   UNL     1       5.508   3.979  18.205  0.00  0.00    +0.000 NA
ATOM     17  H   UNL     1       4.842   3.270  18.585  0.00  0.00    +0.000 HD
ATOM     18  H   UNL     1       6.383   3.414  18.100  0.00  0.00    +0.000 HD
ENDBRANCH  15  16
BRANCH  12  19
ATOM     19  O   UNL     1       1.626   6.281  21.494  0.00  0.00    +0.000 OA
ATOM     20  H   UNL     1       1.910   5.950  22.358  0.00  0.00    +0.000 HD
ENDBRANCH  12  19
TORSDOF 2
ENDMDL
MODEL 9
REMARK VINA RESULT:      -6.1      2.481      4.821
REMARK  Name = 
REMARK  3 active torsions:
REMARK  status: ('A' for Active; 'I' for Inactive)
REMARK    1  A    between atoms: C_1  and  C_2
REMARK    2  A    between atoms: C_12  and  O_13
REMARK    3  A    between atoms: C_16  and  N_17
REMARK                            x       y       z     vdW  Elec       q    Type
REMARK                         _______ _______ _______ _____ _____    ______ ____
ROOT
ATOM      1  C   UNL     1       6.456   5.454  19.439  0.00  0.00    +0.000 C 
ATOM      2  C   UNL     1       5.360   4.817  18.529  0.00  0.00    +0.000 C 
ATOM      3  C   UNL     1       5.930   3.643  17.484  0.00  0.00    +0.000 C 
ATOM      4  C   UNL     1       5.991   3.989  15.827  0.00  0.00    +0.000 C 
ATOM      5  C   UNL     1       5.613   5.191  15.057  0.00  0.00    +0.000 C 
ATOM      6  C   UNL     1       4.954   6.700  15.542  0.00  0.00    +0.000 C 
ATOM      7  C   UNL     1       4.585   6.969  17.201  0.00  0.00    +0.000 C 
ATOM      8  C   UNL     1       3.273   7.027  18.146  0.00  0.00    +0.000 C 
ATOM      9  C   UNL     1       3.106   5.863  19.255  0.00  0.00    +0.000 A 
ATOM     10  C   UNL     1       1.944   5.763  20.033  0.00  0.00    +0.000 A 
ATOM     11  C   UNL     1       1.742   4.658  20.872  0.00  0.00    +0.000 A 
ATOM     12  C   UNL     1       2.699   3.627  20.966  0.00  0.00    +0.000 A 
ATOM     13  C   UNL     1       3.876   3.712  20.234  0.00  0.00    +0.000 A 
ATOM     14  C   UNL     1       4.096   4.787  19.384  0.00  0.00    +0.000 A 
ATOM     15  C   UNL     1       4.877   5.617  17.459  0.00  0.00    +0.000 C 
ENDROOT
BRANCH  15  16
ATOM     16  N   UNL     1       3.730   4.782  16.771  0.00  0.00    +0.000 NA
ATOM     17  H   UNL     1       3.806   4.523  15.762  0.00  0.00    +0.000 HD
ATOM     18  H   UNL     1       3.420   3.880  17.201  0.00  0.00    +0.000 HD
ENDBRANCH  15  16
BRANCH  12  19
ATOM     19  O   UNL     1       2.487   2.543  21.734  0.00  0.00    +0.000 OA
ATOM     20  H   UNL     1       2.629   2.544  22.692  0.00  0.00    +0.000 HD
ENDBRANCH  12  19
TORSDOF 2
ENDMDL
