MODEL 1
REMARK VINA RESULT:      -8.3      0.000      0.000
REMARK  Name = 
REMARK  5 active torsions:
REMARK  status: ('A' for Active; 'I' for Inactive)
REMARK    1  A    between atoms: C_1  and  C_2
REMARK    2  A    between atoms: C_2  and  N_3
REMARK    3  A    between atoms: C_2  and  C_11
REMARK    4  A    between atoms: C_4  and  C_6
REMARK    5  A    between atoms: C_16  and  C_17
REMARK                            x       y       z     vdW  Elec       q    Type
REMARK                         _______ _______ _______ _____ _____    ______ ____
ROOT
ATOM      1  C   UNL     1       2.753   5.362  19.906  0.00  0.00    +0.000 C 
ATOM      2  O   UNL     1       1.974   5.328  20.863  0.00  0.00    +0.000 OA
ATOM      3  N   UNL     1       2.911   6.417  19.029  0.00  0.00    +0.000 N 
ATOM      4  C   UNL     1       2.250   7.603  19.230  0.00  0.00    +0.000 A 
ATOM      5  N   UNL     1       1.647   8.026  20.309  0.00  0.00    +0.000 NA
ATOM      6  C   UNL     1       0.973   9.209  20.042  0.00  0.00    +0.000 A 
ATOM      7  C   UNL     1       1.116   9.668  18.744  0.00  0.00    +0.000 A 
ATOM      8  S   UNL     1       2.197   8.647  17.879  0.00  0.00    +0.000 S 
ATOM      9  H   UNL     1       3.385   6.307  18.144  0.00  0.00    +0.000 HD
ENDROOT
BRANCH   6  10
ATOM     10  C   UNL     1       0.174   9.889  21.059  0.00  0.00    +0.000 A 
ATOM     11  C   UNL     1       0.053   9.348  22.337  0.00  0.00    +0.000 A 
ATOM     12  C   UNL     1      -0.691  10.036  23.292  0.00  0.00    +0.000 A 
ATOM     13  C   UNL     1      -1.305  11.232  22.942  0.00  0.00    +0.000 A 
ATOM     14  C   UNL     1      -1.144  11.696  21.648  0.00  0.00    +0.000 A 
ATOM     15  N   UNL     1      -0.418  11.059  20.701  0.00  0.00    +0.000 NA
ENDBRANCH   6  10
BRANCH   1  17
ATOM     16  C   UNL     1       2.819   2.864  19.753  0.00  0.00    +0.000 C 
ATOM     17  C   UNL     1       3.648   4.137  19.600  0.00  0.00    +0.000 C 
BRANCH  17  18
ATOM     18  N   UNL     1       4.216   4.219  18.253  0.00  0.00    +0.000 N 
ATOM     19  C   UNL     1       5.570   4.320  18.017  0.00  0.00    +0.000 C 
ATOM     20  O   UNL     1       6.386   4.313  18.939  0.00  0.00    +0.000 OA
ATOM     21  H   UNL     1       3.588   4.141  17.454  0.00  0.00    +0.000 HD
BRANCH  19  22
ATOM     22  C   UNL     1       5.963   4.414  16.625  0.00  0.00    +0.000 A 
ATOM     23  C   UNL     1       5.286   4.056  15.470  0.00  0.00    +0.000 A 
ATOM     24  C   UNL     1       6.144   4.366  14.386  0.00  0.00    +0.000 A 
ATOM     25  C   UNL     1       7.295   4.879  14.934  0.00  0.00    +0.000 A 
ATOM     26  O   UNL     1       7.192   4.920  16.295  0.00  0.00    +0.000 OA
ENDBRANCH  19  22
ENDBRANCH  17  18
ENDBRANCH   1  17
TORSDOF 4
ENDMDL
MODEL 2
REMARK VINA RESULT:      -8.0      0.815      1.277
REMARK  Name = 
REMARK  5 active torsions:
REMARK  status: ('A' for Active; 'I' for Inactive)
REMARK    1  A    between atoms: C_1  and  C_2
REMARK    2  A    between atoms: C_2  and  N_3
REMARK    3  A    between atoms: C_2  and  C_11
REMARK    4  A    between atoms: C_4  and  C_6
REMARK    5  A    between atoms: C_16  and  C_17
REMARK                            x       y       z     vdW  Elec       q    Type
REMARK                         _______ _______ _______ _____ _____    ______ ____
ROOT
ATOM      1  C   UNL     1       2.535   5.559  20.019  0.00  0.00    +0.000 C 
ATOM      2  O   UNL     1       1.727   5.555  20.953  0.00  0.00    +0.000 OA
ATOM      3  N   UNL     1       2.744   6.599  19.136  0.00  0.00    +0.000 N 
ATOM      4  C   UNL     1       2.107   7.803  19.303  0.00  0.00    +0.000 A 
ATOM      5  N   UNL     1       1.484   8.254  20.359  0.00  0.00    +0.000 NA
ATOM      6  C   UNL     1       0.848   9.450  20.059  0.00  0.00    +0.000 A 
ATOM      7  C   UNL     1       1.039   9.890  18.761  0.00  0.00    +0.000 A 
ATOM      8  S   UNL     1       2.120   8.832  17.940  0.00  0.00    +0.000 S 
ATOM      9  H   UNL     1       3.240   6.467  18.266  0.00  0.00    +0.000 HD
ENDROOT
BRANCH   6  10
ATOM     10  C   UNL     1       0.036  10.161  21.045  0.00  0.00    +0.000 A 
ATOM     11  C   UNL     1      -0.627  11.336  20.695  0.00  0.00    +0.000 A 
ATOM     12  C   UNL     1      -1.416  11.973  21.649  0.00  0.00    +0.000 A 
ATOM     13  C   UNL     1      -1.511  11.431  22.924  0.00  0.00    +0.000 A 
ATOM     14  C   UNL     1      -0.814  10.265  23.193  0.00  0.00    +0.000 A 
ATOM     15  N   UNL     1      -0.049   9.616  22.287  0.00  0.00    +0.000 NA
ENDBRANCH   6  10
BRANCH   1  17
ATOM     16  C   UNL     1       2.541   3.059  19.891  0.00  0.00    +0.000 C 
ATOM     17  C   UNL     1       3.407   4.309  19.753  0.00  0.00    +0.000 C 
BRANCH  17  18
ATOM     18  N   UNL     1       4.020   4.364  18.425  0.00  0.00    +0.000 N 
ATOM     19  C   UNL     1       5.382   4.291  18.227  0.00  0.00    +0.000 C 
ATOM     20  O   UNL     1       6.163   4.142  19.167  0.00  0.00    +0.000 OA
ATOM     21  H   UNL     1       3.411   4.398  17.608  0.00  0.00    +0.000 HD
BRANCH  19  22
ATOM     22  C   UNL     1       5.824   4.384  16.849  0.00  0.00    +0.000 A 
ATOM     23  C   UNL     1       7.068   4.688  16.319  0.00  0.00    +0.000 A 
ATOM     24  C   UNL     1       6.930   4.639  14.910  0.00  0.00    +0.000 A 
ATOM     25  C   UNL     1       5.617   4.324  14.657  0.00  0.00    +0.000 A 
ATOM     26  O   UNL     1       4.937   4.159  15.830  0.00  0.00    +0.000 OA
ENDBRANCH  19  22
ENDBRANCH  17  18
ENDBRANCH   1  17
TORSDOF 4
ENDMDL
MODEL 3
REMARK VINA RESULT:      -7.6      3.691      8.949
REMARK  Name = 
REMARK  5 active torsions:
REMARK  status: ('A' for Active; 'I' for Inactive)
REMARK    1  A    between atoms: C_1  and  C_2
REMARK    2  A    between atoms: C_2  and  N_3
REMARK    3  A    between atoms: C_2  and  C_11
REMARK    4  A    between atoms: C_4  and  C_6
REMARK    5  A    between atoms: C_16  and  C_17
REMARK                            x       y       z     vdW  Elec       q    Type
REMARK                         _______ _______ _______ _____ _____    ______ ____
ROOT
ATOM      1  C   UNL     1       1.728   9.071  18.390  0.00  0.00    +0.000 C 
ATOM      2  O   UNL     1       2.296   9.047  17.295  0.00  0.00    +0.000 OA
ATOM      3  N   UNL     1       1.768   8.073  19.344  0.00  0.00    +0.000 N 
ATOM      4  C   UNL     1       2.565   6.969  19.174  0.00  0.00    +0.000 A 
ATOM      5  N   UNL     1       3.547   6.797  18.329  0.00  0.00    +0.000 NA
ATOM      6  C   UNL     1       3.989   5.482  18.379  0.00  0.00    +0.000 A 
ATOM      7  C   UNL     1       3.329   4.691  19.303  0.00  0.00    +0.000 A 
ATOM      8  S   UNL     1       2.207   5.645  20.192  0.00  0.00    +0.000 S 
ATOM      9  H   UNL     1       1.110   8.042  20.110  0.00  0.00    +0.000 HD
ENDROOT
BRANCH   6  10
ATOM     10  C   UNL     1       5.055   4.993  17.507  0.00  0.00    +0.000 A 
ATOM     11  C   UNL     1       4.754   4.481  16.246  0.00  0.00    +0.000 A 
ATOM     12  C   UNL     1       5.796   4.051  15.428  0.00  0.00    +0.000 A 
ATOM     13  C   UNL     1       7.102   4.130  15.894  0.00  0.00    +0.000 A 
ATOM     14  C   UNL     1       7.315   4.642  17.162  0.00  0.00    +0.000 A 
ATOM     15  N   UNL     1       6.328   5.079  17.977  0.00  0.00    +0.000 NA
ENDBRANCH   6  10
BRANCH   1  17
ATOM     16  C   UNL     1       1.717  11.557  18.683  0.00  0.00    +0.000 C 
ATOM     17  C   UNL     1       0.865  10.294  18.781  0.00  0.00    +0.000 C 
BRANCH  17  18
ATOM     18  N   UNL     1      -0.316  10.405  17.922  0.00  0.00    +0.000 N 
ATOM     19  C   UNL     1      -1.504  10.956  18.351  0.00  0.00    +0.000 C 
ATOM     20  O   UNL     1      -1.626  11.419  19.485  0.00  0.00    +0.000 OA
ATOM     21  H   UNL     1      -0.239  10.116  16.948  0.00  0.00    +0.000 HD
BRANCH  19  22
ATOM     22  C   UNL     1      -2.581  10.968  17.381  0.00  0.00    +0.000 A 
ATOM     23  C   UNL     1      -2.619  10.525  16.069  0.00  0.00    +0.000 A 
ATOM     24  C   UNL     1      -3.926  10.787  15.590  0.00  0.00    +0.000 A 
ATOM     25  C   UNL     1      -4.607  11.385  16.623  0.00  0.00    +0.000 A 
ATOM     26  O   UNL     1      -3.800  11.493  17.720  0.00  0.00    +0.000 OA
ENDBRANCH  19  22
ENDBRANCH  17  18
ENDBRANCH   1  17
TORSDOF 4
ENDMDL
MODEL 4
REMARK VINA RESULT:      -7.6      0.925      1.218
REMARK  Name = 
REMARK  5 active torsions:
REMARK  status: ('A' for Active; 'I' for Inactive)
REMARK    1  A    between atoms: C_1  and  C_2
REMARK    2  A    between atoms: C_2  and  N_3
REMARK    3  A    between atoms: C_2  and  C_11
REMARK    4  A    between atoms: C_4  and  C_6
REMARK    5  A    between atoms: C_16  and  C_17
REMARK                            x       y       z     vdW  Elec       q    Type
REMARK                         _______ _______ _______ _____ _____    ______ ____
ROOT
ATOM      1  C   UNL     1       3.447   4.995  19.760  0.00  0.00    +0.000 C 
ATOM      2  O   UNL     1       2.731   4.939  20.764  0.00  0.00    +0.000 OA
ATOM      3  N   UNL     1       3.482   6.031  18.848  0.00  0.00    +0.000 N 
ATOM      4  C   UNL     1       2.757   7.177  19.058  0.00  0.00    +0.000 A 
ATOM      5  N   UNL     1       2.195   7.593  20.161  0.00  0.00    +0.000 NA
ATOM      6  C   UNL     1       1.429   8.723  19.906  0.00  0.00    +0.000 A 
ATOM      7  C   UNL     1       1.462   9.150  18.590  0.00  0.00    +0.000 A 
ATOM      8  S   UNL     1       2.555   8.175  17.687  0.00  0.00    +0.000 S 
ATOM      9  H   UNL     1       3.907   5.925  17.938  0.00  0.00    +0.000 HD
ENDROOT
BRANCH   6  10
ATOM     10  C   UNL     1       0.650   9.380  20.953  0.00  0.00    +0.000 A 
ATOM     11  C   UNL     1      -0.114  10.507  20.659  0.00  0.00    +0.000 A 
ATOM     12  C   UNL     1      -0.869  11.092  21.673  0.00  0.00    +0.000 A 
ATOM     13  C   UNL     1      -0.830  10.546  22.950  0.00  0.00    +0.000 A 
ATOM     14  C   UNL     1      -0.038   9.430  23.161  0.00  0.00    +0.000 A 
ATOM     15  N   UNL     1       0.697   8.832  22.196  0.00  0.00    +0.000 NA
ENDBRANCH   6  10
BRANCH   1  17
ATOM     16  C   UNL     1       3.684   2.503  19.716  0.00  0.00    +0.000 C 
ATOM     17  C   UNL     1       4.400   3.821  19.430  0.00  0.00    +0.000 C 
BRANCH  17  18
ATOM     18  N   UNL     1       4.842   3.872  18.035  0.00  0.00    +0.000 N 
ATOM     19  C   UNL     1       5.955   4.575  17.629  0.00  0.00    +0.000 C 
ATOM     20  O   UNL     1       6.665   5.178  18.433  0.00  0.00    +0.000 OA
ATOM     21  H   UNL     1       4.338   3.318  17.344  0.00  0.00    +0.000 HD
BRANCH  19  22
ATOM     22  C   UNL     1       6.239   4.540  16.207  0.00  0.00    +0.000 A 
ATOM     23  C   UNL     1       5.643   3.818  15.185  0.00  0.00    +0.000 A 
ATOM     24  C   UNL     1       6.324   4.168  13.993  0.00  0.00    +0.000 A 
ATOM     25  C   UNL     1       7.299   5.067  14.350  0.00  0.00    +0.000 A 
ATOM     26  O   UNL     1       7.252   5.306  15.694  0.00  0.00    +0.000 OA
ENDBRANCH  19  22
ENDBRANCH  17  18
ENDBRANCH   1  17
TORSDOF 4
ENDMDL
MODEL 5
REMARK VINA RESULT:      -7.5      2.400      3.952
REMARK  Name = 
REMARK  5 active torsions:
REMARK  status: ('A' for Active; 'I' for Inactive)
REMARK    1  A    between atoms: C_1  and  C_2
REMARK    2  A    between atoms: C_2  and  N_3
REMARK    3  A    between atoms: C_2  and  C_11
REMARK    4  A    between atoms: C_4  and  C_6
REMARK    5  A    between atoms: C_16  and  C_17
REMARK                            x       y       z     vdW  Elec       q    Type
REMARK                         _______ _______ _______ _____ _____    ______ ____
ROOT
ATOM      1  C   UNL     1       5.898   6.081  17.272  0.00  0.00    +0.000 C 
ATOM      2  O   UNL     1       5.856   7.314  17.247  0.00  0.00    +0.000 OA
ATOM      3  N   UNL     1       5.013   5.255  17.937  0.00  0.00    +0.000 N 
ATOM      4  C   UNL     1       3.908   5.770  18.567  0.00  0.00    +0.000 A 
ATOM      5  N   UNL     1       3.375   6.955  18.435  0.00  0.00    +0.000 NA
ATOM      6  C   UNL     1       2.361   7.125  19.368  0.00  0.00    +0.000 A 
ATOM      7  C   UNL     1       2.137   6.024  20.176  0.00  0.00    +0.000 A 
ATOM      8  S   UNL     1       3.150   4.723  19.684  0.00  0.00    +0.000 S 
ATOM      9  H   UNL     1       5.222   4.283  18.114  0.00  0.00    +0.000 HD
ENDROOT
BRANCH   6  10
ATOM     10  C   UNL     1       1.615   8.376  19.478  0.00  0.00    +0.000 A 
ATOM     11  C   UNL     1       1.459   9.204  18.367  0.00  0.00    +0.000 A 
ATOM     12  C   UNL     1       0.717  10.375  18.499  0.00  0.00    +0.000 A 
ATOM     13  C   UNL     1       0.166  10.695  19.733  0.00  0.00    +0.000 A 
ATOM     14  C   UNL     1       0.376   9.824  20.789  0.00  0.00    +0.000 A 
ATOM     15  N   UNL     1       1.080   8.674  20.692  0.00  0.00    +0.000 NA
ENDBRANCH   6  10
BRANCH   1  17
ATOM     16  C   UNL     1       7.748   4.411  17.504  0.00  0.00    +0.000 C 
ATOM     17  C   UNL     1       7.029   5.336  16.525  0.00  0.00    +0.000 C 
BRANCH  17  18
ATOM     18  N   UNL     1       6.503   4.573  15.391  0.00  0.00    +0.000 N 
ATOM     19  C   UNL     1       6.955   4.744  14.101  0.00  0.00    +0.000 C 
ATOM     20  O   UNL     1       7.860   5.536  13.835  0.00  0.00    +0.000 OA
ATOM     21  H   UNL     1       5.815   3.844  15.572  0.00  0.00    +0.000 HD
BRANCH  19  22
ATOM     22  C   UNL     1       6.312   3.925  13.093  0.00  0.00    +0.000 A 
ATOM     23  C   UNL     1       4.970   3.750  12.794  0.00  0.00    +0.000 A 
ATOM     24  C   UNL     1       4.912   2.831  11.717  0.00  0.00    +0.000 A 
ATOM     25  C   UNL     1       6.210   2.486  11.428  0.00  0.00    +0.000 A 
ATOM     26  O   UNL     1       7.070   3.151  12.254  0.00  0.00    +0.000 OA
ENDBRANCH  19  22
ENDBRANCH  17  18
ENDBRANCH   1  17
TORSDOF 4
ENDMDL
MODEL 6
REMARK VINA RESULT:      -7.4      2.370      3.804
REMARK  Name = 
REMARK  5 active torsions:
REMARK  status: ('A' for Active; 'I' for Inactive)
REMARK    1  A    between atoms: C_1  and  C_2
REMARK    2  A    between atoms: C_2  and  N_3
REMARK    3  A    between atoms: C_2  and  C_11
REMARK    4  A    between atoms: C_4  and  C_6
REMARK    5  A    between atoms: C_16  and  C_17
REMARK                            x       y       z     vdW  Elec       q    Type
REMARK                         _______ _______ _______ _____ _____    ______ ____
ROOT
ATOM      1  C   UNL     1       5.881   6.036  17.407  0.00  0.00    +0.000 C 
ATOM      2  O   UNL     1       5.842   7.267  17.485  0.00  0.00    +0.000 OA
ATOM      3  N   UNL     1       4.995   5.160  18.002  0.00  0.00    +0.000 N 
ATOM      4  C   UNL     1       3.892   5.624  18.675  0.00  0.00    +0.000 A 
ATOM      5  N   UNL     1       3.362   6.817  18.641  0.00  0.00    +0.000 NA
ATOM      6  C   UNL     1       2.349   6.911  19.586  0.00  0.00    +0.000 A 
ATOM      7  C   UNL     1       2.124   5.748  20.301  0.00  0.00    +0.000 A 
ATOM      8  S   UNL     1       3.133   4.490  19.702  0.00  0.00    +0.000 S 
ATOM      9  H   UNL     1       5.203   4.176  18.098  0.00  0.00    +0.000 HD
ENDROOT
BRANCH   6  10
ATOM     10  C   UNL     1       1.606   8.151  19.800  0.00  0.00    +0.000 A 
ATOM     11  C   UNL     1       1.038   8.426  21.043  0.00  0.00    +0.000 A 
ATOM     12  C   UNL     1       0.362   9.631  21.223  0.00  0.00    +0.000 A 
ATOM     13  C   UNL     1       0.260  10.518  20.159  0.00  0.00    +0.000 A 
ATOM     14  C   UNL     1       0.845  10.165  18.954  0.00  0.00    +0.000 A 
ATOM     15  N   UNL     1       1.518   9.010  18.750  0.00  0.00    +0.000 NA
ENDBRANCH   6  10
BRANCH   1  17
ATOM     16  C   UNL     1       7.791   4.422  17.524  0.00  0.00    +0.000 C 
ATOM     17  C   UNL     1       7.010   5.353  16.600  0.00  0.00    +0.000 C 
BRANCH  17  18
ATOM     18  N   UNL     1       6.471   4.609  15.459  0.00  0.00    +0.000 N 
ATOM     19  C   UNL     1       6.951   4.757  14.176  0.00  0.00    +0.000 C 
ATOM     20  O   UNL     1       7.893   5.508  13.923  0.00  0.00    +0.000 OA
ATOM     21  H   UNL     1       5.750   3.910  15.631  0.00  0.00    +0.000 HD
BRANCH  19  22
ATOM     22  C   UNL     1       6.290   3.961  13.160  0.00  0.00    +0.000 A 
ATOM     23  C   UNL     1       4.944   3.809  12.867  0.00  0.00    +0.000 A 
ATOM     24  C   UNL     1       4.867   2.908  11.777  0.00  0.00    +0.000 A 
ATOM     25  C   UNL     1       6.158   2.550  11.474  0.00  0.00    +0.000 A 
ATOM     26  O   UNL     1       7.032   3.191  12.305  0.00  0.00    +0.000 OA
ENDBRANCH  19  22
ENDBRANCH  17  18
ENDBRANCH   1  17
TORSDOF 4
ENDMDL
MODEL 7
REMARK VINA RESULT:      -7.3      3.647      9.009
REMARK  Name = 
REMARK  5 active torsions:
REMARK  status: ('A' for Active; 'I' for Inactive)
REMARK    1  A    between atoms: C_1  and  C_2
REMARK    2  A    between atoms: C_2  and  N_3
REMARK    3  A    between atoms: C_2  and  C_11
REMARK    4  A    between atoms: C_4  and  C_6
REMARK    5  A    between atoms: C_16  and  C_17
REMARK                            x       y       z     vdW  Elec       q    Type
REMARK                         _______ _______ _______ _____ _____    ______ ____
ROOT
ATOM      1  C   UNL     1       1.668   9.291  18.382  0.00  0.00    +0.000 C 
ATOM      2  O   UNL     1       2.179   9.324  17.259  0.00  0.00    +0.000 OA
ATOM      3  N   UNL     1       1.758   8.246  19.281  0.00  0.00    +0.000 N 
ATOM      4  C   UNL     1       2.548   7.156  19.015  0.00  0.00    +0.000 A 
ATOM      5  N   UNL     1       3.485   7.031  18.113  0.00  0.00    +0.000 NA
ATOM      6  C   UNL     1       3.931   5.717  18.073  0.00  0.00    +0.000 A 
ATOM      7  C   UNL     1       3.321   4.878  18.989  0.00  0.00    +0.000 A 
ATOM      8  S   UNL     1       2.244   5.780  19.981  0.00  0.00    +0.000 S 
ATOM      9  H   UNL     1       1.141   8.174  20.077  0.00  0.00    +0.000 HD
ENDROOT
BRANCH   6  10
ATOM     10  C   UNL     1       4.952   5.277  17.125  0.00  0.00    +0.000 A 
ATOM     11  C   UNL     1       6.119   6.019  16.951  0.00  0.00    +0.000 A 
ATOM     12  C   UNL     1       7.085   5.556  16.061  0.00  0.00    +0.000 A 
ATOM     13  C   UNL     1       6.855   4.379  15.361  0.00  0.00    +0.000 A 
ATOM     14  C   UNL     1       5.665   3.707  15.584  0.00  0.00    +0.000 A 
ATOM     15  N   UNL     1       4.713   4.122  16.449  0.00  0.00    +0.000 NA
ENDBRANCH   6  10
BRANCH   1  17
ATOM     16  C   UNL     1       1.665  11.759  18.794  0.00  0.00    +0.000 C 
ATOM     17  C   UNL     1       0.823  10.489  18.877  0.00  0.00    +0.000 C 
BRANCH  17  18
ATOM     18  N   UNL     1      -0.404  10.634  18.091  0.00  0.00    +0.000 N 
ATOM     19  C   UNL     1      -1.576  11.128  18.620  0.00  0.00    +0.000 C 
ATOM     20  O   UNL     1      -1.646  11.509  19.788  0.00  0.00    +0.000 OA
ATOM     21  H   UNL     1      -0.373  10.414  17.097  0.00  0.00    +0.000 HD
BRANCH  19  22
ATOM     22  C   UNL     1      -2.704  11.184  17.710  0.00  0.00    +0.000 A 
ATOM     23  C   UNL     1      -4.039  11.473  17.944  0.00  0.00    +0.000 A 
ATOM     24  C   UNL     1      -4.698  11.379  16.693  0.00  0.00    +0.000 A 
ATOM     25  C   UNL     1      -3.740  11.027  15.773  0.00  0.00    +0.000 A 
ATOM     26  O   UNL     1      -2.522  10.913  16.379  0.00  0.00    +0.000 OA
ENDBRANCH  19  22
ENDBRANCH  17  18
ENDBRANCH   1  17
TORSDOF 4
ENDMDL
MODEL 8
REMARK VINA RESULT:      -7.2      3.687      9.112
REMARK  Name = 
REMARK  5 active torsions:
REMARK  status: ('A' for Active; 'I' for Inactive)
REMARK    1  A    between atoms: C_1  and  C_2
REMARK    2  A    between atoms: C_2  and  N_3
REMARK    3  A    between atoms: C_2  and  C_11
REMARK    4  A    between atoms: C_4  and  C_6
REMARK    5  A    between atoms: C_16  and  C_17
REMARK                            x       y       z     vdW  Elec       q    Type
REMARK                         _______ _______ _______ _____ _____    ______ ____
ROOT
ATOM      1  C   UNL     1       1.572   9.428  18.388  0.00  0.00    +0.000 C 
ATOM      2  O   UNL     1       1.959   9.406  17.216  0.00  0.00    +0.000 OA
ATOM      3  N   UNL     1       1.728   8.411  19.309  0.00  0.00    +0.000 N 
ATOM      4  C   UNL     1       2.450   7.286  19.000  0.00  0.00    +0.000 A 
ATOM      5  N   UNL     1       3.279   7.099  18.008  0.00  0.00    +0.000 NA
ATOM      6  C   UNL     1       3.679   5.770  17.968  0.00  0.00    +0.000 A 
ATOM      7  C   UNL     1       3.147   4.983  18.974  0.00  0.00    +0.000 A 
ATOM      8  S   UNL     1       2.212   5.955  20.043  0.00  0.00    +0.000 S 
ATOM      9  H   UNL     1       1.199   8.386  20.169  0.00  0.00    +0.000 HD
ENDROOT
BRANCH   6  10
ATOM     10  C   UNL     1       4.576   5.264  16.932  0.00  0.00    +0.000 A 
ATOM     11  C   UNL     1       4.885   3.907  16.869  0.00  0.00    +0.000 A 
ATOM     12  C   UNL     1       5.719   3.453  15.850  0.00  0.00    +0.000 A 
ATOM     13  C   UNL     1       6.232   4.363  14.935  0.00  0.00    +0.000 A 
ATOM     14  C   UNL     1       5.883   5.696  15.073  0.00  0.00    +0.000 A 
ATOM     15  N   UNL     1       5.067   6.168  16.042  0.00  0.00    +0.000 NA
ENDBRANCH   6  10
BRANCH   1  17
ATOM     16  C   UNL     1       1.692  11.907  18.712  0.00  0.00    +0.000 C 
ATOM     17  C   UNL     1       0.824  10.670  18.927  0.00  0.00    +0.000 C 
BRANCH  17  18
ATOM     18  N   UNL     1      -0.474  10.834  18.270  0.00  0.00    +0.000 N 
ATOM     19  C   UNL     1      -1.599  11.273  18.934  0.00  0.00    +0.000 C 
ATOM     20  O   UNL     1      -1.563  11.586  20.124  0.00  0.00    +0.000 OA
ATOM     21  H   UNL     1      -0.535  10.671  17.265  0.00  0.00    +0.000 HD
BRANCH  19  22
ATOM     22  C   UNL     1      -2.808  11.357  18.139  0.00  0.00    +0.000 A 
ATOM     23  C   UNL     1      -3.021  11.116  16.791  0.00  0.00    +0.000 A 
ATOM     24  C   UNL     1      -4.396  11.357  16.549  0.00  0.00    +0.000 A 
ATOM     25  C   UNL     1      -4.942  11.742  17.750  0.00  0.00    +0.000 A 
ATOM     26  O   UNL     1      -3.986  11.738  18.725  0.00  0.00    +0.000 OA
ENDBRANCH  19  22
ENDBRANCH  17  18
ENDBRANCH   1  17
TORSDOF 4
ENDMDL
MODEL 9
REMARK VINA RESULT:      -7.2      3.642      8.279
REMARK  Name = 
REMARK  5 active torsions:
REMARK  status: ('A' for Active; 'I' for Inactive)
REMARK    1  A    between atoms: C_1  and  C_2
REMARK    2  A    between atoms: C_2  and  N_3
REMARK    3  A    between atoms: C_2  and  C_11
REMARK    4  A    between atoms: C_4  and  C_6
REMARK    5  A    between atoms: C_16  and  C_17
REMARK                            x       y       z     vdW  Elec       q    Type
REMARK                         _______ _______ _______ _____ _____    ______ ____
ROOT
ATOM      1  C   UNL     1       1.403   9.682  19.307  0.00  0.00    +0.000 C 
ATOM      2  O   UNL     1       1.181   9.163  20.405  0.00  0.00    +0.000 OA
ATOM      3  N   UNL     1       2.129   9.117  18.277  0.00  0.00    +0.000 N 
ATOM      4  C   UNL     1       2.593   7.828  18.368  0.00  0.00    +0.000 A 
ATOM      5  N   UNL     1       2.237   6.894  19.209  0.00  0.00    +0.000 NA
ATOM      6  C   UNL     1       3.059   5.785  19.060  0.00  0.00    +0.000 A 
ATOM      7  C   UNL     1       4.015   5.912  18.067  0.00  0.00    +0.000 A 
ATOM      8  S   UNL     1       3.806   7.407  17.243  0.00  0.00    +0.000 S 
ATOM      9  H   UNL     1       2.472   9.667  17.503  0.00  0.00    +0.000 HD
ENDROOT
BRANCH   6  10
ATOM     10  C   UNL     1       2.918   4.600  19.904  0.00  0.00    +0.000 A 
ATOM     11  C   UNL     1       1.892   4.523  20.843  0.00  0.00    +0.000 A 
ATOM     12  C   UNL     1       1.767   3.367  21.610  0.00  0.00    +0.000 A 
ATOM     13  C   UNL     1       2.674   2.331  21.430  0.00  0.00    +0.000 A 
ATOM     14  C   UNL     1       3.671   2.491  20.482  0.00  0.00    +0.000 A 
ATOM     15  N   UNL     1       3.813   3.594  19.713  0.00  0.00    +0.000 NA
ENDBRANCH   6  10
BRANCH   1  17
ATOM     16  C   UNL     1       1.969  11.925  18.352  0.00  0.00    +0.000 C 
ATOM     17  C   UNL     1       0.863  11.100  19.005  0.00  0.00    +0.000 C 
BRANCH  17  18
ATOM     18  N   UNL     1      -0.316  11.045  18.139  0.00  0.00    +0.000 N 
ATOM     19  C   UNL     1      -1.558  11.487  18.538  0.00  0.00    +0.000 C 
ATOM     20  O   UNL     1      -1.737  11.988  19.648  0.00  0.00    +0.000 OA
ATOM     21  H   UNL     1      -0.200  10.720  17.180  0.00  0.00    +0.000 HD
BRANCH  19  22
ATOM     22  C   UNL     1      -2.623  11.339  17.565  0.00  0.00    +0.000 A 
ATOM     23  C   UNL     1      -3.994  11.483  17.699  0.00  0.00    +0.000 A 
ATOM     24  C   UNL     1      -4.555  11.217  16.426  0.00  0.00    +0.000 A 
ATOM     25  C   UNL     1      -3.506  10.914  15.592  0.00  0.00    +0.000 A 
ATOM     26  O   UNL     1      -2.325  10.992  16.273  0.00  0.00    +0.000 OA
ENDBRANCH  19  22
ENDBRANCH  17  18
ENDBRANCH   1  17
TORSDOF 4
ENDMDL
