MODEL 1
REMARK VINA RESULT:      -7.8      0.000      0.000
REMARK  Name = 
REMARK  6 active torsions:
REMARK  status: ('A' for Active; 'I' for Inactive)
REMARK    1  A    between atoms: C_1  and  O_2
REMARK    2  A    between atoms: O_2  and  C_3
REMARK    3  A    between atoms: C_7  and  C_8
REMARK    4  A    between atoms: C_9  and  C_10
REMARK    5  A    between atoms: C_12  and  N_13
REMARK    6  A    between atoms: C_17  and  O_18
REMARK                            x       y       z     vdW  Elec       q    Type
REMARK                         _______ _______ _______ _____ _____    ______ ____
ROOT
ATOM      1  C   UNL     1       3.184   5.388  18.481  0.00  0.00    +0.000 C 
ATOM      2  C   UNL     1       3.216   4.189  19.413  0.00  0.00    +0.000 C 
ATOM      3  C   UNL     1       4.332   3.450  19.435  0.00  0.00    +0.000 C 
ATOM      4  O   UNL     1       5.549   4.124  19.388  0.00  0.00    +0.000 OA
ATOM      5  C   UNL     1       5.662   4.930  18.270  0.00  0.00    +0.000 A 
ATOM      6  C   UNL     1       6.882   4.808  17.609  0.00  0.00    +0.000 A 
ATOM      7  C   UNL     1       6.872   4.965  16.242  0.00  0.00    +0.000 A 
ATOM      8  C   UNL     1       5.694   5.300  15.575  0.00  0.00    +0.000 A 
ATOM      9  C   UNL     1       4.519   5.599  16.293  0.00  0.00    +0.000 A 
ATOM     10  C   UNL     1       4.490   5.453  17.686  0.00  0.00    +0.000 A 
ENDROOT
BRANCH   1  15
ATOM     11  C   UNL     1       1.676   8.910  18.795  0.00  0.00    +0.000 A 
ATOM     12  C   UNL     1       1.222   8.927  20.111  0.00  0.00    +0.000 A 
ATOM     13  C   UNL     1       1.406   7.791  20.903  0.00  0.00    +0.000 A 
ATOM     14  C   UNL     1       2.033   6.650  20.417  0.00  0.00    +0.000 A 
ATOM     15  C   UNL     1       2.547   6.626  19.114  0.00  0.00    +0.000 A 
ATOM     16  C   UNL     1       2.333   7.779  18.304  0.00  0.00    +0.000 A 
BRANCH  11  18
ATOM     17  C   UNL     1       1.205  11.216  18.852  0.00  0.00    +0.000 C 
ATOM     18  O   UNL     1       1.473  10.059  18.076  0.00  0.00    +0.000 OA
ENDBRANCH  11  18
ENDBRANCH   1  15
BRANCH   3  19
ATOM     19  N   UNL     1       4.365   2.106  19.091  0.00  0.00    +0.000 N 
ATOM     20  H   UNL     1       3.840   1.523  19.748  0.00  0.00    +0.000 HD
ATOM     21  H   UNL     1       3.921   1.997  18.175  0.00  0.00    +0.000 HD
ENDBRANCH   3  19
BRANCH   2  22
ATOM     22  C   UNL     1       1.850   3.564  19.642  0.00  0.00    +0.000 C 
ATOM     23  N   UNL     1       0.716   3.045  19.832  0.00  0.00    +0.000 NA
ENDBRANCH   2  22
BRANCH   7  24
ATOM     24  O   UNL     1       7.984   4.681  15.498  0.00  0.00    +0.000 OA
ATOM     25  H   UNL     1       8.391   5.516  15.195  0.00  0.00    +0.000 HD
ENDBRANCH   7  24
TORSDOF 5
ENDMDL
MODEL 2
REMARK VINA RESULT:      -7.6      1.102      1.674
REMARK  Name = 
REMARK  6 active torsions:
REMARK  status: ('A' for Active; 'I' for Inactive)
REMARK    1  A    between atoms: C_1  and  O_2
REMARK    2  A    between atoms: O_2  and  C_3
REMARK    3  A    between atoms: C_7  and  C_8
REMARK    4  A    between atoms: C_9  and  C_10
REMARK    5  A    between atoms: C_12  and  N_13
REMARK    6  A    between atoms: C_17  and  O_18
REMARK                            x       y       z     vdW  Elec       q    Type
REMARK                         _______ _______ _______ _____ _____    ______ ____
ROOT
ATOM      1  C   UNL     1       3.266   5.584  18.332  0.00  0.00    +0.000 C 
ATOM      2  C   UNL     1       3.452   4.623  19.494  0.00  0.00    +0.000 C 
ATOM      3  C   UNL     1       4.642   4.023  19.618  0.00  0.00    +0.000 C 
ATOM      4  O   UNL     1       5.776   4.792  19.372  0.00  0.00    +0.000 OA
ATOM      5  C   UNL     1       5.773   5.346  18.106  0.00  0.00    +0.000 A 
ATOM      6  C   UNL     1       6.982   5.210  17.428  0.00  0.00    +0.000 A 
ATOM      7  C   UNL     1       6.922   5.068  16.061  0.00  0.00    +0.000 A 
ATOM      8  C   UNL     1       5.698   5.130  15.395  0.00  0.00    +0.000 A 
ATOM      9  C   UNL     1       4.515   5.455  16.089  0.00  0.00    +0.000 A 
ATOM     10  C   UNL     1       4.536   5.609  17.480  0.00  0.00    +0.000 A 
ENDROOT
BRANCH   1  15
ATOM     11  C   UNL     1       1.543   8.233  20.521  0.00  0.00    +0.000 A 
ATOM     12  C   UNL     1       1.265   9.245  19.606  0.00  0.00    +0.000 A 
ATOM     13  C   UNL     1       1.636   9.069  18.271  0.00  0.00    +0.000 A 
ATOM     14  C   UNL     1       2.268   7.912  17.832  0.00  0.00    +0.000 A 
ATOM     15  C   UNL     1       2.512   6.857  18.720  0.00  0.00    +0.000 A 
ATOM     16  C   UNL     1       2.153   7.054  20.085  0.00  0.00    +0.000 A 
BRANCH  11  18
ATOM     17  C   UNL     1      -0.197   8.905  21.958  0.00  0.00    +0.000 C 
ATOM     18  O   UNL     1       1.144   8.465  21.812  0.00  0.00    +0.000 OA
ENDBRANCH  11  18
ENDBRANCH   1  15
BRANCH   3  19
ATOM     19  N   UNL     1       4.814   2.647  19.564  0.00  0.00    +0.000 N 
ATOM     20  H   UNL     1       5.397   2.358  18.774  0.00  0.00    +0.000 HD
ATOM     21  H   UNL     1       5.296   2.349  20.416  0.00  0.00    +0.000 HD
ENDBRANCH   3  19
BRANCH   2  22
ATOM     22  C   UNL     1       2.168   3.925  19.914  0.00  0.00    +0.000 C 
ATOM     23  N   UNL     1       1.103   3.347  20.263  0.00  0.00    +0.000 NA
ENDBRANCH   2  22
BRANCH   7  24
ATOM     24  O   UNL     1       8.038   4.746  15.341  0.00  0.00    +0.000 OA
ATOM     25  H   UNL     1       8.717   4.385  15.944  0.00  0.00    +0.000 HD
ENDBRANCH   7  24
TORSDOF 5
ENDMDL
MODEL 3
REMARK VINA RESULT:      -7.0      2.533      4.072
REMARK  Name = 
REMARK  6 active torsions:
REMARK  status: ('A' for Active; 'I' for Inactive)
REMARK    1  A    between atoms: C_1  and  O_2
REMARK    2  A    between atoms: O_2  and  C_3
REMARK    3  A    between atoms: C_7  and  C_8
REMARK    4  A    between atoms: C_9  and  C_10
REMARK    5  A    between atoms: C_12  and  N_13
REMARK    6  A    between atoms: C_17  and  O_18
REMARK                            x       y       z     vdW  Elec       q    Type
REMARK                         _______ _______ _______ _____ _____    ______ ____
ROOT
ATOM      1  C   UNL     1       4.218   5.874  18.314  0.00  0.00    +0.000 C 
ATOM      2  C   UNL     1       5.081   6.006  17.071  0.00  0.00    +0.000 C 
ATOM      3  C   UNL     1       5.324   4.895  16.364  0.00  0.00    +0.000 C 
ATOM      4  O   UNL     1       4.270   4.001  16.193  0.00  0.00    +0.000 OA
ATOM      5  C   UNL     1       3.749   3.565  17.396  0.00  0.00    +0.000 A 
ATOM      6  C   UNL     1       3.547   2.189  17.457  0.00  0.00    +0.000 A 
ATOM      7  C   UNL     1       3.710   1.585  18.683  0.00  0.00    +0.000 A 
ATOM      8  C   UNL     1       3.996   2.347  19.816  0.00  0.00    +0.000 A 
ATOM      9  C   UNL     1       4.009   3.754  19.754  0.00  0.00    +0.000 A 
ATOM     10  C   UNL     1       3.845   4.406  18.525  0.00  0.00    +0.000 A 
ENDROOT
BRANCH   1  15
ATOM     11  C   UNL     1       1.601   8.185  19.923  0.00  0.00    +0.000 A 
ATOM     12  C   UNL     1       1.417   9.159  18.945  0.00  0.00    +0.000 A 
ATOM     13  C   UNL     1       2.144   9.066  17.755  0.00  0.00    +0.000 A 
ATOM     14  C   UNL     1       3.039   8.030  17.521  0.00  0.00    +0.000 A 
ATOM     15  C   UNL     1       3.203   7.009  18.465  0.00  0.00    +0.000 A 
ATOM     16  C   UNL     1       2.477   7.123  19.686  0.00  0.00    +0.000 A 
BRANCH  11  18
ATOM     17  C   UNL     1      -0.111   9.371  21.020  0.00  0.00    +0.000 C 
ATOM     18  O   UNL     1       0.850   8.329  21.060  0.00  0.00    +0.000 OA
ENDBRANCH  11  18
ENDBRANCH   1  15
BRANCH   3  19
ATOM     19  N   UNL     1       6.598   4.386  16.155  0.00  0.00    +0.000 N 
ATOM     20  H   UNL     1       7.210   5.052  15.675  0.00  0.00    +0.000 HD
ATOM     21  H   UNL     1       7.021   4.195  17.067  0.00  0.00    +0.000 HD
ENDBRANCH   3  19
BRANCH   2  22
ATOM     22  C   UNL     1       6.106   7.125  17.161  0.00  0.00    +0.000 C 
ATOM     23  N   UNL     1       6.956   8.053  17.236  0.00  0.00    +0.000 NA
ENDBRANCH   2  22
BRANCH   7  24
ATOM     24  O   UNL     1       3.712   0.223  18.797  0.00  0.00    +0.000 OA
ATOM     25  H   UNL     1       3.789  -0.175  17.908  0.00  0.00    +0.000 HD
ENDBRANCH   7  24
TORSDOF 5
ENDMDL
MODEL 4
REMARK VINA RESULT:      -6.9      2.596      5.807
REMARK  Name = 
REMARK  6 active torsions:
REMARK  status: ('A' for Active; 'I' for Inactive)
REMARK    1  A    between atoms: C_1  and  O_2
REMARK    2  A    between atoms: O_2  and  C_3
REMARK    3  A    between atoms: C_7  and  C_8
REMARK    4  A    between atoms: C_9  and  C_10
REMARK    5  A    between atoms: C_12  and  N_13
REMARK    6  A    between atoms: C_17  and  O_18
REMARK                            x       y       z     vdW  Elec       q    Type
REMARK                         _______ _______ _______ _____ _____    ______ ____
ROOT
ATOM      1  C   UNL     1       2.899   5.559  18.133  0.00  0.00    +0.000 C 
ATOM      2  C   UNL     1       2.854   6.917  18.812  0.00  0.00    +0.000 C 
ATOM      3  C   UNL     1       2.526   6.952  20.109  0.00  0.00    +0.000 C 
ATOM      4  O   UNL     1       3.055   5.960  20.931  0.00  0.00    +0.000 OA
ATOM      5  C   UNL     1       2.725   4.688  20.501  0.00  0.00    +0.000 A 
ATOM      6  C   UNL     1       2.278   3.848  21.518  0.00  0.00    +0.000 A 
ATOM      7  C   UNL     1       1.332   2.906  21.184  0.00  0.00    +0.000 A 
ATOM      8  C   UNL     1       0.903   2.771  19.863  0.00  0.00    +0.000 A 
ATOM      9  C   UNL     1       1.510   3.509  18.828  0.00  0.00    +0.000 A 
ATOM     10  C   UNL     1       2.479   4.475  19.129  0.00  0.00    +0.000 A 
ENDROOT
BRANCH   1  15
ATOM     11  C   UNL     1       6.378   6.109  16.593  0.00  0.00    +0.000 A 
ATOM     12  C   UNL     1       6.452   5.090  15.647  0.00  0.00    +0.000 A 
ATOM     13  C   UNL     1       5.369   4.220  15.505  0.00  0.00    +0.000 A 
ATOM     14  C   UNL     1       4.221   4.345  16.277  0.00  0.00    +0.000 A 
ATOM     15  C   UNL     1       4.097   5.393  17.198  0.00  0.00    +0.000 A 
ATOM     16  C   UNL     1       5.217   6.262  17.355  0.00  0.00    +0.000 A 
BRANCH  11  18
ATOM     17  C   UNL     1       7.786   7.387  17.980  0.00  0.00    +0.000 C 
ATOM     18  O   UNL     1       7.470   6.933  16.674  0.00  0.00    +0.000 OA
ENDBRANCH  11  18
ENDBRANCH   1  15
BRANCH   3  19
ATOM     19  N   UNL     1       1.413   7.621  20.599  0.00  0.00    +0.000 N 
ATOM     20  H   UNL     1       0.536   7.169  20.327  0.00  0.00    +0.000 HD
ATOM     21  H   UNL     1       1.452   7.606  21.621  0.00  0.00    +0.000 HD
ENDBRANCH   3  19
BRANCH   2  22
ATOM     22  C   UNL     1       2.479   8.051  17.872  0.00  0.00    +0.000 C 
ATOM     23  N   UNL     1       2.168   8.992  17.092  0.00  0.00    +0.000 NA
ENDBRANCH   2  22
BRANCH   7  24
ATOM     24  O   UNL     1       0.707   2.168  22.150  0.00  0.00    +0.000 OA
ATOM     25  H   UNL     1       1.267   2.147  22.951  0.00  0.00    +0.000 HD
ENDBRANCH   7  24
TORSDOF 5
ENDMDL
MODEL 5
REMARK VINA RESULT:      -6.9      4.554      8.760
REMARK  Name = 
REMARK  6 active torsions:
REMARK  status: ('A' for Active; 'I' for Inactive)
REMARK    1  A    between atoms: C_1  and  O_2
REMARK    2  A    between atoms: O_2  and  C_3
REMARK    3  A    between atoms: C_7  and  C_8
REMARK    4  A    between atoms: C_9  and  C_10
REMARK    5  A    between atoms: C_12  and  N_13
REMARK    6  A    between atoms: C_17  and  O_18
REMARK                            x       y       z     vdW  Elec       q    Type
REMARK                         _______ _______ _______ _____ _____    ______ ____
ROOT
ATOM      1  C   UNL     1      -0.060  10.716  18.257  0.00  0.00    +0.000 C 
ATOM      2  C   UNL     1       0.294  12.043  18.907  0.00  0.00    +0.000 C 
ATOM      3  C   UNL     1      -0.704  12.903  19.145  0.00  0.00    +0.000 C 
ATOM      4  O   UNL     1      -1.905  12.378  19.617  0.00  0.00    +0.000 OA
ATOM      5  C   UNL     1      -2.433  11.425  18.766  0.00  0.00    +0.000 A 
ATOM      6  C   UNL     1      -3.795  11.585  18.519  0.00  0.00    +0.000 A 
ATOM      7  C   UNL     1      -4.254  11.214  17.276  0.00  0.00    +0.000 A 
ATOM      8  C   UNL     1      -3.389  10.640  16.343  0.00  0.00    +0.000 A 
ATOM      9  C   UNL     1      -2.062  10.322  16.691  0.00  0.00    +0.000 A 
ATOM     10  C   UNL     1      -1.558  10.681  17.947  0.00  0.00    +0.000 A 
ENDROOT
BRANCH   1  15
ATOM     11  C   UNL     1       2.325   7.718  18.571  0.00  0.00    +0.000 A 
ATOM     12  C   UNL     1       2.238   7.405  19.925  0.00  0.00    +0.000 A 
ATOM     13  C   UNL     1       1.401   8.169  20.742  0.00  0.00    +0.000 A 
ATOM     14  C   UNL     1       0.651   9.225  20.241  0.00  0.00    +0.000 A 
ATOM     15  C   UNL     1       0.678   9.528  18.874  0.00  0.00    +0.000 A 
ATOM     16  C   UNL     1       1.554   8.761  18.051  0.00  0.00    +0.000 A 
BRANCH  11  18
ATOM     17  C   UNL     1       3.020   5.530  18.049  0.00  0.00    +0.000 C 
ATOM     18  O   UNL     1       3.156   6.924  17.824  0.00  0.00    +0.000 OA
ENDBRANCH  11  18
ENDBRANCH   1  15
BRANCH   3  19
ATOM     19  N   UNL     1      -0.771  14.170  18.582  0.00  0.00    +0.000 N 
ATOM     20  H   UNL     1      -0.607  14.910  19.270  0.00  0.00    +0.000 HD
ATOM     21  H   UNL     1      -0.033  14.248  17.878  0.00  0.00    +0.000 HD
ENDBRANCH   3  19
BRANCH   2  22
ATOM     22  C   UNL     1       1.692  12.530  18.565  0.00  0.00    +0.000 C 
ATOM     23  N   UNL     1       2.853  12.935  18.282  0.00  0.00    +0.000 NA
ENDBRANCH   2  22
BRANCH   7  24
ATOM     24  O   UNL     1      -5.531  11.506  16.886  0.00  0.00    +0.000 OA
ATOM     25  H   UNL     1      -5.642  11.271  15.944  0.00  0.00    +0.000 HD
ENDBRANCH   7  24
TORSDOF 5
ENDMDL
MODEL 6
REMARK VINA RESULT:      -6.8      3.966      6.740
REMARK  Name = 
REMARK  6 active torsions:
REMARK  status: ('A' for Active; 'I' for Inactive)
REMARK    1  A    between atoms: C_1  and  O_2
REMARK    2  A    between atoms: O_2  and  C_3
REMARK    3  A    between atoms: C_7  and  C_8
REMARK    4  A    between atoms: C_9  and  C_10
REMARK    5  A    between atoms: C_12  and  N_13
REMARK    6  A    between atoms: C_17  and  O_18
REMARK                            x       y       z     vdW  Elec       q    Type
REMARK                         _______ _______ _______ _____ _____    ______ ____
ROOT
ATOM      1  C   UNL     1       5.347   4.842  16.251  0.00  0.00    +0.000 C 
ATOM      2  C   UNL     1       6.367   5.231  17.308  0.00  0.00    +0.000 C 
ATOM      3  C   UNL     1       6.218   4.715  18.534  0.00  0.00    +0.000 C 
ATOM      4  O   UNL     1       5.835   3.379  18.625  0.00  0.00    +0.000 OA
ATOM      5  C   UNL     1       4.643   3.127  17.972  0.00  0.00    +0.000 A 
ATOM      6  C   UNL     1       3.746   2.362  18.712  0.00  0.00    +0.000 A 
ATOM      7  C   UNL     1       2.406   2.615  18.528  0.00  0.00    +0.000 A 
ATOM      8  C   UNL     1       1.984   3.552  17.585  0.00  0.00    +0.000 A 
ATOM      9  C   UNL     1       2.909   4.173  16.722  0.00  0.00    +0.000 A 
ATOM     10  C   UNL     1       4.281   3.940  16.877  0.00  0.00    +0.000 A 
ENDROOT
BRANCH   1  15
ATOM     11  C   UNL     1       5.742   3.478  12.679  0.00  0.00    +0.000 A 
ATOM     12  C   UNL     1       6.940   4.055  12.268  0.00  0.00    +0.000 A 
ATOM     13  C   UNL     1       7.626   4.891  13.152  0.00  0.00    +0.000 A 
ATOM     14  C   UNL     1       7.149   5.157  14.430  0.00  0.00    +0.000 A 
ATOM     15  C   UNL     1       5.975   4.547  14.889  0.00  0.00    +0.000 A 
ATOM     16  C   UNL     1       5.267   3.715  13.972  0.00  0.00    +0.000 A 
BRANCH  11  18
ATOM     17  C   UNL     1       3.979   3.214  11.142  0.00  0.00    +0.000 C 
ATOM     18  O   UNL     1       5.125   2.661  11.768  0.00  0.00    +0.000 OA
ENDBRANCH  11  18
ENDBRANCH   1  15
BRANCH   3  19
ATOM     19  N   UNL     1       6.014   5.488  19.669  0.00  0.00    +0.000 N 
ATOM     20  H   UNL     1       5.862   4.918  20.505  0.00  0.00    +0.000 HD
ATOM     21  H   UNL     1       6.857   6.044  19.835  0.00  0.00    +0.000 HD
ENDBRANCH   3  19
BRANCH   2  22
ATOM     22  C   UNL     1       6.954   6.618  17.100  0.00  0.00    +0.000 C 
ATOM     23  N   UNL     1       7.441   7.768  16.929  0.00  0.00    +0.000 NA
ENDBRANCH   2  22
BRANCH   7  24
ATOM     24  O   UNL     1       1.468   2.044  19.343  0.00  0.00    +0.000 OA
ATOM     25  H   UNL     1       1.909   1.429  19.961  0.00  0.00    +0.000 HD
ENDBRANCH   7  24
TORSDOF 5
ENDMDL
MODEL 7
REMARK VINA RESULT:      -6.7      2.535      4.642
REMARK  Name = 
REMARK  6 active torsions:
REMARK  status: ('A' for Active; 'I' for Inactive)
REMARK    1  A    between atoms: C_1  and  O_2
REMARK    2  A    between atoms: O_2  and  C_3
REMARK    3  A    between atoms: C_7  and  C_8
REMARK    4  A    between atoms: C_9  and  C_10
REMARK    5  A    between atoms: C_12  and  N_13
REMARK    6  A    between atoms: C_17  and  O_18
REMARK                            x       y       z     vdW  Elec       q    Type
REMARK                         _______ _______ _______ _____ _____    ______ ____
ROOT
ATOM      1  C   UNL     1       2.823   6.310  19.017  0.00  0.00    +0.000 C 
ATOM      2  C   UNL     1       3.200   5.684  17.685  0.00  0.00    +0.000 C 
ATOM      3  C   UNL     1       2.921   4.387  17.507  0.00  0.00    +0.000 C 
ATOM      4  O   UNL     1       1.702   3.921  17.992  0.00  0.00    +0.000 OA
ATOM      5  C   UNL     1       1.552   4.148  19.347  0.00  0.00    +0.000 A 
ATOM      6  C   UNL     1       1.079   3.046  20.054  0.00  0.00    +0.000 A 
ATOM      7  C   UNL     1       1.521   2.894  21.348  0.00  0.00    +0.000 A 
ATOM      8  C   UNL     1       2.351   3.852  21.930  0.00  0.00    +0.000 A 
ATOM      9  C   UNL     1       2.660   5.048  21.251  0.00  0.00    +0.000 A 
ATOM     10  C   UNL     1       2.227   5.240  19.934  0.00  0.00    +0.000 A 
ENDROOT
BRANCH   1  15
ATOM     11  C   UNL     1       1.025   9.574  19.959  0.00  0.00    +0.000 A 
ATOM     12  C   UNL     1       1.176  10.343  18.809  0.00  0.00    +0.000 A 
ATOM     13  C   UNL     1       1.862   9.802  17.719  0.00  0.00    +0.000 A 
ATOM     14  C   UNL     1       2.394   8.518  17.751  0.00  0.00    +0.000 A 
ATOM     15  C   UNL     1       2.210   7.704  18.875  0.00  0.00    +0.000 A 
ATOM     16  C   UNL     1       1.531   8.272  19.992  0.00  0.00    +0.000 A 
BRANCH  11  18
ATOM     17  C   UNL     1       0.507   9.551  22.256  0.00  0.00    +0.000 C 
ATOM     18  O   UNL     1       0.333  10.161  20.987  0.00  0.00    +0.000 OA
ENDBRANCH  11  18
ENDBRANCH   1  15
BRANCH   3  19
ATOM     19  N   UNL     1       3.891   3.424  17.264  0.00  0.00    +0.000 N 
ATOM     20  H   UNL     1       3.589   2.736  16.568  0.00  0.00    +0.000 HD
ATOM     21  H   UNL     1       4.719   3.890  16.884  0.00  0.00    +0.000 HD
ENDBRANCH   3  19
BRANCH   2  22
ATOM     22  C   UNL     1       4.416   6.327  17.037  0.00  0.00    +0.000 C 
ATOM     23  N   UNL     1       5.425   6.859  16.500  0.00  0.00    +0.000 NA
ENDBRANCH   2  22
BRANCH   7  24
ATOM     24  O   UNL     1       1.255   1.751  22.049  0.00  0.00    +0.000 OA
ATOM     25  H   UNL     1       1.916   1.649  22.762  0.00  0.00    +0.000 HD
ENDBRANCH   7  24
TORSDOF 5
ENDMDL
MODEL 8
REMARK VINA RESULT:      -6.6      2.398      4.313
REMARK  Name = 
REMARK  6 active torsions:
REMARK  status: ('A' for Active; 'I' for Inactive)
REMARK    1  A    between atoms: C_1  and  O_2
REMARK    2  A    between atoms: O_2  and  C_3
REMARK    3  A    between atoms: C_7  and  C_8
REMARK    4  A    between atoms: C_9  and  C_10
REMARK    5  A    between atoms: C_12  and  N_13
REMARK    6  A    between atoms: C_17  and  O_18
REMARK                            x       y       z     vdW  Elec       q    Type
REMARK                         _______ _______ _______ _____ _____    ______ ____
ROOT
ATOM      1  C   UNL     1       3.363   6.036  18.662  0.00  0.00    +0.000 C 
ATOM      2  C   UNL     1       4.267   5.869  17.453  0.00  0.00    +0.000 C 
ATOM      3  C   UNL     1       4.290   4.671  16.856  0.00  0.00    +0.000 C 
ATOM      4  O   UNL     1       3.077   4.001  16.715  0.00  0.00    +0.000 OA
ATOM      5  C   UNL     1       2.444   3.798  17.926  0.00  0.00    +0.000 A 
ATOM      6  C   UNL     1       1.957   2.504  18.097  0.00  0.00    +0.000 A 
ATOM      7  C   UNL     1       1.957   1.998  19.376  0.00  0.00    +0.000 A 
ATOM      8  C   UNL     1       2.366   2.787  20.451  0.00  0.00    +0.000 A 
ATOM      9  C   UNL     1       2.676   4.149  20.269  0.00  0.00    +0.000 A 
ATOM     10  C   UNL     1       2.685   4.702  18.982  0.00  0.00    +0.000 A 
ENDROOT
BRANCH   1  15
ATOM     11  C   UNL     1       1.282   8.998  19.956  0.00  0.00    +0.000 A 
ATOM     12  C   UNL     1       1.303   9.875  18.875  0.00  0.00    +0.000 A 
ATOM     13  C   UNL     1       1.995   9.506  17.719  0.00  0.00    +0.000 A 
ATOM     14  C   UNL     1       2.656   8.288  17.617  0.00  0.00    +0.000 A 
ATOM     15  C   UNL     1       2.605   7.364  18.668  0.00  0.00    +0.000 A 
ATOM     16  C   UNL     1       1.919   7.758  19.854  0.00  0.00    +0.000 A 
BRANCH  11  18
ATOM     17  C   UNL     1       1.220   9.198  22.301  0.00  0.00    +0.000 C 
ATOM     18  O   UNL     1       0.578   9.416  21.055  0.00  0.00    +0.000 OA
ENDBRANCH  11  18
ENDBRANCH   1  15
BRANCH   3  19
ATOM     19  N   UNL     1       5.434   3.892  16.750  0.00  0.00    +0.000 N 
ATOM     20  H   UNL     1       5.826   3.902  15.805  0.00  0.00    +0.000 HD
ATOM     21  H   UNL     1       6.147   4.281  17.373  0.00  0.00    +0.000 HD
ENDBRANCH   3  19
BRANCH   2  22
ATOM     22  C   UNL     1       5.501   6.755  17.493  0.00  0.00    +0.000 C 
ATOM     23  N   UNL     1       6.525   7.491  17.526  0.00  0.00    +0.000 NA
ENDBRANCH   2  22
BRANCH   7  24
ATOM     24  O   UNL     1       1.670   0.681  19.607  0.00  0.00    +0.000 OA
ATOM     25  H   UNL     1       2.362   0.125  19.198  0.00  0.00    +0.000 HD
ENDBRANCH   7  24
TORSDOF 5
ENDMDL
MODEL 9
REMARK VINA RESULT:      -6.4      2.616      6.051
REMARK  Name = 
REMARK  6 active torsions:
REMARK  status: ('A' for Active; 'I' for Inactive)
REMARK    1  A    between atoms: C_1  and  O_2
REMARK    2  A    between atoms: O_2  and  C_3
REMARK    3  A    between atoms: C_7  and  C_8
REMARK    4  A    between atoms: C_9  and  C_10
REMARK    5  A    between atoms: C_12  and  N_13
REMARK    6  A    between atoms: C_17  and  O_18
REMARK                            x       y       z     vdW  Elec       q    Type
REMARK                         _______ _______ _______ _____ _____    ______ ____
ROOT
ATOM      1  C   UNL     1       2.835   5.764  18.327  0.00  0.00    +0.000 C 
ATOM      2  C   UNL     1       2.589   7.097  19.013  0.00  0.00    +0.000 C 
ATOM      3  C   UNL     1       2.157   7.073  20.280  0.00  0.00    +0.000 C 
ATOM      4  O   UNL     1       2.722   6.128  21.132  0.00  0.00    +0.000 OA
ATOM      5  C   UNL     1       2.566   4.837  20.664  0.00  0.00    +0.000 A 
ATOM      6  C   UNL     1       2.132   3.935  21.633  0.00  0.00    +0.000 A 
ATOM      7  C   UNL     1       1.323   2.904  21.213  0.00  0.00    +0.000 A 
ATOM      8  C   UNL     1       1.019   2.748  19.861  0.00  0.00    +0.000 A 
ATOM      9  C   UNL     1       1.623   3.566  18.886  0.00  0.00    +0.000 A 
ATOM     10  C   UNL     1       2.455   4.624  19.274  0.00  0.00    +0.000 A 
ENDROOT
BRANCH   1  15
ATOM     11  C   UNL     1       5.474   4.578  15.797  0.00  0.00    +0.000 A 
ATOM     12  C   UNL     1       6.361   5.651  15.761  0.00  0.00    +0.000 A 
ATOM     13  C   UNL     1       6.104   6.766  16.563  0.00  0.00    +0.000 A 
ATOM     14  C   UNL     1       4.993   6.831  17.396  0.00  0.00    +0.000 A 
ATOM     15  C   UNL     1       4.115   5.744  17.491  0.00  0.00    +0.000 A 
ATOM     16  C   UNL     1       4.370   4.621  16.652  0.00  0.00    +0.000 A 
BRANCH  11  18
ATOM     17  C   UNL     1       6.178   3.848  13.672  0.00  0.00    +0.000 C 
ATOM     18  O   UNL     1       5.790   3.513  14.995  0.00  0.00    +0.000 OA
ENDBRANCH  11  18
ENDBRANCH   1  15
BRANCH   3  19
ATOM     19  N   UNL     1       0.943   7.611  20.683  0.00  0.00    +0.000 N 
ATOM     20  H   UNL     1       0.250   7.615  19.930  0.00  0.00    +0.000 HD
ATOM     21  H   UNL     1       0.565   7.026  21.433  0.00  0.00    +0.000 HD
ENDBRANCH   3  19
BRANCH   2  22
ATOM     22  C   UNL     1       2.171   8.202  18.057  0.00  0.00    +0.000 C 
ATOM     23  N   UNL     1       1.823   9.118  17.263  0.00  0.00    +0.000 NA
ENDBRANCH   2  22
BRANCH   7  24
ATOM     24  O   UNL     1       0.706   2.086  22.118  0.00  0.00    +0.000 OA
ATOM     25  H   UNL     1       0.308   2.631  22.826  0.00  0.00    +0.000 HD
ENDBRANCH   7  24
TORSDOF 5
ENDMDL
