MODEL 1
REMARK VINA RESULT:      -7.6      0.000      0.000
REMARK  Name = 
REMARK  7 active torsions:
REMARK  status: ('A' for Active; 'I' for Inactive)
REMARK    1  A    between atoms: C_1  and  N_2
REMARK    2  A    between atoms: C_7  and  C_8
REMARK    3  A    between atoms: C_10  and  C_11
REMARK    4  A    between atoms: N_13  and  C_14
REMARK    5  A    between atoms: C_14  and  C_15
REMARK    6  A    between atoms: C_22  and  O_23
REMARK    7  A    between atoms: N_26  and  C_27
REMARK                            x       y       z     vdW  Elec       q    Type
REMARK                         _______ _______ _______ _____ _____    ______ ____
ROOT
ATOM      1  C   UNL     1       3.784   5.078  17.658  0.00  0.00    +0.000 A 
ATOM      2  N   UNL     1       3.300   6.184  18.153  0.00  0.00    +0.000 NA
ATOM      3  C   UNL     1       2.379   6.092  19.178  0.00  0.00    +0.000 A 
ATOM      4  C   UNL     1       1.776   4.951  19.561  0.00  0.00    +0.000 A 
ATOM      5  C   UNL     1       2.215   3.717  18.870  0.00  0.00    +0.000 A 
ATOM      6  O   UNL     1       1.575   2.676  18.991  0.00  0.00    +0.000 OA
ATOM      7  N   UNL     1       3.365   3.834  18.106  0.00  0.00    +0.000 N 
ATOM      8  C   UNL     1       4.000   2.582  17.727  0.00  0.00    +0.000 C 
ENDROOT
BRANCH   1  15
ATOM      9  C   UNL     1       6.758   4.130  15.440  0.00  0.00    +0.000 C 
ATOM     10  N   UNL     1       6.021   4.358  16.694  0.00  0.00    +0.000 NA
ATOM     11  C   UNL     1       6.876   5.064  17.671  0.00  0.00    +0.000 C 
ATOM     12  C   UNL     1       7.157   6.532  17.315  0.00  0.00    +0.000 C 
ATOM     13  O   UNL     1       5.957   7.271  17.072  0.00  0.00    +0.000 OA
ATOM     14  C   UNL     1       5.117   6.634  16.097  0.00  0.00    +0.000 C 
ATOM     15  C   UNL     1       4.783   5.164  16.451  0.00  0.00    +0.000 C 
ENDBRANCH   1  15
BRANCH   3  16
ATOM     16  C   UNL     1       1.945   7.341  19.903  0.00  0.00    +0.000 C 
ATOM     17  O   UNL     1       1.759   7.341  21.121  0.00  0.00    +0.000 OA
ATOM     18  N   UNL     1       1.747   8.443  19.120  0.00  0.00    +0.000 N 
ATOM     19  H   UNL     1       1.990   8.377  18.136  0.00  0.00    +0.000 HD
BRANCH  18  20
ATOM     20  C   UNL     1       1.314   9.698  19.689  0.00  0.00    +0.000 C 
BRANCH  20  21
ATOM     21  C   UNL     1       0.019  10.174  19.081  0.00  0.00    +0.000 A 
ATOM     22  C   UNL     1      -0.413   9.660  17.849  0.00  0.00    +0.000 A 
ATOM     23  C   UNL     1      -1.616  10.091  17.290  0.00  0.00    +0.000 A 
ATOM     24  C   UNL     1      -2.382  11.041  17.955  0.00  0.00    +0.000 A 
ATOM     25  F   UNL     1      -3.537  11.452  17.414  0.00  0.00    +0.000 F 
ATOM     26  C   UNL     1      -1.968  11.571  19.170  0.00  0.00    +0.000 A 
ATOM     27  C   UNL     1      -0.766  11.140  19.734  0.00  0.00    +0.000 A 
ENDBRANCH  20  21
ENDBRANCH  18  20
ENDBRANCH   3  16
BRANCH   4  28
ATOM     28  O   UNL     1       0.801   4.835  20.541  0.00  0.00    +0.000 OA
ATOM     29  H   UNL     1       0.400   5.720  20.693  0.00  0.00    +0.000 HD
ENDBRANCH   4  28
TORSDOF 5
ENDMDL
MODEL 2
REMARK VINA RESULT:      -7.5      4.018      8.123
REMARK  Name = 
REMARK  7 active torsions:
REMARK  status: ('A' for Active; 'I' for Inactive)
REMARK    1  A    between atoms: C_1  and  N_2
REMARK    2  A    between atoms: C_7  and  C_8
REMARK    3  A    between atoms: C_10  and  C_11
REMARK    4  A    between atoms: N_13  and  C_14
REMARK    5  A    between atoms: C_14  and  C_15
REMARK    6  A    between atoms: C_22  and  O_23
REMARK    7  A    between atoms: N_26  and  C_27
REMARK                            x       y       z     vdW  Elec       q    Type
REMARK                         _______ _______ _______ _____ _____    ______ ____
ROOT
ATOM      1  C   UNL     1       0.405  12.386  20.765  0.00  0.00    +0.000 A 
ATOM      2  N   UNL     1       0.949  11.566  19.908  0.00  0.00    +0.000 NA
ATOM      3  C   UNL     1       0.748  10.212  20.085  0.00  0.00    +0.000 A 
ATOM      4  C   UNL     1       0.220   9.657  21.193  0.00  0.00    +0.000 A 
ATOM      5  C   UNL     1      -0.241  10.600  22.239  0.00  0.00    +0.000 A 
ATOM      6  O   UNL     1      -0.527  10.191  23.361  0.00  0.00    +0.000 OA
ATOM      7  N   UNL     1      -0.320  11.928  21.855  0.00  0.00    +0.000 N 
ATOM      8  C   UNL     1      -1.098  12.791  22.729  0.00  0.00    +0.000 C 
ENDROOT
BRANCH   1  15
ATOM      9  C   UNL     1       0.632  15.796  19.037  0.00  0.00    +0.000 C 
ATOM     10  N   UNL     1       0.766  14.337  19.178  0.00  0.00    +0.000 NA
ATOM     11  C   UNL     1       2.057  13.882  18.621  0.00  0.00    +0.000 C 
ATOM     12  C   UNL     1       3.280  14.293  19.457  0.00  0.00    +0.000 C 
ATOM     13  O   UNL     1       3.158  13.902  20.826  0.00  0.00    +0.000 OA
ATOM     14  C   UNL     1       1.930  14.359  21.414  0.00  0.00    +0.000 C 
ATOM     15  C   UNL     1       0.676  13.924  20.614  0.00  0.00    +0.000 C 
ENDBRANCH   1  15
BRANCH   3  16
ATOM     16  C   UNL     1       1.193   9.247  19.016  0.00  0.00    +0.000 C 
ATOM     17  O   UNL     1       0.764   9.327  17.863  0.00  0.00    +0.000 OA
ATOM     18  N   UNL     1       2.066   8.275  19.418  0.00  0.00    +0.000 N 
ATOM     19  H   UNL     1       2.423   8.322  20.367  0.00  0.00    +0.000 HD
BRANCH  18  20
ATOM     20  C   UNL     1       2.555   7.279  18.494  0.00  0.00    +0.000 C 
BRANCH  20  21
ATOM     21  C   UNL     1       2.177   5.884  18.920  0.00  0.00    +0.000 A 
ATOM     22  C   UNL     1       1.951   4.889  17.957  0.00  0.00    +0.000 A 
ATOM     23  C   UNL     1       1.611   3.594  18.349  0.00  0.00    +0.000 A 
ATOM     24  C   UNL     1       1.489   3.295  19.701  0.00  0.00    +0.000 A 
ATOM     25  F   UNL     1       1.162   2.050  20.073  0.00  0.00    +0.000 F 
ATOM     26  C   UNL     1       1.698   4.266  20.671  0.00  0.00    +0.000 A 
ATOM     27  C   UNL     1       2.040   5.563  20.282  0.00  0.00    +0.000 A 
ENDBRANCH  20  21
ENDBRANCH  18  20
ENDBRANCH   3  16
BRANCH   4  28
ATOM     28  O   UNL     1       0.065   8.298  21.429  0.00  0.00    +0.000 OA
ATOM     29  H   UNL     1       0.595   7.801  20.766  0.00  0.00    +0.000 HD
ENDBRANCH   4  28
TORSDOF 5
ENDMDL
MODEL 3
REMARK VINA RESULT:      -7.4      3.890      8.363
REMARK  Name = 
REMARK  7 active torsions:
REMARK  status: ('A' for Active; 'I' for Inactive)
REMARK    1  A    between atoms: C_1  and  N_2
REMARK    2  A    between atoms: C_7  and  C_8
REMARK    3  A    between atoms: C_10  and  C_11
REMARK    4  A    between atoms: N_13  and  C_14
REMARK    5  A    between atoms: C_14  and  C_15
REMARK    6  A    between atoms: C_22  and  O_23
REMARK    7  A    between atoms: N_26  and  C_27
REMARK                            x       y       z     vdW  Elec       q    Type
REMARK                         _______ _______ _______ _____ _____    ______ ____
ROOT
ATOM      1  C   UNL     1      -1.450  11.202  19.175  0.00  0.00    +0.000 A 
ATOM      2  N   UNL     1      -0.459  10.497  18.701  0.00  0.00    +0.000 NA
ATOM      3  C   UNL     1       0.523  10.082  19.579  0.00  0.00    +0.000 A 
ATOM      4  C   UNL     1       0.656  10.529  20.842  0.00  0.00    +0.000 A 
ATOM      5  C   UNL     1      -0.389  11.467  21.316  0.00  0.00    +0.000 A 
ATOM      6  O   UNL     1      -0.234  12.093  22.360  0.00  0.00    +0.000 OA
ATOM      7  N   UNL     1      -1.510  11.571  20.510  0.00  0.00    +0.000 N 
ATOM      8  C   UNL     1      -2.673  12.190  21.127  0.00  0.00    +0.000 C 
ENDROOT
BRANCH   1  15
ATOM      9  C   UNL     1      -4.946  11.800  17.731  0.00  0.00    +0.000 C 
ATOM     10  N   UNL     1      -3.857  11.049  18.376  0.00  0.00    +0.000 NA
ATOM     11  C   UNL     1      -3.779   9.680  17.825  0.00  0.00    +0.000 C 
ATOM     12  C   UNL     1      -3.261   9.614  16.379  0.00  0.00    +0.000 C 
ATOM     13  O   UNL     1      -2.012  10.292  16.220  0.00  0.00    +0.000 OA
ATOM     14  C   UNL     1      -2.060  11.641  16.711  0.00  0.00    +0.000 C 
ATOM     15  C   UNL     1      -2.540  11.734  18.180  0.00  0.00    +0.000 C 
ENDBRANCH   1  15
BRANCH   3  16
ATOM     16  C   UNL     1       1.575   9.109  19.112  0.00  0.00    +0.000 C 
ATOM     17  O   UNL     1       2.180   9.280  18.052  0.00  0.00    +0.000 OA
ATOM     18  N   UNL     1       1.783   8.026  19.920  0.00  0.00    +0.000 N 
ATOM     19  H   UNL     1       1.294   7.997  20.810  0.00  0.00    +0.000 HD
BRANCH  18  20
ATOM     20  C   UNL     1       2.752   7.012  19.578  0.00  0.00    +0.000 C 
BRANCH  20  21
ATOM     21  C   UNL     1       2.104   5.669  19.354  0.00  0.00    +0.000 A 
ATOM     22  C   UNL     1       1.521   4.979  20.427  0.00  0.00    +0.000 A 
ATOM     23  C   UNL     1       0.912   3.742  20.221  0.00  0.00    +0.000 A 
ATOM     24  C   UNL     1       0.893   3.189  18.946  0.00  0.00    +0.000 A 
ATOM     25  F   UNL     1       0.307   1.999  18.752  0.00  0.00    +0.000 F 
ATOM     26  C   UNL     1       1.475   3.849  17.871  0.00  0.00    +0.000 A 
ATOM     27  C   UNL     1       2.083   5.089  18.074  0.00  0.00    +0.000 A 
ENDBRANCH  20  21
ENDBRANCH  18  20
ENDBRANCH   3  16
BRANCH   4  28
ATOM     28  O   UNL     1       1.667  10.182  21.726  0.00  0.00    +0.000 OA
ATOM     29  H   UNL     1       2.064  11.005  22.090  0.00  0.00    +0.000 HD
ENDBRANCH   4  28
TORSDOF 5
ENDMDL
MODEL 4
REMARK VINA RESULT:      -7.4      1.606      3.753
REMARK  Name = 
REMARK  7 active torsions:
REMARK  status: ('A' for Active; 'I' for Inactive)
REMARK    1  A    between atoms: C_1  and  N_2
REMARK    2  A    between atoms: C_7  and  C_8
REMARK    3  A    between atoms: C_10  and  C_11
REMARK    4  A    between atoms: N_13  and  C_14
REMARK    5  A    between atoms: C_14  and  C_15
REMARK    6  A    between atoms: C_22  and  O_23
REMARK    7  A    between atoms: N_26  and  C_27
REMARK                            x       y       z     vdW  Elec       q    Type
REMARK                         _______ _______ _______ _____ _____    ______ ____
ROOT
ATOM      1  C   UNL     1       3.142   5.301  18.876  0.00  0.00    +0.000 A 
ATOM      2  N   UNL     1       2.508   6.201  19.576  0.00  0.00    +0.000 NA
ATOM      3  C   UNL     1       2.393   7.473  19.051  0.00  0.00    +0.000 A 
ATOM      4  C   UNL     1       3.069   7.918  17.975  0.00  0.00    +0.000 A 
ATOM      5  C   UNL     1       3.924   6.924  17.284  0.00  0.00    +0.000 A 
ATOM      6  O   UNL     1       4.739   7.286  16.441  0.00  0.00    +0.000 OA
ATOM      7  N   UNL     1       3.729   5.605  17.657  0.00  0.00    +0.000 N 
ATOM      8  C   UNL     1       4.282   4.607  16.754  0.00  0.00    +0.000 C 
ENDROOT
BRANCH   1  15
ATOM      9  C   UNL     1       3.492   1.487  18.938  0.00  0.00    +0.000 C 
ATOM     10  N   UNL     1       2.955   2.793  18.518  0.00  0.00    +0.000 NA
ATOM     11  C   UNL     1       1.482   2.733  18.412  0.00  0.00    +0.000 C 
ATOM     12  C   UNL     1       0.760   2.627  19.765  0.00  0.00    +0.000 C 
ATOM     13  O   UNL     1       1.157   3.657  20.674  0.00  0.00    +0.000 OA
ATOM     14  C   UNL     1       2.583   3.720  20.832  0.00  0.00    +0.000 C 
ATOM     15  C   UNL     1       3.336   3.869  19.487  0.00  0.00    +0.000 C 
ENDBRANCH   1  15
BRANCH   3  16
ATOM     16  C   UNL     1       1.507   8.483  19.734  0.00  0.00    +0.000 C 
ATOM     17  O   UNL     1       1.392   8.508  20.961  0.00  0.00    +0.000 OA
ATOM     18  N   UNL     1       0.827   9.333  18.907  0.00  0.00    +0.000 N 
ATOM     19  H   UNL     1       1.031   9.292  17.913  0.00  0.00    +0.000 HD
BRANCH  18  20
ATOM     20  C   UNL     1      -0.067  10.336  19.435  0.00  0.00    +0.000 C 
BRANCH  20  21
ATOM     21  C   UNL     1      -1.281  10.522  18.560  0.00  0.00    +0.000 A 
ATOM     22  C   UNL     1      -1.412   9.792  17.369  0.00  0.00    +0.000 A 
ATOM     23  C   UNL     1      -2.539   9.955  16.564  0.00  0.00    +0.000 A 
ATOM     24  C   UNL     1      -3.530  10.853  16.942  0.00  0.00    +0.000 A 
ATOM     25  F   UNL     1      -4.611  11.007  16.165  0.00  0.00    +0.000 F 
ATOM     26  C   UNL     1      -3.416  11.595  18.111  0.00  0.00    +0.000 A 
ATOM     27  C   UNL     1      -2.290  11.433  18.920  0.00  0.00    +0.000 A 
ENDBRANCH  20  21
ENDBRANCH  18  20
ENDBRANCH   3  16
BRANCH   4  28
ATOM     28  O   UNL     1       3.026   9.206  17.462  0.00  0.00    +0.000 OA
ATOM     29  H   UNL     1       2.150   9.600  17.671  0.00  0.00    +0.000 HD
ENDBRANCH   4  28
TORSDOF 5
ENDMDL
MODEL 5
REMARK VINA RESULT:      -7.3      4.495      8.403
REMARK  Name = 
REMARK  7 active torsions:
REMARK  status: ('A' for Active; 'I' for Inactive)
REMARK    1  A    between atoms: C_1  and  N_2
REMARK    2  A    between atoms: C_7  and  C_8
REMARK    3  A    between atoms: C_10  and  C_11
REMARK    4  A    between atoms: N_13  and  C_14
REMARK    5  A    between atoms: C_14  and  C_15
REMARK    6  A    between atoms: C_22  and  O_23
REMARK    7  A    between atoms: N_26  and  C_27
REMARK                            x       y       z     vdW  Elec       q    Type
REMARK                         _______ _______ _______ _____ _____    ______ ____
ROOT
ATOM      1  C   UNL     1       3.375   4.713  18.136  0.00  0.00    +0.000 A 
ATOM      2  N   UNL     1       4.251   4.354  17.239  0.00  0.00    +0.000 NA
ATOM      3  C   UNL     1       5.044   5.333  16.674  0.00  0.00    +0.000 A 
ATOM      4  C   UNL     1       4.839   6.656  16.815  0.00  0.00    +0.000 A 
ATOM      5  C   UNL     1       3.726   7.052  17.710  0.00  0.00    +0.000 A 
ATOM      6  O   UNL     1       3.325   8.213  17.726  0.00  0.00    +0.000 OA
ATOM      7  N   UNL     1       3.200   6.041  18.495  0.00  0.00    +0.000 N 
ATOM      8  C   UNL     1       2.378   6.475  19.614  0.00  0.00    +0.000 C 
ENDROOT
BRANCH   1  15
ATOM      9  C   UNL     1       1.739   2.522  20.819  0.00  0.00    +0.000 C 
ATOM     10  N   UNL     1       2.827   3.234  20.128  0.00  0.00    +0.000 NA
ATOM     11  C   UNL     1       4.037   2.386  20.063  0.00  0.00    +0.000 C 
ATOM     12  C   UNL     1       3.915   1.193  19.102  0.00  0.00    +0.000 C 
ATOM     13  O   UNL     1       3.510   1.592  17.790  0.00  0.00    +0.000 OA
ATOM     14  C   UNL     1       2.314   2.387  17.810  0.00  0.00    +0.000 C 
ATOM     15  C   UNL     1       2.423   3.621  18.740  0.00  0.00    +0.000 C 
ENDBRANCH   1  15
BRANCH   3  16
ATOM     16  C   UNL     1       6.193   4.937  15.782  0.00  0.00    +0.000 C 
ATOM     17  O   UNL     1       7.169   4.330  16.227  0.00  0.00    +0.000 OA
ATOM     18  N   UNL     1       6.090   5.324  14.475  0.00  0.00    +0.000 N 
ATOM     19  H   UNL     1       5.223   5.759  14.176  0.00  0.00    +0.000 HD
BRANCH  18  20
ATOM     20  C   UNL     1       7.131   5.022  13.521  0.00  0.00    +0.000 C 
BRANCH  20  21
ATOM     21  C   UNL     1       6.781   3.831  12.665  0.00  0.00    +0.000 A 
ATOM     22  C   UNL     1       5.445   3.422  12.537  0.00  0.00    +0.000 A 
ATOM     23  C   UNL     1       5.117   2.328  11.738  0.00  0.00    +0.000 A 
ATOM     24  C   UNL     1       6.123   1.636  11.073  0.00  0.00    +0.000 A 
ATOM     25  F   UNL     1       5.804   0.585  10.306  0.00  0.00    +0.000 F 
ATOM     26  C   UNL     1       7.453   2.016  11.194  0.00  0.00    +0.000 A 
ATOM     27  C   UNL     1       7.784   3.113  11.992  0.00  0.00    +0.000 A 
ENDBRANCH  20  21
ENDBRANCH  18  20
ENDBRANCH   3  16
BRANCH   4  28
ATOM     28  O   UNL     1       5.577   7.663  16.210  0.00  0.00    +0.000 OA
ATOM     29  H   UNL     1       6.405   7.275  15.851  0.00  0.00    +0.000 HD
ENDBRANCH   4  28
TORSDOF 5
ENDMDL
MODEL 6
REMARK VINA RESULT:      -7.1      3.636      8.423
REMARK  Name = 
REMARK  7 active torsions:
REMARK  status: ('A' for Active; 'I' for Inactive)
REMARK    1  A    between atoms: C_1  and  N_2
REMARK    2  A    between atoms: C_7  and  C_8
REMARK    3  A    between atoms: C_10  and  C_11
REMARK    4  A    between atoms: N_13  and  C_14
REMARK    5  A    between atoms: C_14  and  C_15
REMARK    6  A    between atoms: C_22  and  O_23
REMARK    7  A    between atoms: N_26  and  C_27
REMARK                            x       y       z     vdW  Elec       q    Type
REMARK                         _______ _______ _______ _____ _____    ______ ____
ROOT
ATOM      1  C   UNL     1      -0.560  11.206  20.663  0.00  0.00    +0.000 A 
ATOM      2  N   UNL     1       0.162  10.602  19.760  0.00  0.00    +0.000 NA
ATOM      3  C   UNL     1       0.865   9.474  20.135  0.00  0.00    +0.000 A 
ATOM      4  C   UNL     1       1.041   9.073  21.408  0.00  0.00    +0.000 A 
ATOM      5  C   UNL     1       0.349   9.873  22.446  0.00  0.00    +0.000 A 
ATOM      6  O   UNL     1       0.625   9.722  23.633  0.00  0.00    +0.000 OA
ATOM      7  N   UNL     1      -0.598  10.769  21.979  0.00  0.00    +0.000 N 
ATOM      8  C   UNL     1      -1.522  11.286  22.977  0.00  0.00    +0.000 C 
ENDROOT
BRANCH   1  15
ATOM      9  C   UNL     1      -3.445  13.717  20.456  0.00  0.00    +0.000 C 
ATOM     10  N   UNL     1      -2.795  12.396  20.452  0.00  0.00    +0.000 NA
ATOM     11  C   UNL     1      -3.347  11.554  19.369  0.00  0.00    +0.000 C 
ATOM     12  C   UNL     1      -2.938  12.001  17.957  0.00  0.00    +0.000 C 
ATOM     13  O   UNL     1      -1.521  12.132  17.818  0.00  0.00    +0.000 OA
ATOM     14  C   UNL     1      -0.952  12.975  18.832  0.00  0.00    +0.000 C 
ATOM     15  C   UNL     1      -1.315  12.524  20.269  0.00  0.00    +0.000 C 
ENDBRANCH   1  15
BRANCH   3  16
ATOM     16  C   UNL     1       1.552   8.641  19.083  0.00  0.00    +0.000 C 
ATOM     17  O   UNL     1       1.436   8.902  17.884  0.00  0.00    +0.000 OA
ATOM     18  N   UNL     1       2.272   7.576  19.546  0.00  0.00    +0.000 N 
ATOM     19  H   UNL     1       2.374   7.472  20.551  0.00  0.00    +0.000 HD
BRANCH  18  20
ATOM     20  C   UNL     1       2.963   6.689  18.640  0.00  0.00    +0.000 C 
BRANCH  20  21
ATOM     21  C   UNL     1       2.392   5.294  18.674  0.00  0.00    +0.000 A 
ATOM     22  C   UNL     1       1.621   4.873  19.768  0.00  0.00    +0.000 A 
ATOM     23  C   UNL     1       1.084   3.587  19.797  0.00  0.00    +0.000 A 
ATOM     24  C   UNL     1       1.321   2.718  18.739  0.00  0.00    +0.000 A 
ATOM     25  F   UNL     1       0.803   1.483  18.770  0.00  0.00    +0.000 F 
ATOM     26  C   UNL     1       2.090   3.110  17.650  0.00  0.00    +0.000 A 
ATOM     27  C   UNL     1       2.629   4.397  17.617  0.00  0.00    +0.000 A 
ENDBRANCH  20  21
ENDBRANCH  18  20
ENDBRANCH   3  16
BRANCH   4  28
ATOM     28  O   UNL     1       1.794   7.984  21.822  0.00  0.00    +0.000 OA
ATOM     29  H   UNL     1       2.747   8.198  21.706  0.00  0.00    +0.000 HD
ENDBRANCH   4  28
TORSDOF 5
ENDMDL
MODEL 7
REMARK VINA RESULT:      -7.1      3.923      8.185
REMARK  Name = 
REMARK  7 active torsions:
REMARK  status: ('A' for Active; 'I' for Inactive)
REMARK    1  A    between atoms: C_1  and  N_2
REMARK    2  A    between atoms: C_7  and  C_8
REMARK    3  A    between atoms: C_10  and  C_11
REMARK    4  A    between atoms: N_13  and  C_14
REMARK    5  A    between atoms: C_14  and  C_15
REMARK    6  A    between atoms: C_22  and  O_23
REMARK    7  A    between atoms: N_26  and  C_27
REMARK                            x       y       z     vdW  Elec       q    Type
REMARK                         _______ _______ _______ _____ _____    ______ ____
ROOT
ATOM      1  C   UNL     1       0.262  11.977  20.922  0.00  0.00    +0.000 A 
ATOM      2  N   UNL     1       0.846  11.260  20.002  0.00  0.00    +0.000 NA
ATOM      3  C   UNL     1       0.843   9.887  20.148  0.00  0.00    +0.000 A 
ATOM      4  C   UNL     1       0.479   9.239  21.271  0.00  0.00    +0.000 A 
ATOM      5  C   UNL     1      -0.026  10.086  22.378  0.00  0.00    +0.000 A 
ATOM      6  O   UNL     1      -0.170   9.616  23.503  0.00  0.00    +0.000 OA
ATOM      7  N   UNL     1      -0.311  11.399  22.044  0.00  0.00    +0.000 N 
ATOM      8  C   UNL     1      -1.132  12.127  23.000  0.00  0.00    +0.000 C 
ENDROOT
BRANCH   1  15
ATOM      9  C   UNL     1       0.092  15.415  19.243  0.00  0.00    +0.000 C 
ATOM     10  N   UNL     1       0.431  13.989  19.380  0.00  0.00    +0.000 NA
ATOM     11  C   UNL     1       1.808  13.740  18.906  0.00  0.00    +0.000 C 
ATOM     12  C   UNL     1       2.900  14.311  19.824  0.00  0.00    +0.000 C 
ATOM     13  O   UNL     1       2.750  13.880  21.179  0.00  0.00    +0.000 OA
ATOM     14  C   UNL     1       1.432  14.141  21.688  0.00  0.00    +0.000 C 
ATOM     15  C   UNL     1       0.311  13.541  20.803  0.00  0.00    +0.000 C 
ENDBRANCH   1  15
BRANCH   3  16
ATOM     16  C   UNL     1       1.333   9.017  19.018  0.00  0.00    +0.000 C 
ATOM     17  O   UNL     1       1.058   9.276  17.846  0.00  0.00    +0.000 OA
ATOM     18  N   UNL     1       2.064   7.922  19.386  0.00  0.00    +0.000 N 
ATOM     19  H   UNL     1       2.305   7.819  20.367  0.00  0.00    +0.000 HD
BRANCH  18  20
ATOM     20  C   UNL     1       2.578   7.000  18.401  0.00  0.00    +0.000 C 
BRANCH  20  21
ATOM     21  C   UNL     1       2.312   5.566  18.781  0.00  0.00    +0.000 A 
ATOM     22  C   UNL     1       2.136   5.214  20.128  0.00  0.00    +0.000 A 
ATOM     23  C   UNL     1       1.880   3.889  20.482  0.00  0.00    +0.000 A 
ATOM     24  C   UNL     1       1.808   2.915  19.493  0.00  0.00    +0.000 A 
ATOM     25  F   UNL     1       1.562   1.644  19.837  0.00  0.00    +0.000 F 
ATOM     26  C   UNL     1       1.990   3.239  18.155  0.00  0.00    +0.000 A 
ATOM     27  C   UNL     1       2.244   4.564  17.797  0.00  0.00    +0.000 A 
ENDBRANCH  20  21
ENDBRANCH  18  20
ENDBRANCH   3  16
BRANCH   4  28
ATOM     28  O   UNL     1       0.527   7.867  21.472  0.00  0.00    +0.000 OA
ATOM     29  H   UNL     1      -0.328   7.477  21.184  0.00  0.00    +0.000 HD
ENDBRANCH   4  28
TORSDOF 5
ENDMDL
MODEL 8
REMARK VINA RESULT:      -7.0      4.094      8.531
REMARK  Name = 
REMARK  7 active torsions:
REMARK  status: ('A' for Active; 'I' for Inactive)
REMARK    1  A    between atoms: C_1  and  N_2
REMARK    2  A    between atoms: C_7  and  C_8
REMARK    3  A    between atoms: C_10  and  C_11
REMARK    4  A    between atoms: N_13  and  C_14
REMARK    5  A    between atoms: C_14  and  C_15
REMARK    6  A    between atoms: C_22  and  O_23
REMARK    7  A    between atoms: N_26  and  C_27
REMARK                            x       y       z     vdW  Elec       q    Type
REMARK                         _______ _______ _______ _____ _____    ______ ____
ROOT
ATOM      1  C   UNL     1       0.497  12.471  21.176  0.00  0.00    +0.000 A 
ATOM      2  N   UNL     1       1.039  11.658  20.312  0.00  0.00    +0.000 NA
ATOM      3  C   UNL     1       0.639  10.336  20.321  0.00  0.00    +0.000 A 
ATOM      4  C   UNL     1      -0.104   9.771  21.291  0.00  0.00    +0.000 A 
ATOM      5  C   UNL     1      -0.576  10.678  22.364  0.00  0.00    +0.000 A 
ATOM      6  O   UNL     1      -1.064  10.220  23.394  0.00  0.00    +0.000 OA
ATOM      7  N   UNL     1      -0.425  12.031  22.114  0.00  0.00    +0.000 N 
ATOM      8  C   UNL     1      -1.195  12.920  22.971  0.00  0.00    +0.000 C 
ENDROOT
BRANCH   1  15
ATOM      9  C   UNL     1       0.366  16.266  20.676  0.00  0.00    +0.000 C 
ATOM     10  N   UNL     1       0.160  14.847  20.342  0.00  0.00    +0.000 NA
ATOM     11  C   UNL     1       0.513  14.595  18.929  0.00  0.00    +0.000 C 
ATOM     12  C   UNL     1       2.020  14.670  18.635  0.00  0.00    +0.000 C 
ATOM     13  O   UNL     1       2.784  13.828  19.501  0.00  0.00    +0.000 OA
ATOM     14  C   UNL     1       2.496  14.071  20.887  0.00  0.00    +0.000 C 
ATOM     15  C   UNL     1       0.987  13.961  21.221  0.00  0.00    +0.000 C 
ENDBRANCH   1  15
BRANCH   3  16
ATOM     16  C   UNL     1       1.095   9.413  19.220  0.00  0.00    +0.000 C 
ATOM     17  O   UNL     1       0.728   9.577  18.055  0.00  0.00    +0.000 OA
ATOM     18  N   UNL     1       1.903   8.381  19.608  0.00  0.00    +0.000 N 
ATOM     19  H   UNL     1       2.214   8.358  20.574  0.00  0.00    +0.000 HD
BRANCH  18  20
ATOM     20  C   UNL     1       2.394   7.416  18.652  0.00  0.00    +0.000 C 
BRANCH  20  21
ATOM     21  C   UNL     1       2.536   6.044  19.261  0.00  0.00    +0.000 A 
ATOM     22  C   UNL     1       1.886   5.736  20.466  0.00  0.00    +0.000 A 
ATOM     23  C   UNL     1       2.007   4.465  21.026  0.00  0.00    +0.000 A 
ATOM     24  C   UNL     1       2.784   3.504  20.390  0.00  0.00    +0.000 A 
ATOM     25  F   UNL     1       2.898   2.284  20.931  0.00  0.00    +0.000 F 
ATOM     26  C   UNL     1       3.446   3.791  19.203  0.00  0.00    +0.000 A 
ATOM     27  C   UNL     1       3.325   5.062  18.638  0.00  0.00    +0.000 A 
ENDBRANCH  20  21
ENDBRANCH  18  20
ENDBRANCH   3  16
BRANCH   4  28
ATOM     28  O   UNL     1      -0.469   8.434  21.363  0.00  0.00    +0.000 OA
ATOM     29  H   UNL     1      -1.243   8.350  21.964  0.00  0.00    +0.000 HD
ENDBRANCH   4  28
TORSDOF 5
ENDMDL
MODEL 9
REMARK VINA RESULT:      -7.0      1.033      1.103
REMARK  Name = 
REMARK  7 active torsions:
REMARK  status: ('A' for Active; 'I' for Inactive)
REMARK    1  A    between atoms: C_1  and  N_2
REMARK    2  A    between atoms: C_7  and  C_8
REMARK    3  A    between atoms: C_10  and  C_11
REMARK    4  A    between atoms: N_13  and  C_14
REMARK    5  A    between atoms: C_14  and  C_15
REMARK    6  A    between atoms: C_22  and  O_23
REMARK    7  A    between atoms: N_26  and  C_27
REMARK                            x       y       z     vdW  Elec       q    Type
REMARK                         _______ _______ _______ _____ _____    ______ ____
ROOT
ATOM      1  C   UNL     1       3.924   4.231  18.230  0.00  0.00    +0.000 A 
ATOM      2  N   UNL     1       3.476   5.343  18.744  0.00  0.00    +0.000 NA
ATOM      3  C   UNL     1       2.326   5.293  19.506  0.00  0.00    +0.000 A 
ATOM      4  C   UNL     1       1.507   4.226  19.582  0.00  0.00    +0.000 A 
ATOM      5  C   UNL     1       1.945   3.014  18.850  0.00  0.00    +0.000 A 
ATOM      6  O   UNL     1       1.168   2.079  18.678  0.00  0.00    +0.000 OA
ATOM      7  N   UNL     1       3.253   3.029  18.396  0.00  0.00    +0.000 N 
ATOM      8  C   UNL     1       3.799   1.737  18.008  0.00  0.00    +0.000 C 
ENDROOT
BRANCH   1  15
ATOM      9  C   UNL     1       7.640   4.377  17.318  0.00  0.00    +0.000 C 
ATOM     10  N   UNL     1       6.415   4.699  18.068  0.00  0.00    +0.000 NA
ATOM     11  C   UNL     1       6.345   6.150  18.340  0.00  0.00    +0.000 C 
ATOM     12  C   UNL     1       6.069   7.010  17.096  0.00  0.00    +0.000 C 
ATOM     13  O   UNL     1       4.908   6.576  16.384  0.00  0.00    +0.000 OA
ATOM     14  C   UNL     1       4.957   5.176  16.068  0.00  0.00    +0.000 C 
ATOM     15  C   UNL     1       5.194   4.281  17.310  0.00  0.00    +0.000 C 
ENDBRANCH   1  15
BRANCH   3  16
ATOM     16  C   UNL     1       1.886   6.514  20.272  0.00  0.00    +0.000 C 
ATOM     17  O   UNL     1       1.332   6.416  21.369  0.00  0.00    +0.000 OA
ATOM     18  N   UNL     1       2.114   7.714  19.659  0.00  0.00    +0.000 N 
ATOM     19  H   UNL     1       2.637   7.710  18.789  0.00  0.00    +0.000 HD
BRANCH  18  20
ATOM     20  C   UNL     1       1.725   8.958  20.280  0.00  0.00    +0.000 C 
BRANCH  20  21
ATOM     21  C   UNL     1       0.569   9.607  19.562  0.00  0.00    +0.000 A 
ATOM     22  C   UNL     1       0.402   9.421  18.181  0.00  0.00    +0.000 A 
ATOM     23  C   UNL     1      -0.672  10.013  17.516  0.00  0.00    +0.000 A 
ATOM     24  C   UNL     1      -1.573  10.797  18.227  0.00  0.00    +0.000 A 
ATOM     25  F   UNL     1      -2.603  11.363  17.584  0.00  0.00    +0.000 F 
ATOM     26  C   UNL     1      -1.421  11.004  19.591  0.00  0.00    +0.000 A 
ATOM     27  C   UNL     1      -0.348  10.412  20.260  0.00  0.00    +0.000 A 
ENDBRANCH  20  21
ENDBRANCH  18  20
ENDBRANCH   3  16
BRANCH   4  28
ATOM     28  O   UNL     1       0.312   4.165  20.284  0.00  0.00    +0.000 OA
ATOM     29  H   UNL     1      -0.414   3.960  19.654  0.00  0.00    +0.000 HD
ENDBRANCH   4  28
TORSDOF 5
ENDMDL
