MODEL 1
REMARK VINA RESULT:      -7.6      0.000      0.000
REMARK  Name = 
REMARK  8 active torsions:
REMARK  status: ('A' for Active; 'I' for Inactive)
REMARK    1  A    between atoms: C_1  and  C_2
REMARK    2  A    between atoms: C_3  and  C_4
REMARK    3  A    between atoms: C_4  and  N_5
REMARK    4  A    between atoms: N_5  and  S_6
REMARK    5  A    between atoms: S_6  and  N_7
REMARK    6  A    between atoms: C_11  and  C_12
REMARK    7  A    between atoms: C_16  and  C_17
REMARK    8  A    between atoms: C_16  and  O_18
REMARK                            x       y       z     vdW  Elec       q    Type
REMARK                         _______ _______ _______ _____ _____    ______ ____
ROOT
ATOM      1  C   UNL     1       6.194   4.111  14.768  0.00  0.00    +0.000 C 
ATOM      2  C   UNL     1       5.322   4.174  15.976  0.00  0.00    +0.000 C 
ATOM      3  C   UNL     1       4.766   5.230  16.632  0.00  0.00    +0.000 C 
ATOM      4  C   UNL     1       3.946   4.649  17.729  0.00  0.00    +0.000 C 
ATOM      5  C   UNL     1       3.147   5.176  18.690  0.00  0.00    +0.000 C 
ATOM      6  C   UNL     1       2.908   6.674  18.752  0.00  0.00    +0.000 C 
ATOM      7  C   UNL     1       2.439   4.294  19.740  0.00  0.00    +0.000 C 
ATOM      8  C   UNL     1       2.166   4.959  21.096  0.00  0.00    +0.000 C 
ATOM      9  C   UNL     1       1.026   4.725  20.161  0.00  0.00    +0.000 C 
ATOM     10  C   UNL     1       2.734   2.756  19.739  0.00  0.00    +0.000 C 
ATOM     11  C   UNL     1       3.590   2.315  20.943  0.00  0.00    +0.000 C 
ATOM     12  C   UNL     1       3.468   2.223  18.507  0.00  0.00    +0.000 C 
ATOM     13  O   UNL     1       3.595   1.022  18.260  0.00  0.00    +0.000 OA
ATOM     14  C   UNL     1       4.104   3.211  17.632  0.00  0.00    +0.000 C 
ATOM     15  C   UNL     1       4.915   2.932  16.607  0.00  0.00    +0.000 C 
ENDROOT
BRANCH  10  16
ATOM     16  O   UNL     1       1.488   2.042  19.789  0.00  0.00    +0.000 OA
ATOM     17  H   UNL     1       1.536   1.406  20.520  0.00  0.00    +0.000 HD
ENDBRANCH  10  16
BRANCH   3  18
ATOM     18  C   UNL     1       4.939   6.660  16.229  0.00  0.00    +0.000 C 
BRANCH  18  19
ATOM     19  N   UNL     1       5.694   7.389  17.238  0.00  0.00    +0.000 NA
ATOM     20  H   UNL     1       5.213   7.696  18.079  0.00  0.00    +0.000 HD
BRANCH  19  21
ATOM     21  S   UNL     1       7.283   6.977  17.463  0.00  0.00    +0.000 S 
ATOM     22  O   UNL     1       7.411   6.230  18.682  0.00  0.00    +0.000 OA
ATOM     23  O   UNL     1       7.802   6.551  16.188  0.00  0.00    +0.000 OA
BRANCH  21  24
ATOM     24  N   UNL     1       7.879   8.492  17.730  0.00  0.00    +0.000 NA
ATOM     25  H   UNL     1       8.193   9.008  16.916  0.00  0.00    +0.000 HD
ATOM     26  H   UNL     1       8.323   8.641  18.630  0.00  0.00    +0.000 HD
ENDBRANCH  21  24
ENDBRANCH  19  21
ENDBRANCH  18  19
ENDBRANCH   3  18
TORSDOF 5
ENDMDL
MODEL 2
REMARK VINA RESULT:      -7.6      4.098      5.644
REMARK  Name = 
REMARK  8 active torsions:
REMARK  status: ('A' for Active; 'I' for Inactive)
REMARK    1  A    between atoms: C_1  and  C_2
REMARK    2  A    between atoms: C_3  and  C_4
REMARK    3  A    between atoms: C_4  and  N_5
REMARK    4  A    between atoms: N_5  and  S_6
REMARK    5  A    between atoms: S_6  and  N_7
REMARK    6  A    between atoms: C_11  and  C_12
REMARK    7  A    between atoms: C_16  and  C_17
REMARK    8  A    between atoms: C_16  and  O_18
REMARK                            x       y       z     vdW  Elec       q    Type
REMARK                         _______ _______ _______ _____ _____    ______ ____
ROOT
ATOM      1  C   UNL     1       1.712   9.641  18.369  0.00  0.00    +0.000 C 
ATOM      2  C   UNL     1       2.274   8.276  18.578  0.00  0.00    +0.000 C 
ATOM      3  C   UNL     1       2.053   7.348  19.551  0.00  0.00    +0.000 C 
ATOM      4  C   UNL     1       2.860   6.157  19.176  0.00  0.00    +0.000 C 
ATOM      5  C   UNL     1       3.035   4.927  19.721  0.00  0.00    +0.000 C 
ATOM      6  C   UNL     1       2.264   4.522  20.965  0.00  0.00    +0.000 C 
ATOM      7  C   UNL     1       3.996   3.889  19.106  0.00  0.00    +0.000 C 
ATOM      8  C   UNL     1       4.623   2.891  20.091  0.00  0.00    +0.000 C 
ATOM      9  C   UNL     1       3.551   2.419  19.163  0.00  0.00    +0.000 C 
ATOM     10  C   UNL     1       4.858   4.315  17.869  0.00  0.00    +0.000 C 
ATOM     11  C   UNL     1       6.350   4.484  18.215  0.00  0.00    +0.000 C 
ATOM     12  C   UNL     1       4.449   5.627  17.198  0.00  0.00    +0.000 C 
ATOM     13  O   UNL     1       4.888   5.997  16.107  0.00  0.00    +0.000 OA
ATOM     14  C   UNL     1       3.544   6.503  17.945  0.00  0.00    +0.000 C 
ATOM     15  C   UNL     1       3.204   7.748  17.597  0.00  0.00    +0.000 C 
ENDROOT
BRANCH  10  16
ATOM     16  O   UNL     1       4.744   3.305  16.851  0.00  0.00    +0.000 OA
ATOM     17  H   UNL     1       4.458   2.482  17.276  0.00  0.00    +0.000 HD
ENDBRANCH  10  16
BRANCH   3  18
ATOM     18  C   UNL     1       1.117   7.540  20.701  0.00  0.00    +0.000 C 
BRANCH  18  19
ATOM     19  N   UNL     1       1.704   8.422  21.699  0.00  0.00    +0.000 NA
ATOM     20  H   UNL     1       2.701   8.616  21.653  0.00  0.00    +0.000 HD
BRANCH  19  21
ATOM     21  S   UNL     1       0.782   9.681  22.256  0.00  0.00    +0.000 S 
ATOM     22  O   UNL     1       0.609   9.551  23.676  0.00  0.00    +0.000 OA
ATOM     23  O   UNL     1       1.242  10.877  21.598  0.00  0.00    +0.000 OA
BRANCH  21  24
ATOM     24  N   UNL     1      -0.640   9.263  21.531  0.00  0.00    +0.000 NA
ATOM     25  H   UNL     1      -1.150   8.489  21.939  0.00  0.00    +0.000 HD
ATOM     26  H   UNL     1      -0.696   9.440  20.533  0.00  0.00    +0.000 HD
ENDBRANCH  21  24
ENDBRANCH  19  21
ENDBRANCH  18  19
ENDBRANCH   3  18
TORSDOF 5
ENDMDL
MODEL 3
REMARK VINA RESULT:      -7.4      1.309      3.222
REMARK  Name = 
REMARK  8 active torsions:
REMARK  status: ('A' for Active; 'I' for Inactive)
REMARK    1  A    between atoms: C_1  and  C_2
REMARK    2  A    between atoms: C_3  and  C_4
REMARK    3  A    between atoms: C_4  and  N_5
REMARK    4  A    between atoms: N_5  and  S_6
REMARK    5  A    between atoms: S_6  and  N_7
REMARK    6  A    between atoms: C_11  and  C_12
REMARK    7  A    between atoms: C_16  and  C_17
REMARK    8  A    between atoms: C_16  and  O_18
REMARK                            x       y       z     vdW  Elec       q    Type
REMARK                         _______ _______ _______ _____ _____    ______ ____
ROOT
ATOM      1  C   UNL     1       2.549   8.830  17.811  0.00  0.00    +0.000 C 
ATOM      2  C   UNL     1       2.740   7.369  18.038  0.00  0.00    +0.000 C 
ATOM      3  C   UNL     1       3.651   6.490  17.534  0.00  0.00    +0.000 C 
ATOM      4  C   UNL     1       3.369   5.184  18.188  0.00  0.00    +0.000 C 
ATOM      5  C   UNL     1       3.938   3.954  18.122  0.00  0.00    +0.000 C 
ATOM      6  C   UNL     1       5.171   3.724  17.266  0.00  0.00    +0.000 C 
ATOM      7  C   UNL     1       3.381   2.752  18.912  0.00  0.00    +0.000 C 
ATOM      8  C   UNL     1       3.616   1.371  18.282  0.00  0.00    +0.000 C 
ATOM      9  C   UNL     1       4.412   1.766  19.482  0.00  0.00    +0.000 C 
ATOM     10  C   UNL     1       2.066   2.950  19.738  0.00  0.00    +0.000 C 
ATOM     11  C   UNL     1       0.856   2.229  19.112  0.00  0.00    +0.000 C 
ATOM     12  C   UNL     1       1.615   4.400  19.928  0.00  0.00    +0.000 C 
ATOM     13  O   UNL     1       0.727   4.738  20.713  0.00  0.00    +0.000 OA
ATOM     14  C   UNL     1       2.239   5.409  19.068  0.00  0.00    +0.000 C 
ATOM     15  C   UNL     1       1.868   6.689  18.977  0.00  0.00    +0.000 C 
ENDROOT
BRANCH  10  16
ATOM     16  O   UNL     1       2.264   2.428  21.063  0.00  0.00    +0.000 OA
ATOM     17  H   UNL     1       2.529   1.499  20.983  0.00  0.00    +0.000 HD
ENDBRANCH  10  16
BRANCH   3  18
ATOM     18  C   UNL     1       4.732   6.856  16.568  0.00  0.00    +0.000 C 
BRANCH  18  19
ATOM     19  N   UNL     1       5.784   7.609  17.235  0.00  0.00    +0.000 NA
ATOM     20  H   UNL     1       5.531   8.224  18.005  0.00  0.00    +0.000 HD
BRANCH  19  21
ATOM     21  S   UNL     1       7.270   6.893  17.385  0.00  0.00    +0.000 S 
ATOM     22  O   UNL     1       7.347   6.221  18.651  0.00  0.00    +0.000 OA
ATOM     23  O   UNL     1       7.584   6.282  16.118  0.00  0.00    +0.000 OA
BRANCH  21  24
ATOM     24  N   UNL     1       8.179   8.266  17.482  0.00  0.00    +0.000 NA
ATOM     25  H   UNL     1       8.772   8.364  18.298  0.00  0.00    +0.000 HD
ATOM     26  H   UNL     1       7.786   9.089  17.038  0.00  0.00    +0.000 HD
ENDBRANCH  21  24
ENDBRANCH  19  21
ENDBRANCH  18  19
ENDBRANCH   3  18
TORSDOF 5
ENDMDL
MODEL 4
REMARK VINA RESULT:      -7.4      3.129      3.559
REMARK  Name = 
REMARK  8 active torsions:
REMARK  status: ('A' for Active; 'I' for Inactive)
REMARK    1  A    between atoms: C_1  and  C_2
REMARK    2  A    between atoms: C_3  and  C_4
REMARK    3  A    between atoms: C_4  and  N_5
REMARK    4  A    between atoms: N_5  and  S_6
REMARK    5  A    between atoms: S_6  and  N_7
REMARK    6  A    between atoms: C_11  and  C_12
REMARK    7  A    between atoms: C_16  and  C_17
REMARK    8  A    between atoms: C_16  and  O_18
REMARK                            x       y       z     vdW  Elec       q    Type
REMARK                         _______ _______ _______ _____ _____    ______ ____
ROOT
ATOM      1  C   UNL     1       5.023   6.939  15.635  0.00  0.00    +0.000 C 
ATOM      2  C   UNL     1       4.400   6.159  16.742  0.00  0.00    +0.000 C 
ATOM      3  C   UNL     1       3.669   6.552  17.823  0.00  0.00    +0.000 C 
ATOM      4  C   UNL     1       3.273   5.304  18.529  0.00  0.00    +0.000 C 
ATOM      5  C   UNL     1       2.532   5.041  19.634  0.00  0.00    +0.000 C 
ATOM      6  C   UNL     1       1.858   6.171  20.393  0.00  0.00    +0.000 C 
ATOM      7  C   UNL     1       2.325   3.604  20.157  0.00  0.00    +0.000 C 
ATOM      8  C   UNL     1       2.102   3.470  21.671  0.00  0.00    +0.000 C 
ATOM      9  C   UNL     1       0.944   3.279  20.747  0.00  0.00    +0.000 C 
ATOM     10  C   UNL     1       3.075   2.435  19.435  0.00  0.00    +0.000 C 
ATOM     11  C   UNL     1       4.222   1.851  20.283  0.00  0.00    +0.000 C 
ATOM     12  C   UNL     1       3.710   2.788  18.088  0.00  0.00    +0.000 C 
ATOM     13  O   UNL     1       4.156   1.945  17.307  0.00  0.00    +0.000 OA
ATOM     14  C   UNL     1       3.847   4.211  17.769  0.00  0.00    +0.000 C 
ATOM     15  C   UNL     1       4.512   4.712  16.724  0.00  0.00    +0.000 C 
ENDROOT
BRANCH  10  16
ATOM     16  O   UNL     1       2.138   1.380  19.159  0.00  0.00    +0.000 OA
ATOM     17  H   UNL     1       2.202   0.728  19.874  0.00  0.00    +0.000 HD
ENDBRANCH  10  16
BRANCH   3  18
ATOM     18  C   UNL     1       3.321   7.973  18.133  0.00  0.00    +0.000 C 
BRANCH  18  19
ATOM     19  N   UNL     1       2.075   8.350  17.481  0.00  0.00    +0.000 NA
ATOM     20  H   UNL     1       1.528   7.628  17.019  0.00  0.00    +0.000 HD
BRANCH  19  21
ATOM     21  S   UNL     1       1.178   9.561  18.170  0.00  0.00    +0.000 S 
ATOM     22  O   UNL     1      -0.118   9.600  17.553  0.00  0.00    +0.000 OA
ATOM     23  O   UNL     1       1.402   9.507  19.592  0.00  0.00    +0.000 OA
BRANCH  21  24
ATOM     24  N   UNL     1       2.049  10.842  17.605  0.00  0.00    +0.000 NA
ATOM     25  H   UNL     1       1.609  11.754  17.662  0.00  0.00    +0.000 HD
ATOM     26  H   UNL     1       2.702  10.638  16.855  0.00  0.00    +0.000 HD
ENDBRANCH  21  24
ENDBRANCH  19  21
ENDBRANCH  18  19
ENDBRANCH   3  18
TORSDOF 5
ENDMDL
MODEL 5
REMARK VINA RESULT:      -7.2      3.779      5.382
REMARK  Name = 
REMARK  8 active torsions:
REMARK  status: ('A' for Active; 'I' for Inactive)
REMARK    1  A    between atoms: C_1  and  C_2
REMARK    2  A    between atoms: C_3  and  C_4
REMARK    3  A    between atoms: C_4  and  N_5
REMARK    4  A    between atoms: N_5  and  S_6
REMARK    5  A    between atoms: S_6  and  N_7
REMARK    6  A    between atoms: C_11  and  C_12
REMARK    7  A    between atoms: C_16  and  C_17
REMARK    8  A    between atoms: C_16  and  O_18
REMARK                            x       y       z     vdW  Elec       q    Type
REMARK                         _______ _______ _______ _____ _____    ______ ____
ROOT
ATOM      1  C   UNL     1       0.767   7.933  21.284  0.00  0.00    +0.000 C 
ATOM      2  C   UNL     1       1.636   7.108  20.396  0.00  0.00    +0.000 C 
ATOM      3  C   UNL     1       2.330   7.425  19.266  0.00  0.00    +0.000 C 
ATOM      4  C   UNL     1       3.060   6.191  18.872  0.00  0.00    +0.000 C 
ATOM      5  C   UNL     1       3.921   5.885  17.870  0.00  0.00    +0.000 C 
ATOM      6  C   UNL     1       4.363   6.953  16.885  0.00  0.00    +0.000 C 
ATOM      7  C   UNL     1       4.499   4.465  17.692  0.00  0.00    +0.000 C 
ATOM      8  C   UNL     1       4.858   4.064  16.254  0.00  0.00    +0.000 C 
ATOM      9  C   UNL     1       5.957   4.370  17.217  0.00  0.00    +0.000 C 
ATOM     10  C   UNL     1       3.996   3.333  18.650  0.00  0.00    +0.000 C 
ATOM     11  C   UNL     1       3.085   2.314  17.938  0.00  0.00    +0.000 C 
ATOM     12  C   UNL     1       3.199   3.802  19.869  0.00  0.00    +0.000 C 
ATOM     13  O   UNL     1       2.909   3.066  20.814  0.00  0.00    +0.000 OA
ATOM     14  C   UNL     1       2.706   5.182  19.851  0.00  0.00    +0.000 C 
ATOM     15  C   UNL     1       1.868   5.718  20.742  0.00  0.00    +0.000 C 
ENDROOT
BRANCH  10  16
ATOM     16  O   UNL     1       5.133   2.628  19.176  0.00  0.00    +0.000 OA
ATOM     17  H   UNL     1       5.280   2.932  20.085  0.00  0.00    +0.000 HD
ENDBRANCH  10  16
BRANCH   3  18
ATOM     18  C   UNL     1       2.355   8.785  18.646  0.00  0.00    +0.000 C 
BRANCH  18  19
ATOM     19  N   UNL     1       1.003   9.296  18.475  0.00  0.00    +0.000 NA
ATOM     20  H   UNL     1       0.219   8.678  18.670  0.00  0.00    +0.000 HD
BRANCH  19  21
ATOM     21  S   UNL     1       0.729  10.891  18.830  0.00  0.00    +0.000 S 
ATOM     22  O   UNL     1      -0.540  11.287  18.287  0.00  0.00    +0.000 OA
ATOM     23  O   UNL     1       1.131  11.103  20.198  0.00  0.00    +0.000 OA
BRANCH  21  24
ATOM     24  N   UNL     1       1.913  11.544  17.886  0.00  0.00    +0.000 NA
ATOM     25  H   UNL     1       1.764  12.491  17.557  0.00  0.00    +0.000 HD
ATOM     26  H   UNL     1       2.443  10.887  17.322  0.00  0.00    +0.000 HD
ENDBRANCH  21  24
ENDBRANCH  19  21
ENDBRANCH  18  19
ENDBRANCH   3  18
TORSDOF 5
ENDMDL
MODEL 6
REMARK VINA RESULT:      -6.9      4.016      6.027
REMARK  Name = 
REMARK  8 active torsions:
REMARK  status: ('A' for Active; 'I' for Inactive)
REMARK    1  A    between atoms: C_1  and  C_2
REMARK    2  A    between atoms: C_3  and  C_4
REMARK    3  A    between atoms: C_4  and  N_5
REMARK    4  A    between atoms: N_5  and  S_6
REMARK    5  A    between atoms: S_6  and  N_7
REMARK    6  A    between atoms: C_11  and  C_12
REMARK    7  A    between atoms: C_16  and  C_17
REMARK    8  A    between atoms: C_16  and  O_18
REMARK                            x       y       z     vdW  Elec       q    Type
REMARK                         _______ _______ _______ _____ _____    ______ ____
ROOT
ATOM      1  C   UNL     1       4.763   5.783  16.559  0.00  0.00    +0.000 C 
ATOM      2  C   UNL     1       3.823   6.456  17.501  0.00  0.00    +0.000 C 
ATOM      3  C   UNL     1       3.268   6.038  18.673  0.00  0.00    +0.000 C 
ATOM      4  C   UNL     1       2.465   7.183  19.179  0.00  0.00    +0.000 C 
ATOM      5  C   UNL     1       1.714   7.389  20.290  0.00  0.00    +0.000 C 
ATOM      6  C   UNL     1       1.619   6.318  21.362  0.00  0.00    +0.000 C 
ATOM      7  C   UNL     1       0.945   8.706  20.525  0.00  0.00    +0.000 C 
ATOM      8  C   UNL     1      -0.333   8.594  21.368  0.00  0.00    +0.000 C 
ATOM      9  C   UNL     1       0.882   9.218  21.973  0.00  0.00    +0.000 C 
ATOM     10  C   UNL     1       0.968   9.792  19.396  0.00  0.00    +0.000 C 
ATOM     11  C   UNL     1      -0.386   9.925  18.673  0.00  0.00    +0.000 C 
ATOM     12  C   UNL     1       1.998   9.571  18.286  0.00  0.00    +0.000 C 
ATOM     13  O   UNL     1       2.280  10.424  17.443  0.00  0.00    +0.000 OA
ATOM     14  C   UNL     1       2.610   8.242  18.200  0.00  0.00    +0.000 C 
ATOM     15  C   UNL     1       3.402   7.815  17.214  0.00  0.00    +0.000 C 
ENDROOT
BRANCH  10  16
ATOM     16  O   UNL     1       1.293  11.065  19.979  0.00  0.00    +0.000 OA
ATOM     17  H   UNL     1       0.500  11.622  19.945  0.00  0.00    +0.000 HD
ENDBRANCH  10  16
BRANCH   3  18
ATOM     18  C   UNL     1       3.518   4.701  19.295  0.00  0.00    +0.000 C 
BRANCH  18  19
ATOM     19  N   UNL     1       2.338   3.855  19.184  0.00  0.00    +0.000 NA
ATOM     20  H   UNL     1       1.424   4.270  19.345  0.00  0.00    +0.000 HD
BRANCH  19  21
ATOM     21  S   UNL     1       2.358   2.646  18.052  0.00  0.00    +0.000 S 
ATOM     22  O   UNL     1       2.264   3.222  16.741  0.00  0.00    +0.000 OA
ATOM     23  O   UNL     1       3.364   1.695  18.454  0.00  0.00    +0.000 OA
BRANCH  21  24
ATOM     24  N   UNL     1       0.899   1.966  18.415  0.00  0.00    +0.000 NA
ATOM     25  H   UNL     1       0.825   1.495  19.309  0.00  0.00    +0.000 HD
ATOM     26  H   UNL     1       0.351   1.646  17.623  0.00  0.00    +0.000 HD
ENDBRANCH  21  24
ENDBRANCH  19  21
ENDBRANCH  18  19
ENDBRANCH   3  18
TORSDOF 5
ENDMDL
MODEL 7
REMARK VINA RESULT:      -6.9      3.989      6.031
REMARK  Name = 
REMARK  8 active torsions:
REMARK  status: ('A' for Active; 'I' for Inactive)
REMARK    1  A    between atoms: C_1  and  C_2
REMARK    2  A    between atoms: C_3  and  C_4
REMARK    3  A    between atoms: C_4  and  N_5
REMARK    4  A    between atoms: N_5  and  S_6
REMARK    5  A    between atoms: S_6  and  N_7
REMARK    6  A    between atoms: C_11  and  C_12
REMARK    7  A    between atoms: C_16  and  C_17
REMARK    8  A    between atoms: C_16  and  O_18
REMARK                            x       y       z     vdW  Elec       q    Type
REMARK                         _______ _______ _______ _____ _____    ______ ____
ROOT
ATOM      1  C   UNL     1       4.935   5.879  16.584  0.00  0.00    +0.000 C 
ATOM      2  C   UNL     1       3.957   6.528  17.504  0.00  0.00    +0.000 C 
ATOM      3  C   UNL     1       3.397   6.102  18.672  0.00  0.00    +0.000 C 
ATOM      4  C   UNL     1       2.546   7.222  19.153  0.00  0.00    +0.000 C 
ATOM      5  C   UNL     1       1.770   7.413  20.249  0.00  0.00    +0.000 C 
ATOM      6  C   UNL     1       1.696   6.350  21.331  0.00  0.00    +0.000 C 
ATOM      7  C   UNL     1       0.951   8.704  20.457  0.00  0.00    +0.000 C 
ATOM      8  C   UNL     1      -0.336   8.554  21.281  0.00  0.00    +0.000 C 
ATOM      9  C   UNL     1       0.845   9.228  21.898  0.00  0.00    +0.000 C 
ATOM     10  C   UNL     1       0.953   9.778  19.317  0.00  0.00    +0.000 C 
ATOM     11  C   UNL     1      -0.393   9.854  18.570  0.00  0.00    +0.000 C 
ATOM     12  C   UNL     1       2.008   9.582  18.225  0.00  0.00    +0.000 C 
ATOM     13  O   UNL     1       2.273  10.437  17.378  0.00  0.00    +0.000 OA
ATOM     14  C   UNL     1       2.668   8.276  18.165  0.00  0.00    +0.000 C 
ATOM     15  C   UNL     1       3.492   7.867  17.195  0.00  0.00    +0.000 C 
ENDROOT
BRANCH  10  16
ATOM     16  O   UNL     1       1.222  11.068  19.891  0.00  0.00    +0.000 OA
ATOM     17  H   UNL     1       1.998  11.439  19.444  0.00  0.00    +0.000 HD
ENDBRANCH  10  16
BRANCH   3  18
ATOM     18  C   UNL     1       3.685   4.782  19.312  0.00  0.00    +0.000 C 
BRANCH  18  19
ATOM     19  N   UNL     1       3.200   3.691  18.479  0.00  0.00    +0.000 NA
ATOM     20  H   UNL     1       3.767   2.851  18.397  0.00  0.00    +0.000 HD
BRANCH  19  21
ATOM     21  S   UNL     1       1.565   3.427  18.427  0.00  0.00    +0.000 S 
ATOM     22  O   UNL     1       1.028   3.513  19.755  0.00  0.00    +0.000 OA
ATOM     23  O   UNL     1       1.049   4.148  17.291  0.00  0.00    +0.000 OA
BRANCH  21  24
ATOM     24  N   UNL     1       1.603   1.836  17.995  0.00  0.00    +0.000 NA
ATOM     25  H   UNL     1       0.790   1.279  18.232  0.00  0.00    +0.000 HD
ATOM     26  H   UNL     1       2.522   1.406  17.964  0.00  0.00    +0.000 HD
ENDBRANCH  21  24
ENDBRANCH  19  21
ENDBRANCH  18  19
ENDBRANCH   3  18
TORSDOF 5
ENDMDL
MODEL 8
REMARK VINA RESULT:      -6.7      8.855     10.809
REMARK  Name = 
REMARK  8 active torsions:
REMARK  status: ('A' for Active; 'I' for Inactive)
REMARK    1  A    between atoms: C_1  and  C_2
REMARK    2  A    between atoms: C_3  and  C_4
REMARK    3  A    between atoms: C_4  and  N_5
REMARK    4  A    between atoms: N_5  and  S_6
REMARK    5  A    between atoms: S_6  and  N_7
REMARK    6  A    between atoms: C_11  and  C_12
REMARK    7  A    between atoms: C_16  and  C_17
REMARK    8  A    between atoms: C_16  and  O_18
REMARK                            x       y       z     vdW  Elec       q    Type
REMARK                         _______ _______ _______ _____ _____    ______ ____
ROOT
ATOM      1  C   UNL     1      -2.930   9.825  15.909  0.00  0.00    +0.000 C 
ATOM      2  C   UNL     1      -2.420  10.411  17.182  0.00  0.00    +0.000 C 
ATOM      3  C   UNL     1      -3.021  11.202  18.115  0.00  0.00    +0.000 C 
ATOM      4  C   UNL     1      -2.016  11.406  19.192  0.00  0.00    +0.000 C 
ATOM      5  C   UNL     1      -2.024  12.064  20.377  0.00  0.00    +0.000 C 
ATOM      6  C   UNL     1      -3.288  12.754  20.862  0.00  0.00    +0.000 C 
ATOM      7  C   UNL     1      -0.779  12.132  21.285  0.00  0.00    +0.000 C 
ATOM      8  C   UNL     1      -0.664  13.380  22.172  0.00  0.00    +0.000 C 
ATOM      9  C   UNL     1      -1.028  12.075  22.801  0.00  0.00    +0.000 C 
ATOM     10  C   UNL     1       0.554  11.493  20.767  0.00  0.00    +0.000 C 
ATOM     11  C   UNL     1       1.612  12.550  20.391  0.00  0.00    +0.000 C 
ATOM     12  C   UNL     1       0.424  10.598  19.533  0.00  0.00    +0.000 C 
ATOM     13  O   UNL     1       1.329   9.868  19.126  0.00  0.00    +0.000 OA
ATOM     14  C   UNL     1      -0.827  10.686  18.776  0.00  0.00    +0.000 C 
ATOM     15  C   UNL     1      -1.063  10.107  17.595  0.00  0.00    +0.000 C 
ENDROOT
BRANCH  10  16
ATOM     16  O   UNL     1       1.103  10.656  21.799  0.00  0.00    +0.000 OA
ATOM     17  H   UNL     1       1.468  11.231  22.489  0.00  0.00    +0.000 HD
ENDBRANCH  10  16
BRANCH   3  18
ATOM     18  C   UNL     1      -4.437  11.675  18.033  0.00  0.00    +0.000 C 
BRANCH  18  19
ATOM     19  N   UNL     1      -5.359  10.595  18.353  0.00  0.00    +0.000 NA
ATOM     20  H   UNL     1      -4.979   9.675  18.560  0.00  0.00    +0.000 HD
BRANCH  19  21
ATOM     21  S   UNL     1      -6.735  10.977  19.193  0.00  0.00    +0.000 S 
ATOM     22  O   UNL     1      -6.403  11.201  20.571  0.00  0.00    +0.000 OA
ATOM     23  O   UNL     1      -7.497  11.891  18.379  0.00  0.00    +0.000 OA
BRANCH  21  24
ATOM     24  N   UNL     1      -7.487   9.513  19.082  0.00  0.00    +0.000 NA
ATOM     25  H   UNL     1      -7.068   8.745  19.594  0.00  0.00    +0.000 HD
ATOM     26  H   UNL     1      -7.984   9.335  18.216  0.00  0.00    +0.000 HD
ENDBRANCH  21  24
ENDBRANCH  19  21
ENDBRANCH  18  19
ENDBRANCH   3  18
TORSDOF 5
ENDMDL
MODEL 9
REMARK VINA RESULT:      -6.6      3.122      5.880
REMARK  Name = 
REMARK  8 active torsions:
REMARK  status: ('A' for Active; 'I' for Inactive)
REMARK    1  A    between atoms: C_1  and  C_2
REMARK    2  A    between atoms: C_3  and  C_4
REMARK    3  A    between atoms: C_4  and  N_5
REMARK    4  A    between atoms: N_5  and  S_6
REMARK    5  A    between atoms: S_6  and  N_7
REMARK    6  A    between atoms: C_11  and  C_12
REMARK    7  A    between atoms: C_16  and  C_17
REMARK    8  A    between atoms: C_16  and  O_18
REMARK                            x       y       z     vdW  Elec       q    Type
REMARK                         _______ _______ _______ _____ _____    ______ ____
ROOT
ATOM      1  C   UNL     1       0.865   4.083  19.993  0.00  0.00    +0.000 C 
ATOM      2  C   UNL     1       1.996   4.304  19.047  0.00  0.00    +0.000 C 
ATOM      3  C   UNL     1       2.790   3.427  18.370  0.00  0.00    +0.000 C 
ATOM      4  C   UNL     1       3.698   4.256  17.533  0.00  0.00    +0.000 C 
ATOM      5  C   UNL     1       4.676   3.971  16.637  0.00  0.00    +0.000 C 
ATOM      6  C   UNL     1       4.991   2.529  16.277  0.00  0.00    +0.000 C 
ATOM      7  C   UNL     1       5.493   5.077  15.938  0.00  0.00    +0.000 C 
ATOM      8  C   UNL     1       6.924   4.696  15.531  0.00  0.00    +0.000 C 
ATOM      9  C   UNL     1       5.878   4.827  14.472  0.00  0.00    +0.000 C 
ATOM     10  C   UNL     1       5.237   6.565  16.354  0.00  0.00    +0.000 C 
ATOM     11  C   UNL     1       6.401   7.164  17.166  0.00  0.00    +0.000 C 
ATOM     12  C   UNL     1       3.987   6.810  17.201  0.00  0.00    +0.000 C 
ATOM     13  O   UNL     1       3.537   7.933  17.438  0.00  0.00    +0.000 OA
ATOM     14  C   UNL     1       3.355   5.637  17.810  0.00  0.00    +0.000 C 
ATOM     15  C   UNL     1       2.360   5.666  18.701  0.00  0.00    +0.000 C 
ENDROOT
BRANCH  10  16
ATOM     16  O   UNL     1       5.063   7.358  15.167  0.00  0.00    +0.000 OA
ATOM     17  H   UNL     1       4.660   8.201  15.425  0.00  0.00    +0.000 HD
ENDBRANCH  10  16
BRANCH   3  18
ATOM     18  C   UNL     1       2.666   1.940  18.454  0.00  0.00    +0.000 C 
BRANCH  18  19
ATOM     19  N   UNL     1       3.870   1.356  19.027  0.00  0.00    +0.000 NA
ATOM     20  H   UNL     1       4.548   0.925  18.404  0.00  0.00    +0.000 HD
BRANCH  19  21
ATOM     21  S   UNL     1       4.528   2.093  20.358  0.00  0.00    +0.000 S 
ATOM     22  O   UNL     1       5.338   3.200  19.935  0.00  0.00    +0.000 OA
ATOM     23  O   UNL     1       3.495   2.175  21.360  0.00  0.00    +0.000 OA
BRANCH  21  24
ATOM     24  N   UNL     1       5.536   0.873  20.822  0.00  0.00    +0.000 NA
ATOM     25  H   UNL     1       5.852   0.240  20.095  0.00  0.00    +0.000 HD
ATOM     26  H   UNL     1       5.417   0.537  21.772  0.00  0.00    +0.000 HD
ENDBRANCH  21  24
ENDBRANCH  19  21
ENDBRANCH  18  19
ENDBRANCH   3  18
TORSDOF 5
ENDMDL
