MODEL 1
REMARK VINA RESULT:      -9.5      0.000      0.000
REMARK  Name = 
REMARK  8 active torsions:
REMARK  status: ('A' for Active; 'I' for Inactive)
REMARK    1  A    between atoms: C_1  and  C_2
REMARK    2  A    between atoms: C_2  and  C_3
REMARK    3  A    between atoms: C_4  and  C_5
REMARK    4  A    between atoms: C_5  and  C_6
REMARK    5  A    between atoms: C_9  and  O_10
REMARK    6  A    between atoms: C_17  and  O_18
REMARK    7  A    between atoms: C_25  and  C_26
REMARK    8  A    between atoms: C_25  and  C_27
REMARK                            x       y       z     vdW  Elec       q    Type
REMARK                         _______ _______ _______ _____ _____    ______ ____
ROOT
ATOM      1  C   UNL     1       5.541   4.421  15.753  0.00  0.00    +0.000 A 
ATOM      2  C   UNL     1       6.958   4.537  15.888  0.00  0.00    +0.000 A 
ATOM      3  C   UNL     1       7.490   5.590  16.627  0.00  0.00    +0.000 A 
ATOM      4  C   UNL     1       6.644   6.352  17.410  0.00  0.00    +0.000 A 
ATOM      5  C   UNL     1       5.331   6.485  16.972  0.00  0.00    +0.000 A 
ATOM      6  O   UNL     1       4.643   7.652  17.123  0.00  0.00    +0.000 OA
ATOM      7  C   UNL     1       3.473   7.544  17.827  0.00  0.00    +0.000 A 
ATOM      8  C   UNL     1       2.773   8.752  18.003  0.00  0.00    +0.000 A 
ATOM      9  C   UNL     1       1.810   8.865  18.996  0.00  0.00    +0.000 A 
ATOM     10  C   UNL     1       1.671   7.845  19.935  0.00  0.00    +0.000 A 
ATOM     11  C   UNL     1       2.320   6.574  19.648  0.00  0.00    +0.000 A 
ATOM     12  C   UNL     1       3.102   6.373  18.463  0.00  0.00    +0.000 A 
ATOM     13  C   UNL     1       3.686   5.081  17.739  0.00  0.00    +0.000 A 
ATOM     14  O   UNL     1       3.415   3.940  18.086  0.00  0.00    +0.000 OA
ATOM     15  C   UNL     1       4.695   5.346  16.534  0.00  0.00    +0.000 A 
ATOM     16  C   UNL     1       0.945   8.238  21.171  0.00  0.00    +0.000 C 
ATOM     17  C   UNL     1       0.271   9.410  21.216  0.00  0.00    +0.000 C 
ATOM     18  C   UNL     1       0.137  10.310  20.010  0.00  0.00    +0.000 C 
ATOM     19  C   UNL     1      -1.272  10.127  19.413  0.00  0.00    +0.000 C 
ATOM     20  C   UNL     1       0.292  11.808  20.350  0.00  0.00    +0.000 C 
ATOM     21  O   UNL     1       1.142  10.057  19.007  0.00  0.00    +0.000 OA
ENDROOT
BRANCH   4  22
ATOM     22  O   UNL     1       6.653   5.795  18.747  0.00  0.00    +0.000 OA
ATOM     23  H   UNL     1       7.570   5.457  18.927  0.00  0.00    +0.000 HD
ENDBRANCH   4  22
BRANCH  11  24
ATOM     24  O   UNL     1       2.280   5.579  20.592  0.00  0.00    +0.000 OA
ATOM     25  H   UNL     1       2.910   4.879  20.338  0.00  0.00    +0.000 HD
ENDBRANCH  11  24
BRANCH   1  26
ATOM     26  C   UNL     1       5.276   4.379  14.165  0.00  0.00    +0.000 C 
BRANCH  26  30
ATOM     27  C   UNL     1       6.301   1.788  11.231  0.00  0.00    +0.000 C 
ATOM     28  C   UNL     1       5.358   2.793  11.914  0.00  0.00    +0.000 C 
ATOM     29  C   UNL     1       4.134   3.078  11.100  0.00  0.00    +0.000 C 
ATOM     30  C   UNL     1       5.708   3.348  13.101  0.00  0.00    +0.000 C 
ENDBRANCH  26  30
ENDBRANCH   1  26
TORSDOF 4
ENDMDL
MODEL 2
REMARK VINA RESULT:      -7.9      2.654      8.490
REMARK  Name = 
REMARK  8 active torsions:
REMARK  status: ('A' for Active; 'I' for Inactive)
REMARK    1  A    between atoms: C_1  and  C_2
REMARK    2  A    between atoms: C_2  and  C_3
REMARK    3  A    between atoms: C_4  and  C_5
REMARK    4  A    between atoms: C_5  and  C_6
REMARK    5  A    between atoms: C_9  and  O_10
REMARK    6  A    between atoms: C_17  and  O_18
REMARK    7  A    between atoms: C_25  and  C_26
REMARK    8  A    between atoms: C_25  and  C_27
REMARK                            x       y       z     vdW  Elec       q    Type
REMARK                         _______ _______ _______ _____ _____    ______ ____
ROOT
ATOM      1  C   UNL     1       0.183  12.852  19.508  0.00  0.00    +0.000 A 
ATOM      2  C   UNL     1      -1.105  13.083  18.934  0.00  0.00    +0.000 A 
ATOM      3  C   UNL     1      -1.679  12.104  18.129  0.00  0.00    +0.000 A 
ATOM      4  C   UNL     1      -1.112  10.845  18.098  0.00  0.00    +0.000 A 
ATOM      5  C   UNL     1       0.261  10.768  18.306  0.00  0.00    +0.000 A 
ATOM      6  O   UNL     1       1.036   9.872  17.634  0.00  0.00    +0.000 OA
ATOM      7  C   UNL     1       1.753   9.018  18.429  0.00  0.00    +0.000 A 
ATOM      8  C   UNL     1       2.536   8.077  17.735  0.00  0.00    +0.000 A 
ATOM      9  C   UNL     1       2.990   6.933  18.377  0.00  0.00    +0.000 A 
ATOM     10  C   UNL     1       2.514   6.628  19.651  0.00  0.00    +0.000 A 
ATOM     11  C   UNL     1       1.810   7.677  20.375  0.00  0.00    +0.000 A 
ATOM     12  C   UNL     1       1.579   8.970  19.800  0.00  0.00    +0.000 A 
ATOM     13  C   UNL     1       1.114  10.370  20.400  0.00  0.00    +0.000 A 
ATOM     14  O   UNL     1       0.981  10.574  21.598  0.00  0.00    +0.000 OA
ATOM     15  C   UNL     1       0.784  11.513  19.339  0.00  0.00    +0.000 A 
ATOM     16  C   UNL     1       2.711   5.214  20.061  0.00  0.00    +0.000 C 
ATOM     17  C   UNL     1       3.520   4.405  19.338  0.00  0.00    +0.000 C 
ATOM     18  C   UNL     1       4.327   4.913  18.166  0.00  0.00    +0.000 C 
ATOM     19  C   UNL     1       5.789   5.097  18.616  0.00  0.00    +0.000 C 
ATOM     20  C   UNL     1       4.342   3.935  16.971  0.00  0.00    +0.000 C 
ATOM     21  O   UNL     1       3.812   6.146  17.622  0.00  0.00    +0.000 OA
ENDROOT
BRANCH   4  22
ATOM     22  O   UNL     1      -1.795  10.025  19.077  0.00  0.00    +0.000 OA
ATOM     23  H   UNL     1      -2.259  10.635  19.710  0.00  0.00    +0.000 HD
ENDBRANCH   4  22
BRANCH  11  24
ATOM     24  O   UNL     1       1.250   7.383  21.593  0.00  0.00    +0.000 OA
ATOM     25  H   UNL     1       0.894   6.475  21.565  0.00  0.00    +0.000 HD
ENDBRANCH  11  24
BRANCH   1  26
ATOM     26  C   UNL     1       1.080  14.102  19.035  0.00  0.00    +0.000 C 
BRANCH  26  30
ATOM     27  C   UNL     1       4.964  14.507  17.974  0.00  0.00    +0.000 C 
ATOM     28  C   UNL     1       3.490  14.945  18.000  0.00  0.00    +0.000 C 
ATOM     29  C   UNL     1       3.272  16.268  17.332  0.00  0.00    +0.000 C 
ATOM     30  C   UNL     1       2.568  14.176  18.629  0.00  0.00    +0.000 C 
ENDBRANCH  26  30
ENDBRANCH   1  26
TORSDOF 4
ENDMDL
MODEL 3
REMARK VINA RESULT:      -7.8      3.630     10.364
REMARK  Name = 
REMARK  8 active torsions:
REMARK  status: ('A' for Active; 'I' for Inactive)
REMARK    1  A    between atoms: C_1  and  C_2
REMARK    2  A    between atoms: C_2  and  C_3
REMARK    3  A    between atoms: C_4  and  C_5
REMARK    4  A    between atoms: C_5  and  C_6
REMARK    5  A    between atoms: C_9  and  O_10
REMARK    6  A    between atoms: C_17  and  O_18
REMARK    7  A    between atoms: C_25  and  C_26
REMARK    8  A    between atoms: C_25  and  C_27
REMARK                            x       y       z     vdW  Elec       q    Type
REMARK                         _______ _______ _______ _____ _____    ______ ____
ROOT
ATOM      1  C   UNL     1      -2.335  12.751  20.748  0.00  0.00    +0.000 A 
ATOM      2  C   UNL     1      -1.948  13.670  21.772  0.00  0.00    +0.000 A 
ATOM      3  C   UNL     1      -0.793  13.424  22.509  0.00  0.00    +0.000 A 
ATOM      4  C   UNL     1       0.078  12.441  22.080  0.00  0.00    +0.000 A 
ATOM      5  C   UNL     1      -0.476  11.366  21.392  0.00  0.00    +0.000 A 
ATOM      6  O   UNL     1      -0.004  10.098  21.551  0.00  0.00    +0.000 OA
ATOM      7  C   UNL     1       0.416   9.490  20.398  0.00  0.00    +0.000 A 
ATOM      8  C   UNL     1       0.924   8.189  20.564  0.00  0.00    +0.000 A 
ATOM      9  C   UNL     1       1.724   7.618  19.584  0.00  0.00    +0.000 A 
ATOM     10  C   UNL     1       2.175   8.403  18.525  0.00  0.00    +0.000 A 
ATOM     11  C   UNL     1       1.534   9.695  18.326  0.00  0.00    +0.000 A 
ATOM     12  C   UNL     1       0.498  10.169  19.196  0.00  0.00    +0.000 A 
ATOM     13  C   UNL     1      -0.560  11.355  19.099  0.00  0.00    +0.000 A 
ATOM     14  O   UNL     1      -0.716  12.032  18.092  0.00  0.00    +0.000 OA
ATOM     15  C   UNL     1      -1.404  11.654  20.417  0.00  0.00    +0.000 A 
ATOM     16  C   UNL     1       3.338   7.841  17.791  0.00  0.00    +0.000 C 
ATOM     17  C   UNL     1       3.718   6.560  18.003  0.00  0.00    +0.000 C 
ATOM     18  C   UNL     1       2.935   5.625  18.895  0.00  0.00    +0.000 C 
ATOM     19  C   UNL     1       2.102   4.679  18.008  0.00  0.00    +0.000 C 
ATOM     20  C   UNL     1       3.835   4.737  19.781  0.00  0.00    +0.000 C 
ATOM     21  O   UNL     1       2.080   6.321  19.824  0.00  0.00    +0.000 OA
ENDROOT
BRANCH   4  22
ATOM     22  O   UNL     1       1.089  13.071  21.258  0.00  0.00    +0.000 OA
ATOM     23  H   UNL     1       0.639  13.762  20.702  0.00  0.00    +0.000 HD
ENDBRANCH   4  22
BRANCH  11  24
ATOM     24  O   UNL     1       2.014  10.532  17.350  0.00  0.00    +0.000 OA
ATOM     25  H   UNL     1       2.606  10.024  16.764  0.00  0.00    +0.000 HD
ENDBRANCH  11  24
BRANCH   1  26
ATOM     26  C   UNL     1      -3.842  12.323  21.121  0.00  0.00    +0.000 C 
BRANCH  26  30
ATOM     27  C   UNL     1      -6.281  13.898  23.939  0.00  0.00    +0.000 C 
ATOM     28  C   UNL     1      -5.090  13.046  23.468  0.00  0.00    +0.000 C 
ATOM     29  C   UNL     1      -4.300  12.482  24.608  0.00  0.00    +0.000 C 
ATOM     30  C   UNL     1      -4.833  12.921  22.143  0.00  0.00    +0.000 C 
ENDBRANCH  26  30
ENDBRANCH   1  26
TORSDOF 4
ENDMDL
MODEL 4
REMARK VINA RESULT:      -7.8      2.046      8.344
REMARK  Name = 
REMARK  8 active torsions:
REMARK  status: ('A' for Active; 'I' for Inactive)
REMARK    1  A    between atoms: C_1  and  C_2
REMARK    2  A    between atoms: C_2  and  C_3
REMARK    3  A    between atoms: C_4  and  C_5
REMARK    4  A    between atoms: C_5  and  C_6
REMARK    5  A    between atoms: C_9  and  O_10
REMARK    6  A    between atoms: C_17  and  O_18
REMARK    7  A    between atoms: C_25  and  C_26
REMARK    8  A    between atoms: C_25  and  C_27
REMARK                            x       y       z     vdW  Elec       q    Type
REMARK                         _______ _______ _______ _____ _____    ______ ____
ROOT
ATOM      1  C   UNL     1       0.302  11.655  20.657  0.00  0.00    +0.000 A 
ATOM      2  C   UNL     1      -0.883  12.113  20.003  0.00  0.00    +0.000 A 
ATOM      3  C   UNL     1      -1.262  11.537  18.795  0.00  0.00    +0.000 A 
ATOM      4  C   UNL     1      -0.632  10.382  18.377  0.00  0.00    +0.000 A 
ATOM      5  C   UNL     1       0.689  10.207  18.775  0.00  0.00    +0.000 A 
ATOM      6  O   UNL     1       1.612   9.632  17.953  0.00  0.00    +0.000 OA
ATOM      7  C   UNL     1       2.230   8.523  18.466  0.00  0.00    +0.000 A 
ATOM      8  C   UNL     1       3.166   7.915  17.609  0.00  0.00    +0.000 A 
ATOM      9  C   UNL     1       3.567   6.604  17.825  0.00  0.00    +0.000 A 
ATOM     10  C   UNL     1       2.902   5.833  18.776  0.00  0.00    +0.000 A 
ATOM     11  C   UNL     1       2.033   6.527  19.716  0.00  0.00    +0.000 A 
ATOM     12  C   UNL     1       1.833   7.945  19.658  0.00  0.00    +0.000 A 
ATOM     13  C   UNL     1       1.201   9.007  20.663  0.00  0.00    +0.000 A 
ATOM     14  O   UNL     1       0.860   8.727  21.804  0.00  0.00    +0.000 OA
ATOM     15  C   UNL     1       0.992  10.479  20.089  0.00  0.00    +0.000 A 
ATOM     16  C   UNL     1       3.103   4.368  18.633  0.00  0.00    +0.000 C 
ATOM     17  C   UNL     1       4.063   3.894  17.805  0.00  0.00    +0.000 C 
ATOM     18  C   UNL     1       5.025   4.806  17.082  0.00  0.00    +0.000 C 
ATOM     19  C   UNL     1       6.380   4.775  17.815  0.00  0.00    +0.000 C 
ATOM     20  C   UNL     1       5.291   4.374  15.623  0.00  0.00    +0.000 C 
ATOM     21  O   UNL     1       4.544   6.162  16.979  0.00  0.00    +0.000 OA
ENDROOT
BRANCH   4  22
ATOM     22  O   UNL     1      -1.424   9.256  18.826  0.00  0.00    +0.000 OA
ATOM     23  H   UNL     1      -2.281   9.612  19.182  0.00  0.00    +0.000 HD
ENDBRANCH   4  22
BRANCH  11  24
ATOM     24  O   UNL     1       1.294   5.789  20.606  0.00  0.00    +0.000 OA
ATOM     25  H   UNL     1       0.558   5.364  20.129  0.00  0.00    +0.000 HD
ENDBRANCH  11  24
BRANCH   1  26
ATOM     26  C   UNL     1       1.198  12.975  20.870  0.00  0.00    +0.000 C 
BRANCH  26  30
ATOM     27  C   UNL     1       2.818  15.353  18.026  0.00  0.00    +0.000 C 
ATOM     28  C   UNL     1       2.501  13.992  18.666  0.00  0.00    +0.000 C 
ATOM     29  C   UNL     1       2.958  12.840  17.825  0.00  0.00    +0.000 C 
ATOM     30  C   UNL     1       1.828  13.939  19.842  0.00  0.00    +0.000 C 
ENDBRANCH  26  30
ENDBRANCH   1  26
TORSDOF 4
ENDMDL
MODEL 5
REMARK VINA RESULT:      -7.7      2.819      9.131
REMARK  Name = 
REMARK  8 active torsions:
REMARK  status: ('A' for Active; 'I' for Inactive)
REMARK    1  A    between atoms: C_1  and  C_2
REMARK    2  A    between atoms: C_2  and  C_3
REMARK    3  A    between atoms: C_4  and  C_5
REMARK    4  A    between atoms: C_5  and  C_6
REMARK    5  A    between atoms: C_9  and  O_10
REMARK    6  A    between atoms: C_17  and  O_18
REMARK    7  A    between atoms: C_25  and  C_26
REMARK    8  A    between atoms: C_25  and  C_27
REMARK                            x       y       z     vdW  Elec       q    Type
REMARK                         _______ _______ _______ _____ _____    ______ ____
ROOT
ATOM      1  C   UNL     1       0.476  12.911  19.529  0.00  0.00    +0.000 A 
ATOM      2  C   UNL     1      -0.788  13.225  18.944  0.00  0.00    +0.000 A 
ATOM      3  C   UNL     1      -1.429  12.277  18.152  0.00  0.00    +0.000 A 
ATOM      4  C   UNL     1      -0.955  10.979  18.146  0.00  0.00    +0.000 A 
ATOM      5  C   UNL     1       0.408  10.806  18.364  0.00  0.00    +0.000 A 
ATOM      6  O   UNL     1       1.118   9.844  17.712  0.00  0.00    +0.000 OA
ATOM      7  C   UNL     1       1.766   8.954  18.526  0.00  0.00    +0.000 A 
ATOM      8  C   UNL     1       2.481   7.946  17.853  0.00  0.00    +0.000 A 
ATOM      9  C   UNL     1       2.848   6.784  18.518  0.00  0.00    +0.000 A 
ATOM     10  C   UNL     1       2.345   6.537  19.793  0.00  0.00    +0.000 A 
ATOM     11  C   UNL     1       1.715   7.646  20.494  0.00  0.00    +0.000 A 
ATOM     12  C   UNL     1       1.583   8.943  19.897  0.00  0.00    +0.000 A 
ATOM     13  C   UNL     1       1.218  10.384  20.469  0.00  0.00    +0.000 A 
ATOM     14  O   UNL     1       1.096  10.618  21.663  0.00  0.00    +0.000 OA
ATOM     15  C   UNL     1       0.978  11.529  19.387  0.00  0.00    +0.000 A 
ATOM     16  C   UNL     1       2.436   5.119  20.229  0.00  0.00    +0.000 C 
ATOM     17  C   UNL     1       3.187   4.241  19.525  0.00  0.00    +0.000 C 
ATOM     18  C   UNL     1       4.034   4.668  18.349  0.00  0.00    +0.000 C 
ATOM     19  C   UNL     1       5.504   4.752  18.804  0.00  0.00    +0.000 C 
ATOM     20  C   UNL     1       3.983   3.670  17.171  0.00  0.00    +0.000 C 
ATOM     21  O   UNL     1       3.614   5.925  17.781  0.00  0.00    +0.000 OA
ENDROOT
BRANCH   4  22
ATOM     22  O   UNL     1      -1.701  10.229  19.135  0.00  0.00    +0.000 OA
ATOM     23  H   UNL     1      -2.655  10.226  18.855  0.00  0.00    +0.000 HD
ENDBRANCH   4  22
BRANCH  11  24
ATOM     24  O   UNL     1       1.130   7.416  21.714  0.00  0.00    +0.000 OA
ATOM     25  H   UNL     1       0.603   6.597  21.660  0.00  0.00    +0.000 HD
ENDBRANCH  11  24
BRANCH   1  26
ATOM     26  C   UNL     1       1.465  14.084  19.040  0.00  0.00    +0.000 C 
BRANCH  26  30
ATOM     27  C   UNL     1       1.133  18.066  19.671  0.00  0.00    +0.000 C 
ATOM     28  C   UNL     1       0.711  16.734  19.030  0.00  0.00    +0.000 C 
ATOM     29  C   UNL     1      -0.530  16.861  18.201  0.00  0.00    +0.000 C 
ATOM     30  C   UNL     1       1.419  15.607  19.290  0.00  0.00    +0.000 C 
ENDBRANCH  26  30
ENDBRANCH   1  26
TORSDOF 4
ENDMDL
MODEL 6
REMARK VINA RESULT:      -7.6      3.746      9.591
REMARK  Name = 
REMARK  8 active torsions:
REMARK  status: ('A' for Active; 'I' for Inactive)
REMARK    1  A    between atoms: C_1  and  C_2
REMARK    2  A    between atoms: C_2  and  C_3
REMARK    3  A    between atoms: C_4  and  C_5
REMARK    4  A    between atoms: C_5  and  C_6
REMARK    5  A    between atoms: C_9  and  O_10
REMARK    6  A    between atoms: C_17  and  O_18
REMARK    7  A    between atoms: C_25  and  C_26
REMARK    8  A    between atoms: C_25  and  C_27
REMARK                            x       y       z     vdW  Elec       q    Type
REMARK                         _______ _______ _______ _____ _____    ______ ____
ROOT
ATOM      1  C   UNL     1      -2.361  13.092  20.596  0.00  0.00    +0.000 A 
ATOM      2  C   UNL     1      -1.989  13.994  21.639  0.00  0.00    +0.000 A 
ATOM      3  C   UNL     1      -0.875  13.709  22.423  0.00  0.00    +0.000 A 
ATOM      4  C   UNL     1      -0.019  12.700  22.028  0.00  0.00    +0.000 A 
ATOM      5  C   UNL     1      -0.577  11.646  21.313  0.00  0.00    +0.000 A 
ATOM      6  O   UNL     1      -0.153  10.362  21.487  0.00  0.00    +0.000 OA
ATOM      7  C   UNL     1       0.296   9.743  20.351  0.00  0.00    +0.000 A 
ATOM      8  C   UNL     1       0.755   8.426  20.534  0.00  0.00    +0.000 A 
ATOM      9  C   UNL     1       1.577   7.832  19.586  0.00  0.00    +0.000 A 
ATOM     10  C   UNL     1       2.098   8.606  18.550  0.00  0.00    +0.000 A 
ATOM     11  C   UNL     1       1.508   9.918  18.329  0.00  0.00    +0.000 A 
ATOM     12  C   UNL     1       0.451  10.423  19.156  0.00  0.00    +0.000 A 
ATOM     13  C   UNL     1      -0.563  11.643  19.018  0.00  0.00    +0.000 A 
ATOM     14  O   UNL     1      -0.654  12.326  18.008  0.00  0.00    +0.000 OA
ATOM     15  C   UNL     1      -1.453  11.965  20.301  0.00  0.00    +0.000 A 
ATOM     16  C   UNL     1       3.273   8.008  17.865  0.00  0.00    +0.000 C 
ATOM     17  C   UNL     1       3.602   6.715  18.087  0.00  0.00    +0.000 C 
ATOM     18  C   UNL     1       2.751   5.803  18.941  0.00  0.00    +0.000 C 
ATOM     19  C   UNL     1       1.928   4.887  18.016  0.00  0.00    +0.000 C 
ATOM     20  C   UNL     1       3.584   4.884  19.862  0.00  0.00    +0.000 C 
ATOM     21  O   UNL     1       1.880   6.524  19.836  0.00  0.00    +0.000 OA
ENDROOT
BRANCH   4  22
ATOM     22  O   UNL     1       1.046  13.299  21.252  0.00  0.00    +0.000 OA
ATOM     23  H   UNL     1       1.677  13.731  21.888  0.00  0.00    +0.000 HD
ENDBRANCH   4  22
BRANCH  11  24
ATOM     24  O   UNL     1       2.056  10.741  17.377  0.00  0.00    +0.000 OA
ATOM     25  H   UNL     1       2.480  10.191  16.693  0.00  0.00    +0.000 HD
ENDBRANCH  11  24
BRANCH   1  26
ATOM     26  C   UNL     1      -3.895  12.711  20.903  0.00  0.00    +0.000 C 
BRANCH  26  30
ATOM     27  C   UNL     1      -6.678  11.275  18.341  0.00  0.00    +0.000 C 
ATOM     28  C   UNL     1      -5.259  11.729  18.719  0.00  0.00    +0.000 C 
ATOM     29  C   UNL     1      -4.273  11.518  17.612  0.00  0.00    +0.000 C 
ATOM     30  C   UNL     1      -5.013  12.207  19.964  0.00  0.00    +0.000 C 
ENDBRANCH  26  30
ENDBRANCH   1  26
TORSDOF 4
ENDMDL
MODEL 7
REMARK VINA RESULT:      -7.5      2.317      8.975
REMARK  Name = 
REMARK  8 active torsions:
REMARK  status: ('A' for Active; 'I' for Inactive)
REMARK    1  A    between atoms: C_1  and  C_2
REMARK    2  A    between atoms: C_2  and  C_3
REMARK    3  A    between atoms: C_4  and  C_5
REMARK    4  A    between atoms: C_5  and  C_6
REMARK    5  A    between atoms: C_9  and  O_10
REMARK    6  A    between atoms: C_17  and  O_18
REMARK    7  A    between atoms: C_25  and  C_26
REMARK    8  A    between atoms: C_25  and  C_27
REMARK                            x       y       z     vdW  Elec       q    Type
REMARK                         _______ _______ _______ _____ _____    ______ ____
ROOT
ATOM      1  C   UNL     1       0.029  12.394  20.092  0.00  0.00    +0.000 A 
ATOM      2  C   UNL     1      -1.234  12.659  19.479  0.00  0.00    +0.000 A 
ATOM      3  C   UNL     1      -1.683  11.830  18.456  0.00  0.00    +0.000 A 
ATOM      4  C   UNL     1      -1.025  10.639  18.221  0.00  0.00    +0.000 A 
ATOM      5  C   UNL     1       0.335  10.604  18.514  0.00  0.00    +0.000 A 
ATOM      6  O   UNL     1       1.214   9.909  17.739  0.00  0.00    +0.000 OA
ATOM      7  C   UNL     1       1.940   8.955  18.402  0.00  0.00    +0.000 A 
ATOM      8  C   UNL     1       2.831   8.222  17.598  0.00  0.00    +0.000 A 
ATOM      9  C   UNL     1       3.327   7.001  18.035  0.00  0.00    +0.000 A 
ATOM     10  C   UNL     1       2.796   6.418  19.184  0.00  0.00    +0.000 A 
ATOM     11  C   UNL     1       1.973   7.256  20.044  0.00  0.00    +0.000 A 
ATOM     12  C   UNL     1       1.685   8.622  19.720  0.00  0.00    +0.000 A 
ATOM     13  C   UNL     1       1.081   9.843  20.546  0.00  0.00    +0.000 A 
ATOM     14  O   UNL     1       0.860   9.793  21.748  0.00  0.00    +0.000 OA
ATOM     15  C   UNL     1       0.736  11.155  19.710  0.00  0.00    +0.000 A 
ATOM     16  C   UNL     1       3.071   4.964  19.322  0.00  0.00    +0.000 C 
ATOM     17  C   UNL     1       3.980   4.368  18.517  0.00  0.00    +0.000 C 
ATOM     18  C   UNL     1       4.819   5.148  17.532  0.00  0.00    +0.000 C 
ATOM     19  C   UNL     1       6.233   5.324  18.119  0.00  0.00    +0.000 C 
ATOM     20  C   UNL     1       4.980   4.433  16.173  0.00  0.00    +0.000 C 
ATOM     21  O   UNL     1       4.250   6.432  17.205  0.00  0.00    +0.000 OA
ENDROOT
BRANCH   4  22
ATOM     22  O   UNL     1      -1.706   9.600  18.965  0.00  0.00    +0.000 OA
ATOM     23  H   UNL     1      -1.184   8.761  18.859  0.00  0.00    +0.000 HD
ENDBRANCH   4  22
BRANCH  11  24
ATOM     24  O   UNL     1       1.361   6.690  21.135  0.00  0.00    +0.000 OA
ATOM     25  H   UNL     1       1.986   6.077  21.563  0.00  0.00    +0.000 HD
ENDBRANCH  11  24
BRANCH   1  26
ATOM     26  C   UNL     1       0.860  13.765  19.944  0.00  0.00    +0.000 C 
BRANCH  26  30
ATOM     27  C   UNL     1       0.008  17.269  18.109  0.00  0.00    +0.000 C 
ATOM     28  C   UNL     1       0.965  16.178  18.619  0.00  0.00    +0.000 C 
ATOM     29  C   UNL     1       2.388  16.433  18.230  0.00  0.00    +0.000 C 
ATOM     30  C   UNL     1       0.472  15.110  19.294  0.00  0.00    +0.000 C 
ENDBRANCH  26  30
ENDBRANCH   1  26
TORSDOF 4
ENDMDL
MODEL 8
REMARK VINA RESULT:      -7.4      4.464      8.402
REMARK  Name = 
REMARK  8 active torsions:
REMARK  status: ('A' for Active; 'I' for Inactive)
REMARK    1  A    between atoms: C_1  and  C_2
REMARK    2  A    between atoms: C_2  and  C_3
REMARK    3  A    between atoms: C_4  and  C_5
REMARK    4  A    between atoms: C_5  and  C_6
REMARK    5  A    between atoms: C_9  and  O_10
REMARK    6  A    between atoms: C_17  and  O_18
REMARK    7  A    between atoms: C_25  and  C_26
REMARK    8  A    between atoms: C_25  and  C_27
REMARK                            x       y       z     vdW  Elec       q    Type
REMARK                         _______ _______ _______ _____ _____    ______ ____
ROOT
ATOM      1  C   UNL     1       1.399  10.910  18.979  0.00  0.00    +0.000 A 
ATOM      2  C   UNL     1       2.206  11.905  18.348  0.00  0.00    +0.000 A 
ATOM      3  C   UNL     1       1.691  13.184  18.160  0.00  0.00    +0.000 A 
ATOM      4  C   UNL     1       0.516  13.533  18.797  0.00  0.00    +0.000 A 
ATOM      5  C   UNL     1      -0.397  12.511  19.037  0.00  0.00    +0.000 A 
ATOM      6  O   UNL     1      -1.740  12.717  18.941  0.00  0.00    +0.000 OA
ATOM      7  C   UNL     1      -2.451  12.429  20.076  0.00  0.00    +0.000 A 
ATOM      8  C   UNL     1      -3.835  12.663  19.985  0.00  0.00    +0.000 A 
ATOM      9  C   UNL     1      -4.601  12.791  21.136  0.00  0.00    +0.000 A 
ATOM     10  C   UNL     1      -3.968  12.874  22.375  0.00  0.00    +0.000 A 
ATOM     11  C   UNL     1      -2.561  12.508  22.436  0.00  0.00    +0.000 A 
ATOM     12  C   UNL     1      -1.831  12.105  21.270  0.00  0.00    +0.000 A 
ATOM     13  C   UNL     1      -0.420  11.401  21.046  0.00  0.00    +0.000 A 
ATOM     14  O   UNL     1       0.259  10.958  21.962  0.00  0.00    +0.000 OA
ATOM     15  C   UNL     1       0.099  11.329  19.541  0.00  0.00    +0.000 A 
ATOM     16  C   UNL     1      -4.813  13.429  23.463  0.00  0.00    +0.000 C 
ATOM     17  C   UNL     1      -6.146  13.576  23.279  0.00  0.00    +0.000 C 
ATOM     18  C   UNL     1      -6.843  13.098  22.026  0.00  0.00    +0.000 C 
ATOM     19  C   UNL     1      -7.564  11.772  22.339  0.00  0.00    +0.000 C 
ATOM     20  C   UNL     1      -7.914  14.085  21.514  0.00  0.00    +0.000 C 
ATOM     21  O   UNL     1      -5.942  12.926  20.913  0.00  0.00    +0.000 OA
ENDROOT
BRANCH   4  22
ATOM     22  O   UNL     1       0.862  14.174  20.048  0.00  0.00    +0.000 OA
ATOM     23  H   UNL     1       1.511  14.900  19.847  0.00  0.00    +0.000 HD
ENDBRANCH   4  22
BRANCH  11  24
ATOM     24  O   UNL     1      -1.884  12.664  23.620  0.00  0.00    +0.000 OA
ATOM     25  H   UNL     1      -1.120  13.250  23.470  0.00  0.00    +0.000 HD
ENDBRANCH  11  24
BRANCH   1  26
ATOM     26  C   UNL     1       1.365   9.681  17.940  0.00  0.00    +0.000 C 
BRANCH  26  30
ATOM     27  C   UNL     1       3.720   6.403  17.653  0.00  0.00    +0.000 C 
ATOM     28  C   UNL     1       2.751   7.343  18.390  0.00  0.00    +0.000 C 
ATOM     29  C   UNL     1       2.361   6.824  19.739  0.00  0.00    +0.000 C 
ATOM     30  C   UNL     1       2.312   8.472  17.781  0.00  0.00    +0.000 C 
ENDBRANCH  26  30
ENDBRANCH   1  26
TORSDOF 4
ENDMDL
MODEL 9
REMARK VINA RESULT:      -7.3      2.083      9.264
REMARK  Name = 
REMARK  8 active torsions:
REMARK  status: ('A' for Active; 'I' for Inactive)
REMARK    1  A    between atoms: C_1  and  C_2
REMARK    2  A    between atoms: C_2  and  C_3
REMARK    3  A    between atoms: C_4  and  C_5
REMARK    4  A    between atoms: C_5  and  C_6
REMARK    5  A    between atoms: C_9  and  O_10
REMARK    6  A    between atoms: C_17  and  O_18
REMARK    7  A    between atoms: C_25  and  C_26
REMARK    8  A    between atoms: C_25  and  C_27
REMARK                            x       y       z     vdW  Elec       q    Type
REMARK                         _______ _______ _______ _____ _____    ______ ____
ROOT
ATOM      1  C   UNL     1       0.300  11.812  20.540  0.00  0.00    +0.000 A 
ATOM      2  C   UNL     1      -0.899  12.231  19.887  0.00  0.00    +0.000 A 
ATOM      3  C   UNL     1      -1.294  11.597  18.712  0.00  0.00    +0.000 A 
ATOM      4  C   UNL     1      -0.661  10.428  18.337  0.00  0.00    +0.000 A 
ATOM      5  C   UNL     1       0.668  10.282  18.719  0.00  0.00    +0.000 A 
ATOM      6  O   UNL     1       1.582   9.678  17.909  0.00  0.00    +0.000 OA
ATOM      7  C   UNL     1       2.218   8.598  18.461  0.00  0.00    +0.000 A 
ATOM      8  C   UNL     1       3.145   7.960  17.617  0.00  0.00    +0.000 A 
ATOM      9  C   UNL     1       3.561   6.663  17.886  0.00  0.00    +0.000 A 
ATOM     10  C   UNL     1       2.919   5.931  18.883  0.00  0.00    +0.000 A 
ATOM     11  C   UNL     1       2.060   6.660  19.804  0.00  0.00    +0.000 A 
ATOM     12  C   UNL     1       1.847   8.073  19.685  0.00  0.00    +0.000 A 
ATOM     13  C   UNL     1       1.222   9.174  20.651  0.00  0.00    +0.000 A 
ATOM     14  O   UNL     1       0.903   8.945  21.810  0.00  0.00    +0.000 OA
ATOM     15  C   UNL     1       0.991  10.617  20.015  0.00  0.00    +0.000 A 
ATOM     16  C   UNL     1       3.131   4.463  18.803  0.00  0.00    +0.000 C 
ATOM     17  C   UNL     1       4.080   3.959  17.982  0.00  0.00    +0.000 C 
ATOM     18  C   UNL     1       5.022   4.845  17.201  0.00  0.00    +0.000 C 
ATOM     19  C   UNL     1       6.390   4.858  17.911  0.00  0.00    +0.000 C 
ATOM     20  C   UNL     1       5.267   4.348  15.760  0.00  0.00    +0.000 C 
ATOM     21  O   UNL     1       4.528   6.190  17.044  0.00  0.00    +0.000 OA
ENDROOT
BRANCH   4  22
ATOM     22  O   UNL     1      -1.436   9.318  18.851  0.00  0.00    +0.000 OA
ATOM     23  H   UNL     1      -1.076   8.485  18.445  0.00  0.00    +0.000 HD
ENDBRANCH   4  22
BRANCH  11  24
ATOM     24  O   UNL     1       1.342   5.958  20.741  0.00  0.00    +0.000 OA
ATOM     25  H   UNL     1       0.444   5.802  20.396  0.00  0.00    +0.000 HD
ENDBRANCH  11  24
BRANCH   1  26
ATOM     26  C   UNL     1       1.188  13.148  20.677  0.00  0.00    +0.000 C 
BRANCH  26  30
ATOM     27  C   UNL     1       0.505  16.374  23.022  0.00  0.00    +0.000 C 
ATOM     28  C   UNL     1       0.186  14.968  22.486  0.00  0.00    +0.000 C 
ATOM     29  C   UNL     1      -0.972  14.333  23.193  0.00  0.00    +0.000 C 
ATOM     30  C   UNL     1       0.959  14.426  21.514  0.00  0.00    +0.000 C 
ENDBRANCH  26  30
ENDBRANCH   1  26
TORSDOF 4
ENDMDL
