MODEL 1
REMARK VINA RESULT:      -5.8      0.000      0.000
REMARK  Name = 
REMARK  4 active torsions:
REMARK  status: ('A' for Active; 'I' for Inactive)
REMARK    1  A    between atoms: C_2  and  O_4
REMARK    2  A    between atoms: O_4  and  C_5
REMARK    3  A    between atoms: C_10  and  C_11
REMARK    4  A    between atoms: C_11  and  O_13
REMARK                            x       y       z     vdW  Elec       q    Type
REMARK                         _______ _______ _______ _____ _____    ______ ____
ROOT
ATOM      1  C   UNL     1       4.809   5.065  17.471  0.00  0.00    +0.000 A 
ATOM      2  C   UNL     1       4.620   6.347  16.927  0.00  0.00    +0.000 A 
ATOM      3  C   UNL     1       3.707   7.229  17.495  0.00  0.00    +0.000 A 
ATOM      4  C   UNL     1       2.950   6.827  18.589  0.00  0.00    +0.000 A 
ATOM      5  C   UNL     1       3.106   5.539  19.111  0.00  0.00    +0.000 A 
ATOM      6  C   UNL     1       4.034   4.635  18.561  0.00  0.00    +0.000 A 
ENDROOT
BRANCH   6   7
ATOM      7  C   UNL     1       4.083   3.281  19.191  0.00  0.00    +0.000 C 
ATOM      8  O   UNL     1       3.073   2.639  19.441  0.00  0.00    +0.000 OA
BRANCH   7   9
ATOM      9  O   UNL     1       5.309   2.800  19.472  0.00  0.00    +0.000 OA
ATOM     10  H   UNL     1       5.318   2.071  20.117  0.00  0.00    +0.000 HD
ENDBRANCH   7   9
ENDBRANCH   6   7
BRANCH   1  11
ATOM     11  O   UNL     1       5.691   4.178  16.817  0.00  0.00    +0.000 OA
BRANCH  11  13
ATOM     12  N   UNL     1       7.578   4.356  18.042  0.00  0.00    +0.000 N 
ATOM     13  C   UNL     1       7.036   4.528  16.813  0.00  0.00    +0.000 C 
ATOM     14  O   UNL     1       7.688   4.900  15.848  0.00  0.00    +0.000 OA
ATOM     15  H   UNL     1       8.588   4.384  18.102  0.00  0.00    +0.000 HD
ATOM     16  H   UNL     1       7.066   3.859  18.756  0.00  0.00    +0.000 HD
ENDBRANCH  11  13
ENDBRANCH   1  11
TORSDOF 4
ENDMDL
MODEL 2
REMARK VINA RESULT:      -5.6      2.479      3.870
REMARK  Name = 
REMARK  4 active torsions:
REMARK  status: ('A' for Active; 'I' for Inactive)
REMARK    1  A    between atoms: C_2  and  O_4
REMARK    2  A    between atoms: O_4  and  C_5
REMARK    3  A    between atoms: C_10  and  C_11
REMARK    4  A    between atoms: C_11  and  O_13
REMARK                            x       y       z     vdW  Elec       q    Type
REMARK                         _______ _______ _______ _____ _____    ______ ____
ROOT
ATOM      1  C   UNL     1       3.330   3.229  19.473  0.00  0.00    +0.000 A 
ATOM      2  C   UNL     1       3.540   2.575  20.698  0.00  0.00    +0.000 A 
ATOM      3  C   UNL     1       2.502   2.445  21.616  0.00  0.00    +0.000 A 
ATOM      4  C   UNL     1       1.259   2.996  21.334  0.00  0.00    +0.000 A 
ATOM      5  C   UNL     1       1.055   3.681  20.132  0.00  0.00    +0.000 A 
ATOM      6  C   UNL     1       2.086   3.813  19.182  0.00  0.00    +0.000 A 
ENDROOT
BRANCH   6   7
ATOM      7  C   UNL     1       1.748   4.593  17.954  0.00  0.00    +0.000 C 
ATOM      8  O   UNL     1       0.943   4.194  17.126  0.00  0.00    +0.000 OA
BRANCH   7   9
ATOM      9  O   UNL     1       2.384   5.772  17.806  0.00  0.00    +0.000 OA
ATOM     10  H   UNL     1       2.255   6.192  16.937  0.00  0.00    +0.000 HD
ENDBRANCH   7   9
ENDBRANCH   6   7
BRANCH   1  11
ATOM     11  O   UNL     1       4.429   3.404  18.604  0.00  0.00    +0.000 OA
BRANCH  11  13
ATOM     12  N   UNL     1       6.564   4.127  18.507  0.00  0.00    +0.000 N 
ATOM     13  C   UNL     1       5.309   4.433  18.913  0.00  0.00    +0.000 C 
ATOM     14  O   UNL     1       5.025   5.501  19.435  0.00  0.00    +0.000 OA
ATOM     15  H   UNL     1       7.237   4.883  18.496  0.00  0.00    +0.000 HD
ATOM     16  H   UNL     1       6.721   3.333  17.903  0.00  0.00    +0.000 HD
ENDBRANCH  11  13
ENDBRANCH   1  11
TORSDOF 4
ENDMDL
MODEL 3
REMARK VINA RESULT:      -5.6      2.437      3.007
REMARK  Name = 
REMARK  4 active torsions:
REMARK  status: ('A' for Active; 'I' for Inactive)
REMARK    1  A    between atoms: C_2  and  O_4
REMARK    2  A    between atoms: O_4  and  C_5
REMARK    3  A    between atoms: C_10  and  C_11
REMARK    4  A    between atoms: C_11  and  O_13
REMARK                            x       y       z     vdW  Elec       q    Type
REMARK                         _______ _______ _______ _____ _____    ______ ____
ROOT
ATOM      1  C   UNL     1       5.388   4.202  16.952  0.00  0.00    +0.000 A 
ATOM      2  C   UNL     1       3.992   4.046  16.911  0.00  0.00    +0.000 A 
ATOM      3  C   UNL     1       3.194   4.554  17.930  0.00  0.00    +0.000 A 
ATOM      4  C   UNL     1       3.784   5.191  19.015  0.00  0.00    +0.000 A 
ATOM      5  C   UNL     1       5.175   5.316  19.080  0.00  0.00    +0.000 A 
ATOM      6  C   UNL     1       6.002   4.821  18.053  0.00  0.00    +0.000 A 
ENDROOT
BRANCH   6   7
ATOM      7  C   UNL     1       7.472   4.991  18.258  0.00  0.00    +0.000 C 
ATOM      8  O   UNL     1       7.939   5.909  18.915  0.00  0.00    +0.000 OA
BRANCH   7   9
ATOM      9  O   UNL     1       8.263   4.069  17.675  0.00  0.00    +0.000 OA
ATOM     10  H   UNL     1       9.121   4.412  17.370  0.00  0.00    +0.000 HD
ENDBRANCH   7   9
ENDBRANCH   6   7
BRANCH   1  11
ATOM     11  O   UNL     1       6.165   3.606  15.935  0.00  0.00    +0.000 OA
BRANCH  11  13
ATOM     12  N   UNL     1       7.339   5.116  14.738  0.00  0.00    +0.000 N 
ATOM     13  C   UNL     1       6.258   4.301  14.735  0.00  0.00    +0.000 C 
ATOM     14  O   UNL     1       5.516   4.189  13.770  0.00  0.00    +0.000 OA
ATOM     15  H   UNL     1       7.615   5.509  13.848  0.00  0.00    +0.000 HD
ATOM     16  H   UNL     1       8.035   5.030  15.465  0.00  0.00    +0.000 HD
ENDBRANCH  11  13
ENDBRANCH   1  11
TORSDOF 4
ENDMDL
MODEL 4
REMARK VINA RESULT:      -5.6      2.837      3.841
REMARK  Name = 
REMARK  4 active torsions:
REMARK  status: ('A' for Active; 'I' for Inactive)
REMARK    1  A    between atoms: C_2  and  O_4
REMARK    2  A    between atoms: O_4  and  C_5
REMARK    3  A    between atoms: C_10  and  C_11
REMARK    4  A    between atoms: C_11  and  O_13
REMARK                            x       y       z     vdW  Elec       q    Type
REMARK                         _______ _______ _______ _____ _____    ______ ____
ROOT
ATOM      1  C   UNL     1       6.517   4.794  17.484  0.00  0.00    +0.000 A 
ATOM      2  C   UNL     1       5.759   4.669  18.660  0.00  0.00    +0.000 A 
ATOM      3  C   UNL     1       4.499   4.081  18.630  0.00  0.00    +0.000 A 
ATOM      4  C   UNL     1       3.971   3.643  17.422  0.00  0.00    +0.000 A 
ATOM      5  C   UNL     1       4.705   3.798  16.242  0.00  0.00    +0.000 A 
ATOM      6  C   UNL     1       5.988   4.379  16.250  0.00  0.00    +0.000 A 
ENDROOT
BRANCH   6   7
ATOM      7  C   UNL     1       6.653   4.515  14.920  0.00  0.00    +0.000 C 
ATOM      8  O   UNL     1       6.393   3.778  13.980  0.00  0.00    +0.000 OA
BRANCH   7   9
ATOM      9  O   UNL     1       7.563   5.502  14.809  0.00  0.00    +0.000 OA
ATOM     10  H   UNL     1       8.486   5.196  14.782  0.00  0.00    +0.000 HD
ENDBRANCH   7   9
ENDBRANCH   6   7
BRANCH   1  11
ATOM     11  O   UNL     1       7.758   5.465  17.547  0.00  0.00    +0.000 OA
BRANCH  11  13
ATOM     12  N   UNL     1       8.360   7.170  18.895  0.00  0.00    +0.000 N 
ATOM     13  C   UNL     1       7.713   6.838  17.754  0.00  0.00    +0.000 C 
ATOM     14  O   UNL     1       7.210   7.669  17.012  0.00  0.00    +0.000 OA
ATOM     15  H   UNL     1       8.564   8.152  19.034  0.00  0.00    +0.000 HD
ATOM     16  H   UNL     1       8.932   6.487  19.370  0.00  0.00    +0.000 HD
ENDBRANCH  11  13
ENDBRANCH   1  11
TORSDOF 4
ENDMDL
MODEL 5
REMARK VINA RESULT:      -5.6      1.409      3.492
REMARK  Name = 
REMARK  4 active torsions:
REMARK  status: ('A' for Active; 'I' for Inactive)
REMARK    1  A    between atoms: C_2  and  O_4
REMARK    2  A    between atoms: O_4  and  C_5
REMARK    3  A    between atoms: C_10  and  C_11
REMARK    4  A    between atoms: C_11  and  O_13
REMARK                            x       y       z     vdW  Elec       q    Type
REMARK                         _______ _______ _______ _____ _____    ______ ____
ROOT
ATOM      1  C   UNL     1       3.801   4.652  17.484  0.00  0.00    +0.000 A 
ATOM      2  C   UNL     1       2.641   5.176  18.079  0.00  0.00    +0.000 A 
ATOM      3  C   UNL     1       2.453   6.552  18.170  0.00  0.00    +0.000 A 
ATOM      4  C   UNL     1       3.436   7.414  17.700  0.00  0.00    +0.000 A 
ATOM      5  C   UNL     1       4.609   6.898  17.141  0.00  0.00    +0.000 A 
ATOM      6  C   UNL     1       4.815   5.510  17.026  0.00  0.00    +0.000 A 
ENDROOT
BRANCH   6   7
ATOM      7  C   UNL     1       6.122   5.088  16.439  0.00  0.00    +0.000 C 
ATOM      8  O   UNL     1       6.636   5.674  15.498  0.00  0.00    +0.000 OA
BRANCH   7   9
ATOM      9  O   UNL     1       6.711   4.018  17.008  0.00  0.00    +0.000 OA
ATOM     10  H   UNL     1       7.457   3.653  16.501  0.00  0.00    +0.000 HD
ENDBRANCH   7   9
ENDBRANCH   6   7
BRANCH   1  11
ATOM     11  O   UNL     1       3.984   3.252  17.481  0.00  0.00    +0.000 OA
BRANCH  11  13
ATOM     12  N   UNL     1       5.083   2.809  19.401  0.00  0.00    +0.000 N 
ATOM     13  C   UNL     1       3.932   2.615  18.714  0.00  0.00    +0.000 C 
ATOM     14  O   UNL     1       2.984   1.994  19.173  0.00  0.00    +0.000 OA
ATOM     15  H   UNL     1       5.073   2.565  20.383  0.00  0.00    +0.000 HD
ATOM     16  H   UNL     1       5.756   3.488  19.079  0.00  0.00    +0.000 HD
ENDBRANCH  11  13
ENDBRANCH   1  11
TORSDOF 4
ENDMDL
MODEL 6
REMARK VINA RESULT:      -5.5      1.382      1.419
REMARK  Name = 
REMARK  4 active torsions:
REMARK  status: ('A' for Active; 'I' for Inactive)
REMARK    1  A    between atoms: C_2  and  O_4
REMARK    2  A    between atoms: O_4  and  C_5
REMARK    3  A    between atoms: C_10  and  C_11
REMARK    4  A    between atoms: C_11  and  O_13
REMARK                            x       y       z     vdW  Elec       q    Type
REMARK                         _______ _______ _______ _____ _____    ______ ____
ROOT
ATOM      1  C   UNL     1       4.557   5.042  17.096  0.00  0.00    +0.000 A 
ATOM      2  C   UNL     1       4.659   6.443  17.067  0.00  0.00    +0.000 A 
ATOM      3  C   UNL     1       3.660   7.236  17.622  0.00  0.00    +0.000 A 
ATOM      4  C   UNL     1       2.536   6.640  18.179  0.00  0.00    +0.000 A 
ATOM      5  C   UNL     1       2.411   5.247  18.177  0.00  0.00    +0.000 A 
ATOM      6  C   UNL     1       3.415   4.424  17.634  0.00  0.00    +0.000 A 
ENDROOT
BRANCH   6   7
ATOM      7  C   UNL     1       3.146   2.955  17.666  0.00  0.00    +0.000 C 
ATOM      8  O   UNL     1       2.051   2.484  17.398  0.00  0.00    +0.000 OA
BRANCH   7   9
ATOM      9  O   UNL     1       4.185   2.169  18.009  0.00  0.00    +0.000 OA
ATOM     10  H   UNL     1       4.460   1.541  17.317  0.00  0.00    +0.000 HD
ENDBRANCH   7   9
ENDBRANCH   6   7
BRANCH   1  11
ATOM     11  O   UNL     1       5.557   4.278  16.456  0.00  0.00    +0.000 OA
BRANCH  11  13
ATOM     12  N   UNL     1       7.634   4.903  15.835  0.00  0.00    +0.000 N 
ATOM     13  C   UNL     1       6.865   4.493  16.871  0.00  0.00    +0.000 C 
ATOM     14  O   UNL     1       7.294   4.382  18.011  0.00  0.00    +0.000 OA
ATOM     15  H   UNL     1       8.544   5.282  16.065  0.00  0.00    +0.000 HD
ATOM     16  H   UNL     1       7.204   5.176  14.963  0.00  0.00    +0.000 HD
ENDBRANCH  11  13
ENDBRANCH   1  11
TORSDOF 4
ENDMDL
MODEL 7
REMARK VINA RESULT:      -5.5      2.334      3.598
REMARK  Name = 
REMARK  4 active torsions:
REMARK  status: ('A' for Active; 'I' for Inactive)
REMARK    1  A    between atoms: C_2  and  O_4
REMARK    2  A    between atoms: O_4  and  C_5
REMARK    3  A    between atoms: C_10  and  C_11
REMARK    4  A    between atoms: C_11  and  O_13
REMARK                            x       y       z     vdW  Elec       q    Type
REMARK                         _______ _______ _______ _____ _____    ______ ____
ROOT
ATOM      1  C   UNL     1       6.046   4.328  18.066  0.00  0.00    +0.000 A 
ATOM      2  C   UNL     1       5.084   4.343  19.091  0.00  0.00    +0.000 A 
ATOM      3  C   UNL     1       3.728   4.288  18.788  0.00  0.00    +0.000 A 
ATOM      4  C   UNL     1       3.319   4.251  17.461  0.00  0.00    +0.000 A 
ATOM      5  C   UNL     1       4.269   4.274  16.436  0.00  0.00    +0.000 A 
ATOM      6  C   UNL     1       5.648   4.316  16.719  0.00  0.00    +0.000 A 
ENDROOT
BRANCH   6   7
ATOM      7  C   UNL     1       6.557   4.367  15.535  0.00  0.00    +0.000 C 
ATOM      8  O   UNL     1       6.328   3.748  14.506  0.00  0.00    +0.000 OA
BRANCH   7   9
ATOM      9  O   UNL     1       7.654   5.140  15.661  0.00  0.00    +0.000 OA
ATOM     10  H   UNL     1       7.712   5.619  16.506  0.00  0.00    +0.000 HD
ENDBRANCH   7   9
ENDBRANCH   6   7
BRANCH   1  11
ATOM     11  O   UNL     1       7.407   4.461  18.415  0.00  0.00    +0.000 OA
BRANCH  11  13
ATOM     12  N   UNL     1       7.863   6.670  18.481  0.00  0.00    +0.000 N 
ATOM     13  C   UNL     1       7.740   5.542  19.221  0.00  0.00    +0.000 C 
ATOM     14  O   UNL     1       7.868   5.531  20.437  0.00  0.00    +0.000 OA
ATOM     15  H   UNL     1       7.899   7.545  18.989  0.00  0.00    +0.000 HD
ATOM     16  H   UNL     1       7.553   6.681  17.521  0.00  0.00    +0.000 HD
ENDBRANCH  11  13
ENDBRANCH   1  11
TORSDOF 4
ENDMDL
MODEL 8
REMARK VINA RESULT:      -5.5      2.643      3.485
REMARK  Name = 
REMARK  4 active torsions:
REMARK  status: ('A' for Active; 'I' for Inactive)
REMARK    1  A    between atoms: C_2  and  O_4
REMARK    2  A    between atoms: O_4  and  C_5
REMARK    3  A    between atoms: C_10  and  C_11
REMARK    4  A    between atoms: C_11  and  O_13
REMARK                            x       y       z     vdW  Elec       q    Type
REMARK                         _______ _______ _______ _____ _____    ______ ____
ROOT
ATOM      1  C   UNL     1       3.553   3.988  19.357  0.00  0.00    +0.000 A 
ATOM      2  C   UNL     1       3.894   5.039  18.490  0.00  0.00    +0.000 A 
ATOM      3  C   UNL     1       3.274   6.279  18.605  0.00  0.00    +0.000 A 
ATOM      4  C   UNL     1       2.285   6.469  19.562  0.00  0.00    +0.000 A 
ATOM      5  C   UNL     1       1.914   5.415  20.402  0.00  0.00    +0.000 A 
ATOM      6  C   UNL     1       2.538   4.156  20.314  0.00  0.00    +0.000 A 
ENDROOT
BRANCH   6   7
ATOM      7  C   UNL     1       2.029   3.107  21.248  0.00  0.00    +0.000 C 
ATOM      8  O   UNL     1       2.762   2.509  22.023  0.00  0.00    +0.000 OA
BRANCH   7   9
ATOM      9  O   UNL     1       0.708   2.851  21.191  0.00  0.00    +0.000 OA
ATOM     10  H   UNL     1       0.272   3.165  20.379  0.00  0.00    +0.000 HD
ENDBRANCH   7   9
ENDBRANCH   6   7
BRANCH   1  11
ATOM     11  O   UNL     1       4.153   2.725  19.157  0.00  0.00    +0.000 OA
BRANCH  11  13
ATOM     12  N   UNL     1       4.095   0.642  18.293  0.00  0.00    +0.000 N 
ATOM     13  C   UNL     1       3.511   1.864  18.277  0.00  0.00    +0.000 C 
ATOM     14  O   UNL     1       2.526   2.117  17.598  0.00  0.00    +0.000 OA
ATOM     15  H   UNL     1       3.586  -0.112  17.849  0.00  0.00    +0.000 HD
ATOM     16  H   UNL     1       4.770   0.413  19.008  0.00  0.00    +0.000 HD
ENDBRANCH  11  13
ENDBRANCH   1  11
TORSDOF 4
ENDMDL
MODEL 9
REMARK VINA RESULT:      -5.4      2.325      3.470
REMARK  Name = 
REMARK  4 active torsions:
REMARK  status: ('A' for Active; 'I' for Inactive)
REMARK    1  A    between atoms: C_2  and  O_4
REMARK    2  A    between atoms: O_4  and  C_5
REMARK    3  A    between atoms: C_10  and  C_11
REMARK    4  A    between atoms: C_11  and  O_13
REMARK                            x       y       z     vdW  Elec       q    Type
REMARK                         _______ _______ _______ _____ _____    ______ ____
ROOT
ATOM      1  C   UNL     1       3.989   4.455  17.542  0.00  0.00    +0.000 A 
ATOM      2  C   UNL     1       4.695   4.167  16.362  0.00  0.00    +0.000 A 
ATOM      3  C   UNL     1       5.313   5.184  15.642  0.00  0.00    +0.000 A 
ATOM      4  C   UNL     1       5.203   6.500  16.075  0.00  0.00    +0.000 A 
ATOM      5  C   UNL     1       4.470   6.797  17.228  0.00  0.00    +0.000 A 
ATOM      6  C   UNL     1       3.848   5.783  17.980  0.00  0.00    +0.000 A 
ENDROOT
BRANCH   6   7
ATOM      7  C   UNL     1       3.070   6.235  19.172  0.00  0.00    +0.000 C 
ATOM      8  O   UNL     1       2.313   7.194  19.135  0.00  0.00    +0.000 OA
BRANCH   7   9
ATOM      9  O   UNL     1       3.249   5.524  20.302  0.00  0.00    +0.000 OA
ATOM     10  H   UNL     1       3.000   4.586  20.230  0.00  0.00    +0.000 HD
ENDBRANCH   7   9
ENDBRANCH   6   7
BRANCH   1  11
ATOM     11  O   UNL     1       3.315   3.403  18.200  0.00  0.00    +0.000 OA
BRANCH  11  13
ATOM     12  N   UNL     1       3.967   1.262  18.484  0.00  0.00    +0.000 N 
ATOM     13  C   UNL     1       4.100   2.530  18.942  0.00  0.00    +0.000 C 
ATOM     14  O   UNL     1       4.854   2.826  19.858  0.00  0.00    +0.000 OA
ATOM     15  H   UNL     1       4.643   0.586  18.815  0.00  0.00    +0.000 HD
ATOM     16  H   UNL     1       3.499   1.088  17.607  0.00  0.00    +0.000 HD
ENDBRANCH  11  13
ENDBRANCH   1  11
TORSDOF 4
ENDMDL
