MODEL 1
REMARK VINA RESULT:      -7.8      0.000      0.000
REMARK  Name = 
REMARK  7 active torsions:
REMARK  status: ('A' for Active; 'I' for Inactive)
REMARK    1  A    between atoms: C_1  and  C_2
REMARK    2  A    between atoms: C_2  and  C_3
REMARK    3  A    between atoms: C_3  and  O_4
REMARK    4  A    between atoms: O_4  and  C_5
REMARK    5  A    between atoms: C_5  and  C_7
REMARK    6  A    between atoms: C_22  and  C_23
REMARK    7  A    between atoms: C_23  and  O_25
REMARK                            x       y       z     vdW  Elec       q    Type
REMARK                         _______ _______ _______ _____ _____    ______ ____
ROOT
ATOM      1  C   UNL     1       6.374   6.795  18.293  0.00  0.00    +0.000 C 
ATOM      2  C   UNL     1       5.124   6.801  17.352  0.00  0.00    +0.000 C 
ATOM      3  C   UNL     1       3.961   6.295  18.204  0.00  0.00    +0.000 A 
ATOM      4  C   UNL     1       2.771   6.969  18.429  0.00  0.00    +0.000 A 
ATOM      5  C   UNL     1       1.775   6.328  19.165  0.00  0.00    +0.000 A 
ATOM      6  C   UNL     1       1.976   5.033  19.670  0.00  0.00    +0.000 A 
ATOM      7  C   UNL     1       3.176   4.352  19.452  0.00  0.00    +0.000 A 
ATOM      8  C   UNL     1       4.170   4.985  18.720  0.00  0.00    +0.000 A 
ATOM      9  C   UNL     1       5.527   4.381  18.327  0.00  0.00    +0.000 C 
ATOM     10  C   UNL     1       5.608   4.452  16.801  0.00  0.00    +0.000 A 
ATOM     11  C   UNL     1       5.922   3.398  15.955  0.00  0.00    +0.000 A 
ATOM     12  C   UNL     1       5.985   3.638  14.582  0.00  0.00    +0.000 A 
ATOM     13  C   UNL     1       5.711   4.911  14.061  0.00  0.00    +0.000 A 
ATOM     14  C   UNL     1       5.379   5.970  14.906  0.00  0.00    +0.000 A 
ATOM     15  C   UNL     1       5.346   5.740  16.277  0.00  0.00    +0.000 A 
ATOM     16  C   UNL     1       6.585   5.373  18.913  0.00  0.00    +0.000 C 
ENDROOT
BRANCH   1  17
ATOM     17  C   UNL     1       7.569   7.432  17.603  0.00  0.00    +0.000 C 
ATOM     18  O   UNL     1       7.831   7.226  16.425  0.00  0.00    +0.000 OA
BRANCH  17  19
ATOM     19  O   UNL     1       8.317   8.169  18.450  0.00  0.00    +0.000 OA
BRANCH  19  20
ATOM     20  C   UNL     1       8.493   9.562  18.162  0.00  0.00    +0.000 C 
BRANCH  20  22
ATOM     21  C   UNL     1      10.248  11.298  18.728  0.00  0.00    +0.000 C 
ATOM     22  C   UNL     1       9.278  10.254  19.264  0.00  0.00    +0.000 C 
ENDBRANCH  20  22
ENDBRANCH  19  20
ENDBRANCH  17  19
ENDBRANCH   1  17
BRANCH  16  23
ATOM     23  C   UNL     1       7.996   4.829  18.829  0.00  0.00    +0.000 C 
ATOM     24  O   UNL     1       8.426   4.118  17.938  0.00  0.00    +0.000 OA
BRANCH  23  25
ATOM     25  O   UNL     1       8.743   5.142  19.910  0.00  0.00    +0.000 OA
ATOM     26  H   UNL     1       8.459   5.923  20.424  0.00  0.00    +0.000 HD
ENDBRANCH  23  25
ENDBRANCH  16  23
TORSDOF 6
ENDMDL
MODEL 2
REMARK VINA RESULT:      -7.6      2.968      4.968
REMARK  Name = 
REMARK  7 active torsions:
REMARK  status: ('A' for Active; 'I' for Inactive)
REMARK    1  A    between atoms: C_1  and  C_2
REMARK    2  A    between atoms: C_2  and  C_3
REMARK    3  A    between atoms: C_3  and  O_4
REMARK    4  A    between atoms: O_4  and  C_5
REMARK    5  A    between atoms: C_5  and  C_7
REMARK    6  A    between atoms: C_22  and  C_23
REMARK    7  A    between atoms: C_23  and  O_25
REMARK                            x       y       z     vdW  Elec       q    Type
REMARK                         _______ _______ _______ _____ _____    ______ ____
ROOT
ATOM      1  C   UNL     1       4.033   5.756  17.638  0.00  0.00    +0.000 C 
ATOM      2  C   UNL     1       2.473   5.820  17.525  0.00  0.00    +0.000 C 
ATOM      3  C   UNL     1       2.055   7.083  18.276  0.00  0.00    +0.000 A 
ATOM      4  C   UNL     1       1.315   8.129  17.748  0.00  0.00    +0.000 A 
ATOM      5  C   UNL     1       0.945   9.174  18.596  0.00  0.00    +0.000 A 
ATOM      6  C   UNL     1       1.317   9.166  19.949  0.00  0.00    +0.000 A 
ATOM      7  C   UNL     1       2.068   8.117  20.485  0.00  0.00    +0.000 A 
ATOM      8  C   UNL     1       2.439   7.075  19.646  0.00  0.00    +0.000 A 
ATOM      9  C   UNL     1       3.211   5.812  20.060  0.00  0.00    +0.000 C 
ATOM     10  C   UNL     1       2.333   4.622  19.669  0.00  0.00    +0.000 A 
ATOM     11  C   UNL     1       1.976   3.570  20.500  0.00  0.00    +0.000 A 
ATOM     12  C   UNL     1       1.192   2.540  19.977  0.00  0.00    +0.000 A 
ATOM     13  C   UNL     1       0.751   2.577  18.647  0.00  0.00    +0.000 A 
ATOM     14  C   UNL     1       1.095   3.640  17.812  0.00  0.00    +0.000 A 
ATOM     15  C   UNL     1       1.901   4.651  18.322  0.00  0.00    +0.000 A 
ATOM     16  C   UNL     1       4.474   5.804  19.138  0.00  0.00    +0.000 C 
ENDROOT
BRANCH   1  17
ATOM     17  C   UNL     1       4.588   4.623  16.790  0.00  0.00    +0.000 C 
ATOM     18  O   UNL     1       4.122   3.492  16.826  0.00  0.00    +0.000 OA
BRANCH  17  19
ATOM     19  O   UNL     1       5.667   5.000  16.074  0.00  0.00    +0.000 OA
BRANCH  19  20
ATOM     20  C   UNL     1       6.344   4.005  15.295  0.00  0.00    +0.000 C 
BRANCH  20  22
ATOM     21  C   UNL     1       6.046   3.547  12.822  0.00  0.00    +0.000 C 
ATOM     22  C   UNL     1       6.593   4.497  13.878  0.00  0.00    +0.000 C 
ENDBRANCH  20  22
ENDBRANCH  19  20
ENDBRANCH  17  19
ENDBRANCH   1  17
BRANCH  16  23
ATOM     23  C   UNL     1       5.484   4.753  19.553  0.00  0.00    +0.000 C 
ATOM     24  O   UNL     1       5.242   3.571  19.724  0.00  0.00    +0.000 OA
BRANCH  23  25
ATOM     25  O   UNL     1       6.704   5.272  19.810  0.00  0.00    +0.000 OA
ATOM     26  H   UNL     1       7.429   4.994  19.217  0.00  0.00    +0.000 HD
ENDBRANCH  23  25
ENDBRANCH  16  23
TORSDOF 6
ENDMDL
MODEL 3
REMARK VINA RESULT:      -7.4      2.181      4.347
REMARK  Name = 
REMARK  7 active torsions:
REMARK  status: ('A' for Active; 'I' for Inactive)
REMARK    1  A    between atoms: C_1  and  C_2
REMARK    2  A    between atoms: C_2  and  C_3
REMARK    3  A    between atoms: C_3  and  O_4
REMARK    4  A    between atoms: O_4  and  C_5
REMARK    5  A    between atoms: C_5  and  C_7
REMARK    6  A    between atoms: C_22  and  C_23
REMARK    7  A    between atoms: C_23  and  O_25
REMARK                            x       y       z     vdW  Elec       q    Type
REMARK                         _______ _______ _______ _____ _____    ______ ____
ROOT
ATOM      1  C   UNL     1       4.015   5.634  17.689  0.00  0.00    +0.000 C 
ATOM      2  C   UNL     1       2.458   5.723  17.562  0.00  0.00    +0.000 C 
ATOM      3  C   UNL     1       2.057   7.013  18.274  0.00  0.00    +0.000 A 
ATOM      4  C   UNL     1       1.340   8.058  17.711  0.00  0.00    +0.000 A 
ATOM      5  C   UNL     1       0.983   9.132  18.526  0.00  0.00    +0.000 A 
ATOM      6  C   UNL     1       1.345   9.156  19.882  0.00  0.00    +0.000 A 
ATOM      7  C   UNL     1       2.074   8.110  20.453  0.00  0.00    +0.000 A 
ATOM      8  C   UNL     1       2.431   7.038  19.647  0.00  0.00    +0.000 A 
ATOM      9  C   UNL     1       3.177   5.774  20.102  0.00  0.00    +0.000 C 
ATOM     10  C   UNL     1       2.281   4.589  19.738  0.00  0.00    +0.000 A 
ATOM     11  C   UNL     1       1.899   3.568  20.596  0.00  0.00    +0.000 A 
ATOM     12  C   UNL     1       1.100   2.538  20.097  0.00  0.00    +0.000 A 
ATOM     13  C   UNL     1       0.669   2.544  18.763  0.00  0.00    +0.000 A 
ATOM     14  C   UNL     1       1.038   3.577  17.900  0.00  0.00    +0.000 A 
ATOM     15  C   UNL     1       1.859   4.587  18.387  0.00  0.00    +0.000 A 
ATOM     16  C   UNL     1       4.447   5.716  19.191  0.00  0.00    +0.000 C 
ENDROOT
BRANCH   1  17
ATOM     17  C   UNL     1       4.555   4.468  16.878  0.00  0.00    +0.000 C 
ATOM     18  O   UNL     1       4.030   3.362  16.893  0.00  0.00    +0.000 OA
BRANCH  17  19
ATOM     19  O   UNL     1       5.690   4.783  16.221  0.00  0.00    +0.000 OA
BRANCH  19  20
ATOM     20  C   UNL     1       6.071   6.163  16.149  0.00  0.00    +0.000 C 
BRANCH  20  22
ATOM     21  C   UNL     1       7.457   7.714  17.594  0.00  0.00    +0.000 C 
ATOM     22  C   UNL     1       7.409   6.397  16.832  0.00  0.00    +0.000 C 
ENDBRANCH  20  22
ENDBRANCH  19  20
ENDBRANCH  17  19
ENDBRANCH   1  17
BRANCH  16  23
ATOM     23  C   UNL     1       5.434   4.660  19.643  0.00  0.00    +0.000 C 
ATOM     24  O   UNL     1       5.176   3.483  19.822  0.00  0.00    +0.000 OA
BRANCH  23  25
ATOM     25  O   UNL     1       6.654   5.169  19.923  0.00  0.00    +0.000 OA
ATOM     26  H   UNL     1       7.105   5.642  19.197  0.00  0.00    +0.000 HD
ENDBRANCH  23  25
ENDBRANCH  16  23
TORSDOF 6
ENDMDL
MODEL 4
REMARK VINA RESULT:      -7.2      2.482      4.257
REMARK  Name = 
REMARK  7 active torsions:
REMARK  status: ('A' for Active; 'I' for Inactive)
REMARK    1  A    between atoms: C_1  and  C_2
REMARK    2  A    between atoms: C_2  and  C_3
REMARK    3  A    between atoms: C_3  and  O_4
REMARK    4  A    between atoms: O_4  and  C_5
REMARK    5  A    between atoms: C_5  and  C_7
REMARK    6  A    between atoms: C_22  and  C_23
REMARK    7  A    between atoms: C_23  and  O_25
REMARK                            x       y       z     vdW  Elec       q    Type
REMARK                         _______ _______ _______ _____ _____    ______ ____
ROOT
ATOM      1  C   UNL     1       5.250   6.276  17.490  0.00  0.00    +0.000 C 
ATOM      2  C   UNL     1       3.751   6.043  17.107  0.00  0.00    +0.000 C 
ATOM      3  C   UNL     1       2.942   6.959  18.023  0.00  0.00    +0.000 A 
ATOM      4  C   UNL     1       2.043   7.929  17.607  0.00  0.00    +0.000 A 
ATOM      5  C   UNL     1       1.321   8.624  18.577  0.00  0.00    +0.000 A 
ATOM      6  C   UNL     1       1.504   8.350  19.942  0.00  0.00    +0.000 A 
ATOM      7  C   UNL     1       2.413   7.378  20.367  0.00  0.00    +0.000 A 
ATOM      8  C   UNL     1       3.134   6.683  19.406  0.00  0.00    +0.000 A 
ATOM      9  C   UNL     1       4.131   5.544  19.672  0.00  0.00    +0.000 C 
ATOM     10  C   UNL     1       3.631   4.337  18.877  0.00  0.00    +0.000 A 
ATOM     11  C   UNL     1       3.437   3.059  19.379  0.00  0.00    +0.000 A 
ATOM     12  C   UNL     1       3.004   2.056  18.510  0.00  0.00    +0.000 A 
ATOM     13  C   UNL     1       2.745   2.337  17.160  0.00  0.00    +0.000 A 
ATOM     14  C   UNL     1       2.923   3.625  16.654  0.00  0.00    +0.000 A 
ATOM     15  C   UNL     1       3.384   4.617  17.511  0.00  0.00    +0.000 A 
ATOM     16  C   UNL     1       5.467   6.031  19.021  0.00  0.00    +0.000 C 
ENDROOT
BRANCH   1  17
ATOM     17  C   UNL     1       6.171   5.535  16.535  0.00  0.00    +0.000 C 
ATOM     18  O   UNL     1       7.267   5.975  16.211  0.00  0.00    +0.000 OA
BRANCH  17  19
ATOM     19  O   UNL     1       5.611   4.406  16.055  0.00  0.00    +0.000 OA
BRANCH  19  20
ATOM     20  C   UNL     1       6.221   3.776  14.921  0.00  0.00    +0.000 C 
BRANCH  20  22
ATOM     21  C   UNL     1       5.990   3.345  12.435  0.00  0.00    +0.000 C 
ATOM     22  C   UNL     1       5.486   4.131  13.638  0.00  0.00    +0.000 C 
ENDBRANCH  20  22
ENDBRANCH  19  20
ENDBRANCH  17  19
ENDBRANCH   1  17
BRANCH  16  23
ATOM     23  C   UNL     1       6.640   5.142  19.378  0.00  0.00    +0.000 C 
ATOM     24  O   UNL     1       7.487   5.394  20.217  0.00  0.00    +0.000 OA
BRANCH  23  25
ATOM     25  O   UNL     1       6.720   4.042  18.598  0.00  0.00    +0.000 OA
ATOM     26  H   UNL     1       7.317   3.332  18.906  0.00  0.00    +0.000 HD
ENDBRANCH  23  25
ENDBRANCH  16  23
TORSDOF 6
ENDMDL
MODEL 5
REMARK VINA RESULT:      -6.9      1.773      3.235
REMARK  Name = 
REMARK  7 active torsions:
REMARK  status: ('A' for Active; 'I' for Inactive)
REMARK    1  A    between atoms: C_1  and  C_2
REMARK    2  A    between atoms: C_2  and  C_3
REMARK    3  A    between atoms: C_3  and  O_4
REMARK    4  A    between atoms: O_4  and  C_5
REMARK    5  A    between atoms: C_5  and  C_7
REMARK    6  A    between atoms: C_22  and  C_23
REMARK    7  A    between atoms: C_23  and  O_25
REMARK                            x       y       z     vdW  Elec       q    Type
REMARK                         _______ _______ _______ _____ _____    ______ ____
ROOT
ATOM      1  C   UNL     1       4.916   6.222  17.692  0.00  0.00    +0.000 C 
ATOM      2  C   UNL     1       3.410   6.085  17.290  0.00  0.00    +0.000 C 
ATOM      3  C   UNL     1       2.650   7.058  18.189  0.00  0.00    +0.000 A 
ATOM      4  C   UNL     1       1.823   8.082  17.755  0.00  0.00    +0.000 A 
ATOM      5  C   UNL     1       1.136   8.830  18.711  0.00  0.00    +0.000 A 
ATOM      6  C   UNL     1       1.282   8.555  20.080  0.00  0.00    +0.000 A 
ATOM      7  C   UNL     1       2.120   7.528  20.523  0.00  0.00    +0.000 A 
ATOM      8  C   UNL     1       2.806   6.781  19.576  0.00  0.00    +0.000 A 
ATOM      9  C   UNL     1       3.723   5.581  19.863  0.00  0.00    +0.000 C 
ATOM     10  C   UNL     1       3.155   4.404  19.068  0.00  0.00    +0.000 A 
ATOM     11  C   UNL     1       2.871   3.144  19.576  0.00  0.00    +0.000 A 
ATOM     12  C   UNL     1       2.385   2.166  18.707  0.00  0.00    +0.000 A 
ATOM     13  C   UNL     1       2.162   2.454  17.352  0.00  0.00    +0.000 A 
ATOM     14  C   UNL     1       2.431   3.724  16.840  0.00  0.00    +0.000 A 
ATOM     15  C   UNL     1       2.945   4.690  17.698  0.00  0.00    +0.000 A 
ATOM     16  C   UNL     1       5.096   5.974  19.227  0.00  0.00    +0.000 C 
ENDROOT
BRANCH   1  17
ATOM     17  C   UNL     1       5.799   5.416  16.754  0.00  0.00    +0.000 C 
ATOM     18  O   UNL     1       5.492   4.295  16.369  0.00  0.00    +0.000 OA
BRANCH  17  19
ATOM     19  O   UNL     1       6.957   6.047  16.471  0.00  0.00    +0.000 OA
BRANCH  19  20
ATOM     20  C   UNL     1       7.053   7.448  16.759  0.00  0.00    +0.000 C 
BRANCH  20  22
ATOM     21  C   UNL     1       8.306   9.197  18.097  0.00  0.00    +0.000 C 
ATOM     22  C   UNL     1       8.069   7.712  17.859  0.00  0.00    +0.000 C 
ENDBRANCH  20  22
ENDBRANCH  19  20
ENDBRANCH  17  19
ENDBRANCH   1  17
BRANCH  16  23
ATOM     23  C   UNL     1       6.204   5.013  19.605  0.00  0.00    +0.000 C 
ATOM     24  O   UNL     1       7.246   5.319  20.157  0.00  0.00    +0.000 OA
BRANCH  23  25
ATOM     25  O   UNL     1       5.967   3.750  19.187  0.00  0.00    +0.000 OA
ATOM     26  H   UNL     1       5.044   3.538  18.944  0.00  0.00    +0.000 HD
ENDBRANCH  23  25
ENDBRANCH  16  23
TORSDOF 6
ENDMDL
MODEL 6
REMARK VINA RESULT:      -6.7      2.315      5.489
REMARK  Name = 
REMARK  7 active torsions:
REMARK  status: ('A' for Active; 'I' for Inactive)
REMARK    1  A    between atoms: C_1  and  C_2
REMARK    2  A    between atoms: C_2  and  C_3
REMARK    3  A    between atoms: C_3  and  O_4
REMARK    4  A    between atoms: O_4  and  C_5
REMARK    5  A    between atoms: C_5  and  C_7
REMARK    6  A    between atoms: C_22  and  C_23
REMARK    7  A    between atoms: C_23  and  O_25
REMARK                            x       y       z     vdW  Elec       q    Type
REMARK                         _______ _______ _______ _____ _____    ______ ____
ROOT
ATOM      1  C   UNL     1       4.090   4.574  17.125  0.00  0.00    +0.000 C 
ATOM      2  C   UNL     1       4.238   5.182  18.559  0.00  0.00    +0.000 C 
ATOM      3  C   UNL     1       3.330   6.410  18.586  0.00  0.00    +0.000 A 
ATOM      4  C   UNL     1       2.303   6.637  19.488  0.00  0.00    +0.000 A 
ATOM      5  C   UNL     1       1.622   7.852  19.426  0.00  0.00    +0.000 A 
ATOM      6  C   UNL     1       1.966   8.820  18.469  0.00  0.00    +0.000 A 
ATOM      7  C   UNL     1       2.996   8.594  17.553  0.00  0.00    +0.000 A 
ATOM      8  C   UNL     1       3.677   7.387  17.610  0.00  0.00    +0.000 A 
ATOM      9  C   UNL     1       4.870   6.979  16.732  0.00  0.00    +0.000 C 
ATOM     10  C   UNL     1       6.016   6.642  17.687  0.00  0.00    +0.000 A 
ATOM     11  C   UNL     1       7.306   7.147  17.616  0.00  0.00    +0.000 A 
ATOM     12  C   UNL     1       8.247   6.712  18.551  0.00  0.00    +0.000 A 
ATOM     13  C   UNL     1       7.894   5.803  19.559  0.00  0.00    +0.000 A 
ATOM     14  C   UNL     1       6.593   5.305  19.643  0.00  0.00    +0.000 A 
ATOM     15  C   UNL     1       5.663   5.713  18.695  0.00  0.00    +0.000 A 
ATOM     16  C   UNL     1       4.414   5.653  16.039  0.00  0.00    +0.000 C 
ENDROOT
BRANCH   1  17
ATOM     17  C   UNL     1       4.827   3.249  17.024  0.00  0.00    +0.000 C 
ATOM     18  O   UNL     1       5.860   3.123  16.378  0.00  0.00    +0.000 OA
BRANCH  17  19
ATOM     19  O   UNL     1       4.176   2.251  17.656  0.00  0.00    +0.000 OA
BRANCH  19  20
ATOM     20  C   UNL     1       2.746   2.209  17.563  0.00  0.00    +0.000 C 
BRANCH  20  22
ATOM     21  C   UNL     1       1.127   3.115  19.288  0.00  0.00    +0.000 C 
ATOM     22  C   UNL     1       2.115   2.012  18.932  0.00  0.00    +0.000 C 
ENDBRANCH  20  22
ENDBRANCH  19  20
ENDBRANCH  17  19
ENDBRANCH   1  17
BRANCH  16  23
ATOM     23  C   UNL     1       5.370   5.213  14.950  0.00  0.00    +0.000 C 
ATOM     24  O   UNL     1       6.487   5.663  14.767  0.00  0.00    +0.000 OA
BRANCH  23  25
ATOM     25  O   UNL     1       4.827   4.302  14.113  0.00  0.00    +0.000 OA
ATOM     26  H   UNL     1       4.904   3.365  14.379  0.00  0.00    +0.000 HD
ENDBRANCH  23  25
ENDBRANCH  16  23
TORSDOF 6
ENDMDL
MODEL 7
REMARK VINA RESULT:      -6.6      6.608      9.492
REMARK  Name = 
REMARK  7 active torsions:
REMARK  status: ('A' for Active; 'I' for Inactive)
REMARK    1  A    between atoms: C_1  and  C_2
REMARK    2  A    between atoms: C_2  and  C_3
REMARK    3  A    between atoms: C_3  and  O_4
REMARK    4  A    between atoms: O_4  and  C_5
REMARK    5  A    between atoms: C_5  and  C_7
REMARK    6  A    between atoms: C_22  and  C_23
REMARK    7  A    between atoms: C_23  and  O_25
REMARK                            x       y       z     vdW  Elec       q    Type
REMARK                         _______ _______ _______ _____ _____    ______ ____
ROOT
ATOM      1  C   UNL     1       0.907  10.649  20.711  0.00  0.00    +0.000 C 
ATOM      2  C   UNL     1       0.877  10.918  19.170  0.00  0.00    +0.000 C 
ATOM      3  C   UNL     1       1.430  12.330  18.984  0.00  0.00    +0.000 A 
ATOM      4  C   UNL     1       2.514  12.676  18.193  0.00  0.00    +0.000 A 
ATOM      5  C   UNL     1       2.839  14.027  18.067  0.00  0.00    +0.000 A 
ATOM      6  C   UNL     1       2.087  15.010  18.728  0.00  0.00    +0.000 A 
ATOM      7  C   UNL     1       0.997  14.667  19.532  0.00  0.00    +0.000 A 
ATOM      8  C   UNL     1       0.670  13.324  19.661  0.00  0.00    +0.000 A 
ATOM      9  C   UNL     1      -0.521  12.756  20.449  0.00  0.00    +0.000 C 
ATOM     10  C   UNL     1      -1.345  11.935  19.455  0.00  0.00    +0.000 A 
ATOM     11  C   UNL     1      -2.711  12.050  19.243  0.00  0.00    +0.000 A 
ATOM     12  C   UNL     1      -3.319  11.200  18.318  0.00  0.00    +0.000 A 
ATOM     13  C   UNL     1      -2.564  10.265  17.596  0.00  0.00    +0.000 A 
ATOM     14  C   UNL     1      -1.187  10.157  17.793  0.00  0.00    +0.000 A 
ATOM     15  C   UNL     1      -0.585  10.981  18.737  0.00  0.00    +0.000 A 
ATOM     16  C   UNL     1       0.122  11.767  21.475  0.00  0.00    +0.000 C 
ENDROOT
BRANCH   1  17
ATOM     17  C   UNL     1       0.528   9.209  21.014  0.00  0.00    +0.000 C 
ATOM     18  O   UNL     1      -0.638   8.844  21.101  0.00  0.00    +0.000 OA
BRANCH  17  19
ATOM     19  O   UNL     1       1.607   8.431  21.236  0.00  0.00    +0.000 OA
BRANCH  19  20
ATOM     20  C   UNL     1       1.746   7.230  20.466  0.00  0.00    +0.000 C 
BRANCH  20  22
ATOM     21  C   UNL     1       2.507   6.271  18.248  0.00  0.00    +0.000 C 
ATOM     22  C   UNL     1       2.332   7.524  19.094  0.00  0.00    +0.000 C 
ENDBRANCH  20  22
ENDBRANCH  19  20
ENDBRANCH  17  19
ENDBRANCH   1  17
BRANCH  16  23
ATOM     23  C   UNL     1      -0.875  11.274  22.504  0.00  0.00    +0.000 C 
ATOM     24  O   UNL     1      -2.061  11.554  22.528  0.00  0.00    +0.000 OA
BRANCH  23  25
ATOM     25  O   UNL     1      -0.301  10.537  23.479  0.00  0.00    +0.000 OA
ATOM     26  H   UNL     1       0.372  10.988  24.027  0.00  0.00    +0.000 HD
ENDBRANCH  23  25
ENDBRANCH  16  23
TORSDOF 6
ENDMDL
MODEL 8
REMARK VINA RESULT:      -6.4      7.962      9.861
REMARK  Name = 
REMARK  7 active torsions:
REMARK  status: ('A' for Active; 'I' for Inactive)
REMARK    1  A    between atoms: C_1  and  C_2
REMARK    2  A    between atoms: C_2  and  C_3
REMARK    3  A    between atoms: C_3  and  O_4
REMARK    4  A    between atoms: O_4  and  C_5
REMARK    5  A    between atoms: C_5  and  C_7
REMARK    6  A    between atoms: C_22  and  C_23
REMARK    7  A    between atoms: C_23  and  O_25
REMARK                            x       y       z     vdW  Elec       q    Type
REMARK                         _______ _______ _______ _____ _____    ______ ____
ROOT
ATOM      1  C   UNL     1       0.261  12.593  18.747  0.00  0.00    +0.000 C 
ATOM      2  C   UNL     1      -0.084  11.074  18.894  0.00  0.00    +0.000 C 
ATOM      3  C   UNL     1      -1.442  10.891  18.218  0.00  0.00    +0.000 A 
ATOM      4  C   UNL     1      -1.718  10.011  17.183  0.00  0.00    +0.000 A 
ATOM      5  C   UNL     1      -3.034   9.906  16.734  0.00  0.00    +0.000 A 
ATOM      6  C   UNL     1      -4.054  10.677  17.315  0.00  0.00    +0.000 A 
ATOM      7  C   UNL     1      -3.780  11.570  18.354  0.00  0.00    +0.000 A 
ATOM      8  C   UNL     1      -2.473  11.678  18.804  0.00  0.00    +0.000 A 
ATOM      9  C   UNL     1      -1.987  12.556  19.968  0.00  0.00    +0.000 C 
ATOM     10  C   UNL     1      -1.302  11.617  20.962  0.00  0.00    +0.000 A 
ATOM     11  C   UNL     1      -1.562  11.546  22.323  0.00  0.00    +0.000 A 
ATOM     12  C   UNL     1      -0.823  10.653  23.100  0.00  0.00    +0.000 A 
ATOM     13  C   UNL     1       0.146   9.823  22.517  0.00  0.00    +0.000 A 
ATOM     14  C   UNL     1       0.399   9.879  21.146  0.00  0.00    +0.000 A 
ATOM     15  C   UNL     1      -0.313  10.790  20.376  0.00  0.00    +0.000 A 
ATOM     16  C   UNL     1      -0.889  13.474  19.337  0.00  0.00    +0.000 C 
ENDROOT
BRANCH   1  17
ATOM     17  C   UNL     1       1.670  12.875  19.243  0.00  0.00    +0.000 C 
ATOM     18  O   UNL     1       1.996  12.715  20.412  0.00  0.00    +0.000 OA
BRANCH  17  19
ATOM     19  O   UNL     1       2.464  13.374  18.274  0.00  0.00    +0.000 OA
BRANCH  19  20
ATOM     20  C   UNL     1       3.507  14.281  18.653  0.00  0.00    +0.000 C 
BRANCH  20  22
ATOM     21  C   UNL     1       3.032  16.543  17.617  0.00  0.00    +0.000 C 
ATOM     22  C   UNL     1       3.828  15.248  17.525  0.00  0.00    +0.000 C 
ENDBRANCH  20  22
ENDBRANCH  19  20
ENDBRANCH  17  19
ENDBRANCH   1  17
BRANCH  16  23
ATOM     23  C   UNL     1      -0.448  14.576  20.278  0.00  0.00    +0.000 C 
ATOM     24  O   UNL     1      -0.865  14.746  21.411  0.00  0.00    +0.000 OA
BRANCH  23  25
ATOM     25  O   UNL     1       0.419  15.439  19.705  0.00  0.00    +0.000 OA
ATOM     26  H   UNL     1       1.321  15.463  20.079  0.00  0.00    +0.000 HD
ENDBRANCH  23  25
ENDBRANCH  16  23
TORSDOF 6
ENDMDL
MODEL 9
REMARK VINA RESULT:      -6.3      8.204     10.712
REMARK  Name = 
REMARK  7 active torsions:
REMARK  status: ('A' for Active; 'I' for Inactive)
REMARK    1  A    between atoms: C_1  and  C_2
REMARK    2  A    between atoms: C_2  and  C_3
REMARK    3  A    between atoms: C_3  and  O_4
REMARK    4  A    between atoms: O_4  and  C_5
REMARK    5  A    between atoms: C_5  and  C_7
REMARK    6  A    between atoms: C_22  and  C_23
REMARK    7  A    between atoms: C_23  and  O_25
REMARK                            x       y       z     vdW  Elec       q    Type
REMARK                         _______ _______ _______ _____ _____    ______ ____
ROOT
ATOM      1  C   UNL     1      -1.793  11.842  21.073  0.00  0.00    +0.000 C 
ATOM      2  C   UNL     1      -2.029  12.699  19.786  0.00  0.00    +0.000 C 
ATOM      3  C   UNL     1      -2.412  11.706  18.690  0.00  0.00    +0.000 A 
ATOM      4  C   UNL     1      -3.573  11.744  17.934  0.00  0.00    +0.000 A 
ATOM      5  C   UNL     1      -3.731  10.807  16.913  0.00  0.00    +0.000 A 
ATOM      6  C   UNL     1      -2.739   9.846  16.661  0.00  0.00    +0.000 A 
ATOM      7  C   UNL     1      -1.570   9.798  17.425  0.00  0.00    +0.000 A 
ATOM      8  C   UNL     1      -1.408  10.728  18.441  0.00  0.00    +0.000 A 
ATOM      9  C   UNL     1      -0.174  10.873  19.346  0.00  0.00    +0.000 C 
ATOM     10  C   UNL     1       0.323  12.309  19.174  0.00  0.00    +0.000 A 
ATOM     11  C   UNL     1       1.624  12.689  18.880  0.00  0.00    +0.000 A 
ATOM     12  C   UNL     1       1.921  14.049  18.788  0.00  0.00    +0.000 A 
ATOM     13  C   UNL     1       0.920  15.017  18.963  0.00  0.00    +0.000 A 
ATOM     14  C   UNL     1      -0.393  14.640  19.242  0.00  0.00    +0.000 A 
ATOM     15  C   UNL     1      -0.684  13.286  19.366  0.00  0.00    +0.000 A 
ATOM     16  C   UNL     1      -0.731  10.725  20.799  0.00  0.00    +0.000 C 
ENDROOT
BRANCH   1  17
ATOM     17  C   UNL     1      -1.560  12.736  22.280  0.00  0.00    +0.000 C 
ATOM     18  O   UNL     1      -0.567  13.444  22.386  0.00  0.00    +0.000 OA
BRANCH  17  19
ATOM     19  O   UNL     1      -2.521  12.595  23.215  0.00  0.00    +0.000 OA
BRANCH  19  20
ATOM     20  C   UNL     1      -3.526  13.613  23.312  0.00  0.00    +0.000 C 
BRANCH  20  22
ATOM     21  C   UNL     1      -5.291  12.817  21.679  0.00  0.00    +0.000 C 
ATOM     22  C   UNL     1      -4.917  13.025  23.140  0.00  0.00    +0.000 C 
ENDBRANCH  20  22
ENDBRANCH  19  20
ENDBRANCH  17  19
ENDBRANCH   1  17
BRANCH  16  23
ATOM     23  C   UNL     1       0.372  10.609  21.831  0.00  0.00    +0.000 C 
ATOM     24  O   UNL     1       1.563  10.532  21.586  0.00  0.00    +0.000 OA
BRANCH  23  25
ATOM     25  O   UNL     1      -0.100  10.510  23.093  0.00  0.00    +0.000 OA
ATOM     26  H   UNL     1      -0.787  11.155  23.354  0.00  0.00    +0.000 HD
ENDBRANCH  23  25
ENDBRANCH  16  23
TORSDOF 6
ENDMDL
