MODEL 1
REMARK VINA RESULT:      -7.8      0.000      0.000
REMARK  Name = 
REMARK  11 active torsions:
REMARK  status: ('A' for Active; 'I' for Inactive)
REMARK    1  A    between atoms: C_1  and  C_2
REMARK    2  A    between atoms: C_5  and  N_6
REMARK    3  A    between atoms: N_6  and  S_7
REMARK    4  A    between atoms: S_7  and  C_10
REMARK    5  A    between atoms: C_11  and  C_12
REMARK    6  A    between atoms: N_14  and  C_15
REMARK    7  A    between atoms: C_15  and  C_16
REMARK    8  A    between atoms: C_16  and  C_17
REMARK    9  A    between atoms: C_16  and  C_18
REMARK   10  A    between atoms: C_19  and  C_20
REMARK   11  A    between atoms: C_21  and  C_22
REMARK                            x       y       z     vdW  Elec       q    Type
REMARK                         _______ _______ _______ _____ _____    ______ ____
ROOT
ATOM      1  S   UNL     1       6.473   5.500  18.602  0.00  0.00    +0.000 S 
ATOM      2  O   UNL     1       6.766   5.342  20.008  0.00  0.00    +0.000 OA
ATOM      3  O   UNL     1       6.688   6.763  17.928  0.00  0.00    +0.000 OA
ENDROOT
BRANCH   1   4
ATOM      4  C   UNL     1       4.771   5.202  18.421  0.00  0.00    +0.000 A 
ATOM      5  C   UNL     1       3.804   6.056  17.839  0.00  0.00    +0.000 A 
ATOM      6  C   UNL     1       3.937   7.372  17.162  0.00  0.00    +0.000 C 
ATOM      7  N   UNL     1       2.575   5.545  17.972  0.00  0.00    +0.000 NA
ATOM      8  N   UNL     1       2.742   4.376  18.618  0.00  0.00    +0.000 N 
ATOM      9  C   UNL     1       4.059   4.099  18.889  0.00  0.00    +0.000 A 
ATOM     10  C   UNL     1       4.563   2.862  19.542  0.00  0.00    +0.000 C 
BRANCH   8  11
ATOM     11  C   UNL     1       1.539   3.647  19.011  0.00  0.00    +0.000 C 
BRANCH  11  12
ATOM     12  C   UNL     1       1.048   3.953  20.440  0.00  0.00    +0.000 C 
ATOM     13  C   UNL     1       1.399   2.832  21.419  0.00  0.00    +0.000 C 
ATOM     14  C   UNL     1       1.636   5.275  20.950  0.00  0.00    +0.000 C 
ENDBRANCH  11  12
ENDBRANCH   8  11
ENDBRANCH   1   4
BRANCH   1  15
ATOM     15  N   UNL     1       7.307   4.330  17.686  0.00  0.00    +0.000 N 
ATOM     16  H   UNL     1       8.294   4.440  17.914  0.00  0.00    +0.000 HD
BRANCH  15  21
ATOM     17  C   UNL     1       5.618   4.015  12.980  0.00  0.00    +0.000 C 
ATOM     18  C   UNL     1       6.348   4.348  14.225  0.00  0.00    +0.000 A 
ATOM     19  N   UNL     1       7.309   5.280  14.215  0.00  0.00    +0.000 NA
ATOM     20  O   UNL     1       7.788   5.336  15.508  0.00  0.00    +0.000 OA
ATOM     21  C   UNL     1       7.079   4.484  16.293  0.00  0.00    +0.000 A 
ATOM     22  C   UNL     1       6.180   3.783  15.521  0.00  0.00    +0.000 A 
ATOM     23  C   UNL     1       5.266   2.690  15.917  0.00  0.00    +0.000 C 
ENDBRANCH  15  21
ENDBRANCH   1  15
TORSDOF 5
ENDMDL
MODEL 2
REMARK VINA RESULT:      -7.5      2.928      4.427
REMARK  Name = 
REMARK  11 active torsions:
REMARK  status: ('A' for Active; 'I' for Inactive)
REMARK    1  A    between atoms: C_1  and  C_2
REMARK    2  A    between atoms: C_5  and  N_6
REMARK    3  A    between atoms: N_6  and  S_7
REMARK    4  A    between atoms: S_7  and  C_10
REMARK    5  A    between atoms: C_11  and  C_12
REMARK    6  A    between atoms: N_14  and  C_15
REMARK    7  A    between atoms: C_15  and  C_16
REMARK    8  A    between atoms: C_16  and  C_17
REMARK    9  A    between atoms: C_16  and  C_18
REMARK   10  A    between atoms: C_19  and  C_20
REMARK   11  A    between atoms: C_21  and  C_22
REMARK                            x       y       z     vdW  Elec       q    Type
REMARK                         _______ _______ _______ _____ _____    ______ ____
ROOT
ATOM      1  S   UNL     1       2.612   3.164  18.126  0.00  0.00    +0.000 S 
ATOM      2  O   UNL     1       2.384   3.643  16.782  0.00  0.00    +0.000 OA
ATOM      3  O   UNL     1       1.786   2.124  18.703  0.00  0.00    +0.000 OA
ENDROOT
BRANCH   1   4
ATOM      4  C   UNL     1       2.384   4.527  19.178  0.00  0.00    +0.000 A 
ATOM      5  C   UNL     1       1.967   4.512  20.529  0.00  0.00    +0.000 A 
ATOM      6  C   UNL     1       1.681   3.386  21.456  0.00  0.00    +0.000 C 
ATOM      7  N   UNL     1       1.795   5.756  20.989  0.00  0.00    +0.000 NA
ATOM      8  N   UNL     1       2.107   6.564  19.959  0.00  0.00    +0.000 N 
ATOM      9  C   UNL     1       2.504   5.874  18.841  0.00  0.00    +0.000 A 
ATOM     10  C   UNL     1       2.960   6.488  17.566  0.00  0.00    +0.000 C 
BRANCH   8  11
ATOM     11  C   UNL     1       1.892   7.998  20.140  0.00  0.00    +0.000 C 
BRANCH  11  12
ATOM     12  C   UNL     1       0.836   8.353  21.205  0.00  0.00    +0.000 C 
ATOM     13  C   UNL     1       1.456   9.046  22.420  0.00  0.00    +0.000 C 
ATOM     14  C   UNL     1      -0.260   9.249  20.614  0.00  0.00    +0.000 C 
ENDBRANCH  11  12
ENDBRANCH   8  11
ENDBRANCH   1   4
BRANCH   1  15
ATOM     15  N   UNL     1       4.223   2.634  18.301  0.00  0.00    +0.000 N 
ATOM     16  H   UNL     1       4.231   2.006  19.105  0.00  0.00    +0.000 HD
BRANCH  15  21
ATOM     17  C   UNL     1       7.377   6.481  17.700  0.00  0.00    +0.000 C 
ATOM     18  C   UNL     1       6.510   5.403  18.231  0.00  0.00    +0.000 A 
ATOM     19  N   UNL     1       6.364   5.242  19.552  0.00  0.00    +0.000 NA
ATOM     20  O   UNL     1       5.520   4.161  19.706  0.00  0.00    +0.000 OA
ATOM     21  C   UNL     1       5.122   3.718  18.485  0.00  0.00    +0.000 A 
ATOM     22  C   UNL     1       5.763   4.435  17.501  0.00  0.00    +0.000 A 
ATOM     23  C   UNL     1       5.718   4.249  16.034  0.00  0.00    +0.000 C 
ENDBRANCH  15  21
ENDBRANCH   1  15
TORSDOF 5
ENDMDL
MODEL 3
REMARK VINA RESULT:      -7.4      1.395      1.888
REMARK  Name = 
REMARK  11 active torsions:
REMARK  status: ('A' for Active; 'I' for Inactive)
REMARK    1  A    between atoms: C_1  and  C_2
REMARK    2  A    between atoms: C_5  and  N_6
REMARK    3  A    between atoms: N_6  and  S_7
REMARK    4  A    between atoms: S_7  and  C_10
REMARK    5  A    between atoms: C_11  and  C_12
REMARK    6  A    between atoms: N_14  and  C_15
REMARK    7  A    between atoms: C_15  and  C_16
REMARK    8  A    between atoms: C_16  and  C_17
REMARK    9  A    between atoms: C_16  and  C_18
REMARK   10  A    between atoms: C_19  and  C_20
REMARK   11  A    between atoms: C_21  and  C_22
REMARK                            x       y       z     vdW  Elec       q    Type
REMARK                         _______ _______ _______ _____ _____    ______ ____
ROOT
ATOM      1  S   UNL     1       5.372   6.476  17.017  0.00  0.00    +0.000 S 
ATOM      2  O   UNL     1       6.434   7.123  17.751  0.00  0.00    +0.000 OA
ATOM      3  O   UNL     1       4.744   7.118  15.881  0.00  0.00    +0.000 OA
ENDROOT
BRANCH   1   4
ATOM      4  C   UNL     1       4.073   6.236  18.146  0.00  0.00    +0.000 A 
ATOM      5  C   UNL     1       2.942   7.062  18.345  0.00  0.00    +0.000 A 
ATOM      6  C   UNL     1       2.485   8.288  17.640  0.00  0.00    +0.000 C 
ATOM      7  N   UNL     1       2.208   6.624  19.374  0.00  0.00    +0.000 NA
ATOM      8  N   UNL     1       2.844   5.529  19.826  0.00  0.00    +0.000 N 
ATOM      9  C   UNL     1       3.967   5.225  19.098  0.00  0.00    +0.000 A 
ATOM     10  C   UNL     1       4.847   4.047  19.322  0.00  0.00    +0.000 C 
BRANCH   8  11
ATOM     11  C   UNL     1       2.325   4.902  21.040  0.00  0.00    +0.000 C 
BRANCH  11  12
ATOM     12  C   UNL     1       1.251   3.824  20.788  0.00  0.00    +0.000 C 
ATOM     13  C   UNL     1       1.099   3.502  19.301  0.00  0.00    +0.000 C 
ATOM     14  C   UNL     1       1.575   2.537  21.557  0.00  0.00    +0.000 C 
ENDBRANCH  11  12
ENDBRANCH   8  11
ENDBRANCH   1   4
BRANCH   1  15
ATOM     15  N   UNL     1       5.876   4.943  16.470  0.00  0.00    +0.000 N 
ATOM     16  H   UNL     1       6.464   4.556  17.207  0.00  0.00    +0.000 HD
BRANCH  15  21
ATOM     17  C   UNL     1       7.397   4.543  11.712  0.00  0.00    +0.000 C 
ATOM     18  C   UNL     1       7.257   4.848  13.155  0.00  0.00    +0.000 A 
ATOM     19  N   UNL     1       8.170   5.606  13.776  0.00  0.00    +0.000 NA
ATOM     20  O   UNL     1       7.758   5.683  15.091  0.00  0.00    +0.000 OA
ATOM     21  C   UNL     1       6.581   5.023  15.239  0.00  0.00    +0.000 A 
ATOM     22  C   UNL     1       6.235   4.422  14.049  0.00  0.00    +0.000 A 
ATOM     23  C   UNL     1       5.094   3.527  13.755  0.00  0.00    +0.000 C 
ENDBRANCH  15  21
ENDBRANCH   1  15
TORSDOF 5
ENDMDL
MODEL 4
REMARK VINA RESULT:      -7.4      1.707      2.487
REMARK  Name = 
REMARK  11 active torsions:
REMARK  status: ('A' for Active; 'I' for Inactive)
REMARK    1  A    between atoms: C_1  and  C_2
REMARK    2  A    between atoms: C_5  and  N_6
REMARK    3  A    between atoms: N_6  and  S_7
REMARK    4  A    between atoms: S_7  and  C_10
REMARK    5  A    between atoms: C_11  and  C_12
REMARK    6  A    between atoms: N_14  and  C_15
REMARK    7  A    between atoms: C_15  and  C_16
REMARK    8  A    between atoms: C_16  and  C_17
REMARK    9  A    between atoms: C_16  and  C_18
REMARK   10  A    between atoms: C_19  and  C_20
REMARK   11  A    between atoms: C_21  and  C_22
REMARK                            x       y       z     vdW  Elec       q    Type
REMARK                         _______ _______ _______ _____ _____    ______ ____
ROOT
ATOM      1  S   UNL     1       6.368   6.792  16.610  0.00  0.00    +0.000 S 
ATOM      2  O   UNL     1       7.002   8.019  17.033  0.00  0.00    +0.000 OA
ATOM      3  O   UNL     1       5.348   6.790  15.582  0.00  0.00    +0.000 OA
ENDROOT
BRANCH   1   4
ATOM      4  C   UNL     1       5.567   6.147  18.011  0.00  0.00    +0.000 A 
ATOM      5  C   UNL     1       6.148   5.418  19.075  0.00  0.00    +0.000 A 
ATOM      6  C   UNL     1       7.561   5.058  19.362  0.00  0.00    +0.000 C 
ATOM      7  N   UNL     1       5.210   4.987  19.925  0.00  0.00    +0.000 NA
ATOM      8  N   UNL     1       4.043   5.437  19.428  0.00  0.00    +0.000 N 
ATOM      9  C   UNL     1       4.201   6.177  18.282  0.00  0.00    +0.000 A 
ATOM     10  C   UNL     1       3.107   6.850  17.533  0.00  0.00    +0.000 C 
BRANCH   8  11
ATOM     11  C   UNL     1       2.817   5.009  20.097  0.00  0.00    +0.000 C 
BRANCH  11  12
ATOM     12  C   UNL     1       2.527   3.499  19.985  0.00  0.00    +0.000 C 
ATOM     13  C   UNL     1       2.408   2.835  21.358  0.00  0.00    +0.000 C 
ATOM     14  C   UNL     1       1.244   3.244  19.185  0.00  0.00    +0.000 C 
ENDBRANCH  11  12
ENDBRANCH   8  11
ENDBRANCH   1   4
BRANCH   1  15
ATOM     15  N   UNL     1       7.539   5.660  16.112  0.00  0.00    +0.000 N 
ATOM     16  H   UNL     1       8.432   6.151  16.116  0.00  0.00    +0.000 HD
BRANCH  15  21
ATOM     17  C   UNL     1       5.702   3.092  12.221  0.00  0.00    +0.000 C 
ATOM     18  C   UNL     1       6.455   4.002  13.115  0.00  0.00    +0.000 A 
ATOM     19  N   UNL     1       7.355   4.853  12.609  0.00  0.00    +0.000 NA
ATOM     20  O   UNL     1       7.877   5.532  13.691  0.00  0.00    +0.000 OA
ATOM     21  C   UNL     1       7.252   5.127  14.827  0.00  0.00    +0.000 A 
ATOM     22  C   UNL     1       6.370   4.112  14.532  0.00  0.00    +0.000 A 
ATOM     23  C   UNL     1       5.540   3.303  15.452  0.00  0.00    +0.000 C 
ENDBRANCH  15  21
ENDBRANCH   1  15
TORSDOF 5
ENDMDL
MODEL 5
REMARK VINA RESULT:      -7.4      1.971      5.521
REMARK  Name = 
REMARK  11 active torsions:
REMARK  status: ('A' for Active; 'I' for Inactive)
REMARK    1  A    between atoms: C_1  and  C_2
REMARK    2  A    between atoms: C_5  and  N_6
REMARK    3  A    between atoms: N_6  and  S_7
REMARK    4  A    between atoms: S_7  and  C_10
REMARK    5  A    between atoms: C_11  and  C_12
REMARK    6  A    between atoms: N_14  and  C_15
REMARK    7  A    between atoms: C_15  and  C_16
REMARK    8  A    between atoms: C_16  and  C_17
REMARK    9  A    between atoms: C_16  and  C_18
REMARK   10  A    between atoms: C_19  and  C_20
REMARK   11  A    between atoms: C_21  and  C_22
REMARK                            x       y       z     vdW  Elec       q    Type
REMARK                         _______ _______ _______ _____ _____    ______ ____
ROOT
ATOM      1  S   UNL     1       5.471   5.131  19.275  0.00  0.00    +0.000 S 
ATOM      2  O   UNL     1       4.272   5.802  19.721  0.00  0.00    +0.000 OA
ATOM      3  O   UNL     1       6.754   5.397  19.890  0.00  0.00    +0.000 OA
ENDROOT
BRANCH   1   4
ATOM      4  C   UNL     1       5.692   5.577  17.611  0.00  0.00    +0.000 A 
ATOM      5  C   UNL     1       4.871   6.424  16.830  0.00  0.00    +0.000 A 
ATOM      6  C   UNL     1       3.667   7.222  17.183  0.00  0.00    +0.000 C 
ATOM      7  N   UNL     1       5.287   6.453  15.560  0.00  0.00    +0.000 NA
ATOM      8  N   UNL     1       6.366   5.650  15.518  0.00  0.00    +0.000 N 
ATOM      9  C   UNL     1       6.679   5.114  16.743  0.00  0.00    +0.000 A 
ATOM     10  C   UNL     1       7.844   4.234  17.026  0.00  0.00    +0.000 C 
BRANCH   8  11
ATOM     11  C   UNL     1       6.965   5.394  14.211  0.00  0.00    +0.000 C 
BRANCH  11  12
ATOM     12  C   UNL     1       6.572   4.040  13.586  0.00  0.00    +0.000 C 
ATOM     13  C   UNL     1       5.059   3.817  13.607  0.00  0.00    +0.000 C 
ATOM     14  C   UNL     1       7.081   3.933  12.143  0.00  0.00    +0.000 C 
ENDBRANCH  11  12
ENDBRANCH   8  11
ENDBRANCH   1   4
BRANCH   1  15
ATOM     15  N   UNL     1       5.263   3.441  19.337  0.00  0.00    +0.000 N 
ATOM     16  H   UNL     1       6.010   3.039  18.771  0.00  0.00    +0.000 HD
BRANCH  15  21
ATOM     17  C   UNL     1       0.452   2.125  18.862  0.00  0.00    +0.000 C 
ATOM     18  C   UNL     1       1.878   2.461  18.643  0.00  0.00    +0.000 A 
ATOM     19  N   UNL     1       2.386   2.470  17.404  0.00  0.00    +0.000 NA
ATOM     20  O   UNL     1       3.718   2.802  17.551  0.00  0.00    +0.000 OA
ATOM     21  C   UNL     1       3.986   3.043  18.860  0.00  0.00    +0.000 A 
ATOM     22  C   UNL     1       2.863   2.790  19.616  0.00  0.00    +0.000 A 
ATOM     23  C   UNL     1       2.704   2.825  21.086  0.00  0.00    +0.000 C 
ENDBRANCH  15  21
ENDBRANCH   1  15
TORSDOF 5
ENDMDL
MODEL 6
REMARK VINA RESULT:      -7.3      1.730      2.445
REMARK  Name = 
REMARK  11 active torsions:
REMARK  status: ('A' for Active; 'I' for Inactive)
REMARK    1  A    between atoms: C_1  and  C_2
REMARK    2  A    between atoms: C_5  and  N_6
REMARK    3  A    between atoms: N_6  and  S_7
REMARK    4  A    between atoms: S_7  and  C_10
REMARK    5  A    between atoms: C_11  and  C_12
REMARK    6  A    between atoms: N_14  and  C_15
REMARK    7  A    between atoms: C_15  and  C_16
REMARK    8  A    between atoms: C_16  and  C_17
REMARK    9  A    between atoms: C_16  and  C_18
REMARK   10  A    between atoms: C_19  and  C_20
REMARK   11  A    between atoms: C_21  and  C_22
REMARK                            x       y       z     vdW  Elec       q    Type
REMARK                         _______ _______ _______ _____ _____    ______ ____
ROOT
ATOM      1  S   UNL     1       6.191   6.509  16.592  0.00  0.00    +0.000 S 
ATOM      2  O   UNL     1       6.637   7.784  17.105  0.00  0.00    +0.000 OA
ATOM      3  O   UNL     1       5.126   6.424  15.615  0.00  0.00    +0.000 OA
ENDROOT
BRANCH   1   4
ATOM      4  C   UNL     1       5.593   5.615  17.957  0.00  0.00    +0.000 A 
ATOM      5  C   UNL     1       6.296   5.273  19.136  0.00  0.00    +0.000 A 
ATOM      6  C   UNL     1       7.667   5.615  19.597  0.00  0.00    +0.000 C 
ATOM      7  N   UNL     1       5.552   4.486  19.922  0.00  0.00    +0.000 NA
ATOM      8  N   UNL     1       4.385   4.330  19.271  0.00  0.00    +0.000 N 
ATOM      9  C   UNL     1       4.340   5.020  18.085  0.00  0.00    +0.000 A 
ATOM     10  C   UNL     1       3.169   5.087  17.171  0.00  0.00    +0.000 C 
BRANCH   8  11
ATOM     11  C   UNL     1       3.411   3.407  19.847  0.00  0.00    +0.000 C 
BRANCH  11  12
ATOM     12  C   UNL     1       2.611   3.986  21.031  0.00  0.00    +0.000 C 
ATOM     13  C   UNL     1       1.856   5.259  20.646  0.00  0.00    +0.000 C 
ATOM     14  C   UNL     1       1.618   2.953  21.580  0.00  0.00    +0.000 C 
ENDBRANCH  11  12
ENDBRANCH   8  11
ENDBRANCH   1   4
BRANCH   1  15
ATOM     15  N   UNL     1       7.502   5.642  15.935  0.00  0.00    +0.000 N 
ATOM     16  H   UNL     1       8.281   6.298  15.881  0.00  0.00    +0.000 HD
BRANCH  15  21
ATOM     17  C   UNL     1       5.692   2.973  12.101  0.00  0.00    +0.000 C 
ATOM     18  C   UNL     1       6.410   3.933  12.971  0.00  0.00    +0.000 A 
ATOM     19  N   UNL     1       7.212   4.861  12.434  0.00  0.00    +0.000 NA
ATOM     20  O   UNL     1       7.729   5.569  13.500  0.00  0.00    +0.000 OA
ATOM     21  C   UNL     1       7.196   5.101  14.658  0.00  0.00    +0.000 A 
ATOM     22  C   UNL     1       6.387   4.020  14.391  0.00  0.00    +0.000 A 
ATOM     23  C   UNL     1       5.674   3.135  15.338  0.00  0.00    +0.000 C 
ENDBRANCH  15  21
ENDBRANCH   1  15
TORSDOF 5
ENDMDL
MODEL 7
REMARK VINA RESULT:      -7.3      2.018      5.935
REMARK  Name = 
REMARK  11 active torsions:
REMARK  status: ('A' for Active; 'I' for Inactive)
REMARK    1  A    between atoms: C_1  and  C_2
REMARK    2  A    between atoms: C_5  and  N_6
REMARK    3  A    between atoms: N_6  and  S_7
REMARK    4  A    between atoms: S_7  and  C_10
REMARK    5  A    between atoms: C_11  and  C_12
REMARK    6  A    between atoms: N_14  and  C_15
REMARK    7  A    between atoms: C_15  and  C_16
REMARK    8  A    between atoms: C_16  and  C_17
REMARK    9  A    between atoms: C_16  and  C_18
REMARK   10  A    between atoms: C_19  and  C_20
REMARK   11  A    between atoms: C_21  and  C_22
REMARK                            x       y       z     vdW  Elec       q    Type
REMARK                         _______ _______ _______ _____ _____    ______ ____
ROOT
ATOM      1  S   UNL     1       5.751   4.816  19.288  0.00  0.00    +0.000 S 
ATOM      2  O   UNL     1       6.842   5.474  19.969  0.00  0.00    +0.000 OA
ATOM      3  O   UNL     1       5.549   3.387  19.400  0.00  0.00    +0.000 OA
ENDROOT
BRANCH   1   4
ATOM      4  C   UNL     1       6.002   5.083  17.590  0.00  0.00    +0.000 A 
ATOM      5  C   UNL     1       6.718   6.140  16.981  0.00  0.00    +0.000 A 
ATOM      6  C   UNL     1       7.507   7.256  17.565  0.00  0.00    +0.000 C 
ATOM      7  N   UNL     1       6.609   6.084  15.649  0.00  0.00    +0.000 NA
ATOM      8  N   UNL     1       5.847   5.004  15.397  0.00  0.00    +0.000 N 
ATOM      9  C   UNL     1       5.475   4.336  16.538  0.00  0.00    +0.000 A 
ATOM     10  C   UNL     1       4.679   3.081  16.581  0.00  0.00    +0.000 C 
BRANCH   8  11
ATOM     11  C   UNL     1       5.458   4.762  14.010  0.00  0.00    +0.000 C 
BRANCH  11  12
ATOM     12  C   UNL     1       6.466   3.916  13.206  0.00  0.00    +0.000 C 
ATOM     13  C   UNL     1       5.773   3.042  12.159  0.00  0.00    +0.000 C 
ATOM     14  C   UNL     1       7.504   4.809  12.515  0.00  0.00    +0.000 C 
ENDBRANCH  11  12
ENDBRANCH   8  11
ENDBRANCH   1   4
BRANCH   1  15
ATOM     15  N   UNL     1       4.266   5.535  19.714  0.00  0.00    +0.000 N 
ATOM     16  H   UNL     1       4.429   6.031  20.590  0.00  0.00    +0.000 HD
BRANCH  15  21
ATOM     17  C   UNL     1       0.297   2.548  19.060  0.00  0.00    +0.000 C 
ATOM     18  C   UNL     1       1.487   3.263  19.575  0.00  0.00    +0.000 A 
ATOM     19  N   UNL     1       2.003   2.942  20.768  0.00  0.00    +0.000 NA
ATOM     20  O   UNL     1       3.075   3.792  20.952  0.00  0.00    +0.000 OA
ATOM     21  C   UNL     1       3.229   4.574  19.852  0.00  0.00    +0.000 A 
ATOM     22  C   UNL     1       2.212   4.322  18.959  0.00  0.00    +0.000 A 
ATOM     23  C   UNL     1       1.914   4.992  17.674  0.00  0.00    +0.000 C 
ENDBRANCH  15  21
ENDBRANCH   1  15
TORSDOF 5
ENDMDL
MODEL 8
REMARK VINA RESULT:      -7.2      1.917      2.888
REMARK  Name = 
REMARK  11 active torsions:
REMARK  status: ('A' for Active; 'I' for Inactive)
REMARK    1  A    between atoms: C_1  and  C_2
REMARK    2  A    between atoms: C_5  and  N_6
REMARK    3  A    between atoms: N_6  and  S_7
REMARK    4  A    between atoms: S_7  and  C_10
REMARK    5  A    between atoms: C_11  and  C_12
REMARK    6  A    between atoms: N_14  and  C_15
REMARK    7  A    between atoms: C_15  and  C_16
REMARK    8  A    between atoms: C_16  and  C_17
REMARK    9  A    between atoms: C_16  and  C_18
REMARK   10  A    between atoms: C_19  and  C_20
REMARK   11  A    between atoms: C_21  and  C_22
REMARK                            x       y       z     vdW  Elec       q    Type
REMARK                         _______ _______ _______ _____ _____    ______ ____
ROOT
ATOM      1  S   UNL     1       6.464   6.878  16.617  0.00  0.00    +0.000 S 
ATOM      2  O   UNL     1       7.171   8.042  17.098  0.00  0.00    +0.000 OA
ATOM      3  O   UNL     1       5.364   6.999  15.683  0.00  0.00    +0.000 OA
ENDROOT
BRANCH   1   4
ATOM      4  C   UNL     1       5.760   6.122  18.014  0.00  0.00    +0.000 A 
ATOM      5  C   UNL     1       6.432   5.436  19.052  0.00  0.00    +0.000 A 
ATOM      6  C   UNL     1       7.880   5.221  19.311  0.00  0.00    +0.000 C 
ATOM      7  N   UNL     1       5.559   4.890  19.905  0.00  0.00    +0.000 NA
ATOM      8  N   UNL     1       4.343   5.224  19.436  0.00  0.00    +0.000 N 
ATOM      9  C   UNL     1       4.403   6.001  18.306  0.00  0.00    +0.000 A 
ATOM     10  C   UNL     1       3.231   6.570  17.588  0.00  0.00    +0.000 C 
BRANCH   8  11
ATOM     11  C   UNL     1       3.180   4.654  20.112  0.00  0.00    +0.000 C 
BRANCH  11  12
ATOM     12  C   UNL     1       3.253   3.129  20.323  0.00  0.00    +0.000 C 
ATOM     13  C   UNL     1       2.295   2.655  21.418  0.00  0.00    +0.000 C 
ATOM     14  C   UNL     1       2.946   2.379  19.021  0.00  0.00    +0.000 C 
ENDBRANCH  11  12
ENDBRANCH   8  11
ENDBRANCH   1   4
BRANCH   1  15
ATOM     15  N   UNL     1       7.553   5.769  15.918  0.00  0.00    +0.000 N 
ATOM     16  H   UNL     1       8.261   6.326  15.441  0.00  0.00    +0.000 HD
BRANCH  15  21
ATOM     17  C   UNL     1       6.073   3.128  11.925  0.00  0.00    +0.000 C 
ATOM     18  C   UNL     1       6.247   3.721  13.272  0.00  0.00    +0.000 A 
ATOM     19  N   UNL     1       5.502   3.293  14.299  0.00  0.00    +0.000 NA
ATOM     20  O   UNL     1       5.896   4.049  15.385  0.00  0.00    +0.000 OA
ATOM     21  C   UNL     1       6.905   4.881  15.018  0.00  0.00    +0.000 A 
ATOM     22  C   UNL     1       7.139   4.758  13.667  0.00  0.00    +0.000 A 
ATOM     23  C   UNL     1       8.071   5.522  12.810  0.00  0.00    +0.000 C 
ENDBRANCH  15  21
ENDBRANCH   1  15
TORSDOF 5
ENDMDL
MODEL 9
REMARK VINA RESULT:      -7.1      1.463      1.777
REMARK  Name = 
REMARK  11 active torsions:
REMARK  status: ('A' for Active; 'I' for Inactive)
REMARK    1  A    between atoms: C_1  and  C_2
REMARK    2  A    between atoms: C_5  and  N_6
REMARK    3  A    between atoms: N_6  and  S_7
REMARK    4  A    between atoms: S_7  and  C_10
REMARK    5  A    between atoms: C_11  and  C_12
REMARK    6  A    between atoms: N_14  and  C_15
REMARK    7  A    between atoms: C_15  and  C_16
REMARK    8  A    between atoms: C_16  and  C_17
REMARK    9  A    between atoms: C_16  and  C_18
REMARK   10  A    between atoms: C_19  and  C_20
REMARK   11  A    between atoms: C_21  and  C_22
REMARK                            x       y       z     vdW  Elec       q    Type
REMARK                         _______ _______ _______ _____ _____    ______ ____
ROOT
ATOM      1  S   UNL     1       6.061   6.813  16.873  0.00  0.00    +0.000 S 
ATOM      2  O   UNL     1       6.732   7.849  17.625  0.00  0.00    +0.000 OA
ATOM      3  O   UNL     1       5.416   7.101  15.609  0.00  0.00    +0.000 OA
ENDROOT
BRANCH   1   4
ATOM      4  C   UNL     1       4.779   6.225  17.886  0.00  0.00    +0.000 A 
ATOM      5  C   UNL     1       3.511   6.814  18.100  0.00  0.00    +0.000 A 
ATOM      6  C   UNL     1       2.873   8.015  17.500  0.00  0.00    +0.000 C 
ATOM      7  N   UNL     1       2.823   6.141  19.028  0.00  0.00    +0.000 NA
ATOM      8  N   UNL     1       3.624   5.127  19.402  0.00  0.00    +0.000 N 
ATOM      9  C   UNL     1       4.814   5.108  18.718  0.00  0.00    +0.000 A 
ATOM     10  C   UNL     1       5.880   4.082  18.872  0.00  0.00    +0.000 C 
BRANCH   8  11
ATOM     11  C   UNL     1       3.173   4.285  20.508  0.00  0.00    +0.000 C 
BRANCH  11  12
ATOM     12  C   UNL     1       2.194   3.168  20.097  0.00  0.00    +0.000 C 
ATOM     13  C   UNL     1       0.734   3.606  20.232  0.00  0.00    +0.000 C 
ATOM     14  C   UNL     1       2.455   2.711  18.656  0.00  0.00    +0.000 C 
ENDBRANCH  11  12
ENDBRANCH   8  11
ENDBRANCH   1   4
BRANCH   1  15
ATOM     15  N   UNL     1       7.125   5.516  16.572  0.00  0.00    +0.000 N 
ATOM     16  H   UNL     1       8.061   5.857  16.790  0.00  0.00    +0.000 HD
BRANCH  15  21
ATOM     17  C   UNL     1       5.890   3.228  12.289  0.00  0.00    +0.000 C 
ATOM     18  C   UNL     1       6.511   4.058  13.347  0.00  0.00    +0.000 A 
ATOM     19  N   UNL     1       7.514   4.893  13.049  0.00  0.00    +0.000 NA
ATOM     20  O   UNL     1       7.867   5.493  14.241  0.00  0.00    +0.000 OA
ATOM     21  C   UNL     1       7.043   5.060  15.229  0.00  0.00    +0.000 A 
ATOM     22  C   UNL     1       6.189   4.102  14.733  0.00  0.00    +0.000 A 
ATOM     23  C   UNL     1       5.186   3.286  15.453  0.00  0.00    +0.000 C 
ENDBRANCH  15  21
ENDBRANCH   1  15
TORSDOF 5
ENDMDL
