MODEL 1
REMARK VINA RESULT:      -8.0      0.000      0.000
REMARK  Name = 
REMARK  12 active torsions:
REMARK  status: ('A' for Active; 'I' for Inactive)
REMARK    1  A    between atoms: C_1  and  O_2
REMARK    2  A    between atoms: O_2  and  C_3
REMARK    3  A    between atoms: C_6  and  N_7
REMARK    4  A    between atoms: N_7  and  C_8
REMARK    5  A    between atoms: N_7  and  S_19
REMARK    6  A    between atoms: C_8  and  C_9
REMARK    7  A    between atoms: N_11  and  C_12
REMARK    8  A    between atoms: C_12  and  C_13
REMARK    9  A    between atoms: S_19  and  C_22
REMARK   10  A    between atoms: C_27  and  N_28
REMARK   11  A    between atoms: C_31  and  O_32
REMARK   12  A    between atoms: O_32  and  C_33
REMARK                            x       y       z     vdW  Elec       q    Type
REMARK                         _______ _______ _______ _____ _____    ______ ____
ROOT
ATOM      1  N   UNL     1       3.848   4.863  17.511  0.00  0.00    +0.000 N 
ENDROOT
BRANCH   1   5
ATOM      2  C   UNL     1       7.213   5.218  14.994  0.00  0.00    +0.000 A 
ATOM      3  C   UNL     1       5.948   4.957  14.467  0.00  0.00    +0.000 A 
ATOM      4  C   UNL     1       4.820   4.961  15.287  0.00  0.00    +0.000 A 
ATOM      5  C   UNL     1       4.955   5.187  16.657  0.00  0.00    +0.000 A 
ATOM      6  C   UNL     1       6.210   5.582  17.181  0.00  0.00    +0.000 A 
ATOM      7  C   UNL     1       7.336   5.569  16.338  0.00  0.00    +0.000 A 
BRANCH   2   9
ATOM      8  C   UNL     1       8.000   5.523  12.761  0.00  0.00    +0.000 C 
ATOM      9  O   UNL     1       8.239   5.094  14.097  0.00  0.00    +0.000 OA
ENDBRANCH   2   9
BRANCH   6  10
ATOM     10  O   UNL     1       6.272   5.926  18.511  0.00  0.00    +0.000 OA
ATOM     11  C   UNL     1       7.575   6.016  19.091  0.00  0.00    +0.000 C 
ENDBRANCH   6  10
ENDBRANCH   1   5
BRANCH   1  12
ATOM     12  S   UNL     1       3.117   3.344  17.403  0.00  0.00    +0.000 S 
ATOM     13  O   UNL     1       1.972   3.431  16.526  0.00  0.00    +0.000 OA
ATOM     14  O   UNL     1       4.129   2.329  17.187  0.00  0.00    +0.000 OA
BRANCH  12  15
ATOM     15  C   UNL     1       2.481   3.035  19.054  0.00  0.00    +0.000 A 
ATOM     16  C   UNL     1       1.121   3.269  19.290  0.00  0.00    +0.000 A 
ATOM     17  C   UNL     1       0.602   3.211  20.590  0.00  0.00    +0.000 A 
ATOM     18  C   UNL     1       1.435   2.945  21.676  0.00  0.00    +0.000 A 
ATOM     19  C   UNL     1       2.792   2.716  21.463  0.00  0.00    +0.000 A 
ATOM     20  C   UNL     1       3.307   2.765  20.154  0.00  0.00    +0.000 A 
BRANCH  20  21
ATOM     21  N   UNL     1       4.712   2.443  20.023  0.00  0.00    +0.000 N 
ATOM     22  O   UNL     1       5.026   1.269  20.256  0.00  0.00    +0.000 OA
ATOM     23  O   UNL     1       5.490   3.386  19.836  0.00  0.00    +0.000 OA
ENDBRANCH  20  21
ENDBRANCH  12  15
ENDBRANCH   1  12
BRANCH   1  24
ATOM     24  C   UNL     1       3.431   5.770  18.601  0.00  0.00    +0.000 C 
BRANCH  24  25
ATOM     25  C   UNL     1       2.901   7.163  18.301  0.00  0.00    +0.000 C 
ATOM     26  O   UNL     1       3.176   7.754  17.259  0.00  0.00    +0.000 OA
ATOM     27  N   UNL     1       1.998   7.678  19.205  0.00  0.00    +0.000 N 
ATOM     28  H   UNL     1       1.808   7.183  20.061  0.00  0.00    +0.000 HD
BRANCH  27  29
ATOM     29  C   UNL     1       1.481   9.024  19.107  0.00  0.00    +0.000 C 
BRANCH  29  30
ATOM     30  C   UNL     1       0.847   9.457  20.396  0.00  0.00    +0.000 A 
ATOM     31  C   UNL     1       1.195   8.860  21.613  0.00  0.00    +0.000 A 
ATOM     32  C   UNL     1       0.555   9.249  22.785  0.00  0.00    +0.000 A 
ATOM     33  C   UNL     1      -0.421  10.227  22.703  0.00  0.00    +0.000 A 
ATOM     34  N   UNL     1      -0.783  10.830  21.551  0.00  0.00    +0.000 NA
ATOM     35  C   UNL     1      -0.147  10.428  20.426  0.00  0.00    +0.000 A 
ENDBRANCH  29  30
ENDBRANCH  27  29
ENDBRANCH  24  25
ENDBRANCH   1  24
TORSDOF 10
ENDMDL
MODEL 2
REMARK VINA RESULT:      -7.8      1.127      2.000
REMARK  Name = 
REMARK  12 active torsions:
REMARK  status: ('A' for Active; 'I' for Inactive)
REMARK    1  A    between atoms: C_1  and  O_2
REMARK    2  A    between atoms: O_2  and  C_3
REMARK    3  A    between atoms: C_6  and  N_7
REMARK    4  A    between atoms: N_7  and  C_8
REMARK    5  A    between atoms: N_7  and  S_19
REMARK    6  A    between atoms: C_8  and  C_9
REMARK    7  A    between atoms: N_11  and  C_12
REMARK    8  A    between atoms: C_12  and  C_13
REMARK    9  A    between atoms: S_19  and  C_22
REMARK   10  A    between atoms: C_27  and  N_28
REMARK   11  A    between atoms: C_31  and  O_32
REMARK   12  A    between atoms: O_32  and  C_33
REMARK                            x       y       z     vdW  Elec       q    Type
REMARK                         _______ _______ _______ _____ _____    ______ ____
ROOT
ATOM      1  N   UNL     1       4.756   4.701  18.209  0.00  0.00    +0.000 N 
ENDROOT
BRANCH   1   5
ATOM      2  C   UNL     1       6.639   4.667  14.436  0.00  0.00    +0.000 A 
ATOM      3  C   UNL     1       5.259   4.501  14.550  0.00  0.00    +0.000 A 
ATOM      4  C   UNL     1       4.624   4.633  15.784  0.00  0.00    +0.000 A 
ATOM      5  C   UNL     1       5.377   4.896  16.930  0.00  0.00    +0.000 A 
ATOM      6  C   UNL     1       6.756   5.196  16.808  0.00  0.00    +0.000 A 
ATOM      7  C   UNL     1       7.377   5.053  15.555  0.00  0.00    +0.000 A 
BRANCH   2   9
ATOM      8  C   UNL     1       6.392   3.556  12.337  0.00  0.00    +0.000 C 
ATOM      9  O   UNL     1       7.139   4.420  13.187  0.00  0.00    +0.000 OA
ENDBRANCH   2   9
BRANCH   6  10
ATOM     10  O   UNL     1       7.432   5.579  17.942  0.00  0.00    +0.000 OA
ATOM     11  C   UNL     1       7.763   6.966  18.054  0.00  0.00    +0.000 C 
ENDBRANCH   6  10
ENDBRANCH   1   5
BRANCH   1  12
ATOM     12  S   UNL     1       4.590   3.142  18.837  0.00  0.00    +0.000 S 
ATOM     13  O   UNL     1       4.377   2.214  17.750  0.00  0.00    +0.000 OA
ATOM     14  O   UNL     1       5.630   2.896  19.816  0.00  0.00    +0.000 OA
BRANCH  12  15
ATOM     15  C   UNL     1       3.059   3.198  19.776  0.00  0.00    +0.000 A 
ATOM     16  C   UNL     1       3.111   2.879  21.138  0.00  0.00    +0.000 A 
ATOM     17  C   UNL     1       1.933   2.740  21.884  0.00  0.00    +0.000 A 
ATOM     18  C   UNL     1       0.687   2.890  21.276  0.00  0.00    +0.000 A 
ATOM     19  C   UNL     1       0.615   3.201  19.921  0.00  0.00    +0.000 A 
ATOM     20  C   UNL     1       1.801   3.350  19.179  0.00  0.00    +0.000 A 
BRANCH  20  21
ATOM     21  N   UNL     1       1.627   3.744  17.797  0.00  0.00    +0.000 N 
ATOM     22  O   UNL     1       1.895   2.884  16.948  0.00  0.00    +0.000 OA
ATOM     23  O   UNL     1       1.372   4.934  17.579  0.00  0.00    +0.000 OA
ENDBRANCH  20  21
ENDBRANCH  12  15
ENDBRANCH   1  12
BRANCH   1  24
ATOM     24  C   UNL     1       4.401   5.849  19.070  0.00  0.00    +0.000 C 
BRANCH  24  25
ATOM     25  C   UNL     1       3.553   6.994  18.539  0.00  0.00    +0.000 C 
ATOM     26  O   UNL     1       3.752   7.493  17.433  0.00  0.00    +0.000 OA
ATOM     27  N   UNL     1       2.473   7.360  19.312  0.00  0.00    +0.000 N 
ATOM     28  H   UNL     1       2.347   6.951  20.223  0.00  0.00    +0.000 HD
BRANCH  27  29
ATOM     29  C   UNL     1       1.632   8.491  18.987  0.00  0.00    +0.000 C 
BRANCH  29  30
ATOM     30  C   UNL     1       1.046   9.102  20.226  0.00  0.00    +0.000 A 
ATOM     31  C   UNL     1       0.479   8.309  21.229  0.00  0.00    +0.000 A 
ATOM     32  C   UNL     1      -0.101   8.909  22.343  0.00  0.00    +0.000 A 
ATOM     33  C   UNL     1      -0.097  10.291  22.418  0.00  0.00    +0.000 A 
ATOM     34  N   UNL     1       0.442  11.091  21.473  0.00  0.00    +0.000 NA
ATOM     35  C   UNL     1       0.994  10.481  20.399  0.00  0.00    +0.000 A 
ENDBRANCH  29  30
ENDBRANCH  27  29
ENDBRANCH  24  25
ENDBRANCH   1  24
TORSDOF 10
ENDMDL
MODEL 3
REMARK VINA RESULT:      -7.8      0.892      1.129
REMARK  Name = 
REMARK  12 active torsions:
REMARK  status: ('A' for Active; 'I' for Inactive)
REMARK    1  A    between atoms: C_1  and  O_2
REMARK    2  A    between atoms: O_2  and  C_3
REMARK    3  A    between atoms: C_6  and  N_7
REMARK    4  A    between atoms: N_7  and  C_8
REMARK    5  A    between atoms: N_7  and  S_19
REMARK    6  A    between atoms: C_8  and  C_9
REMARK    7  A    between atoms: N_11  and  C_12
REMARK    8  A    between atoms: C_12  and  C_13
REMARK    9  A    between atoms: S_19  and  C_22
REMARK   10  A    between atoms: C_27  and  N_28
REMARK   11  A    between atoms: C_31  and  O_32
REMARK   12  A    between atoms: O_32  and  C_33
REMARK                            x       y       z     vdW  Elec       q    Type
REMARK                         _______ _______ _______ _____ _____    ______ ____
ROOT
ATOM      1  N   UNL     1       3.483   5.334  17.810  0.00  0.00    +0.000 N 
ENDROOT
BRANCH   1   5
ATOM      2  C   UNL     1       6.956   5.026  15.438  0.00  0.00    +0.000 A 
ATOM      3  C   UNL     1       5.700   5.178  14.853  0.00  0.00    +0.000 A 
ATOM      4  C   UNL     1       4.569   5.401  15.638  0.00  0.00    +0.000 A 
ATOM      5  C   UNL     1       4.683   5.434  17.028  0.00  0.00    +0.000 A 
ATOM      6  C   UNL     1       5.966   5.414  17.627  0.00  0.00    +0.000 A 
ATOM      7  C   UNL     1       7.093   5.184  16.818  0.00  0.00    +0.000 A 
BRANCH   2   9
ATOM      8  C   UNL     1       7.892   5.299  13.259  0.00  0.00    +0.000 C 
ATOM      9  O   UNL     1       7.960   4.723  14.560  0.00  0.00    +0.000 OA
ENDBRANCH   2   9
BRANCH   6  10
ATOM     10  O   UNL     1       6.042   5.583  18.990  0.00  0.00    +0.000 OA
ATOM     11  C   UNL     1       7.353   5.650  19.556  0.00  0.00    +0.000 C 
ENDBRANCH   6  10
ENDBRANCH   1   5
BRANCH   1  12
ATOM     12  S   UNL     1       2.444   4.019  17.596  0.00  0.00    +0.000 S 
ATOM     13  O   UNL     1       1.169   4.498  17.115  0.00  0.00    +0.000 OA
ATOM     14  O   UNL     1       3.139   2.958  16.896  0.00  0.00    +0.000 OA
BRANCH  12  15
ATOM     15  C   UNL     1       2.169   3.392  19.256  0.00  0.00    +0.000 A 
ATOM     16  C   UNL     1       1.041   3.846  19.952  0.00  0.00    +0.000 A 
ATOM     17  C   UNL     1       0.862   3.528  21.305  0.00  0.00    +0.000 A 
ATOM     18  C   UNL     1       1.817   2.777  21.990  0.00  0.00    +0.000 A 
ATOM     19  C   UNL     1       2.948   2.323  21.317  0.00  0.00    +0.000 A 
ATOM     20  C   UNL     1       3.118   2.636  19.956  0.00  0.00    +0.000 A 
BRANCH  20  21
ATOM     21  N   UNL     1       4.286   2.060  19.324  0.00  0.00    +0.000 N 
ATOM     22  O   UNL     1       4.130   0.952  18.796  0.00  0.00    +0.000 OA
ATOM     23  O   UNL     1       5.362   2.647  19.490  0.00  0.00    +0.000 OA
ENDBRANCH  20  21
ENDBRANCH  12  15
ENDBRANCH   1  12
BRANCH   1  24
ATOM     24  C   UNL     1       3.211   6.274  18.917  0.00  0.00    +0.000 C 
BRANCH  24  25
ATOM     25  C   UNL     1       2.583   7.634  18.655  0.00  0.00    +0.000 C 
ATOM     26  O   UNL     1       2.635   8.173  17.551  0.00  0.00    +0.000 OA
ATOM     27  N   UNL     1       1.849   8.175  19.687  0.00  0.00    +0.000 N 
ATOM     28  H   UNL     1       1.842   7.725  20.588  0.00  0.00    +0.000 HD
BRANCH  27  29
ATOM     29  C   UNL     1       1.274   9.500  19.622  0.00  0.00    +0.000 C 
BRANCH  29  30
ATOM     30  C   UNL     1       0.541   9.835  20.887  0.00  0.00    +0.000 A 
ATOM     31  C   UNL     1      -0.558  10.701  20.884  0.00  0.00    +0.000 A 
ATOM     32  C   UNL     1      -1.186  11.030  22.081  0.00  0.00    +0.000 A 
ATOM     33  C   UNL     1      -0.691  10.482  23.251  0.00  0.00    +0.000 A 
ATOM     34  N   UNL     1       0.363   9.640  23.297  0.00  0.00    +0.000 NA
ATOM     35  C   UNL     1       0.958   9.342  22.119  0.00  0.00    +0.000 A 
ENDBRANCH  29  30
ENDBRANCH  27  29
ENDBRANCH  24  25
ENDBRANCH   1  24
TORSDOF 10
ENDMDL
MODEL 4
REMARK VINA RESULT:      -7.8      1.632      2.465
REMARK  Name = 
REMARK  12 active torsions:
REMARK  status: ('A' for Active; 'I' for Inactive)
REMARK    1  A    between atoms: C_1  and  O_2
REMARK    2  A    between atoms: O_2  and  C_3
REMARK    3  A    between atoms: C_6  and  N_7
REMARK    4  A    between atoms: N_7  and  C_8
REMARK    5  A    between atoms: N_7  and  S_19
REMARK    6  A    between atoms: C_8  and  C_9
REMARK    7  A    between atoms: N_11  and  C_12
REMARK    8  A    between atoms: C_12  and  C_13
REMARK    9  A    between atoms: S_19  and  C_22
REMARK   10  A    between atoms: C_27  and  N_28
REMARK   11  A    between atoms: C_31  and  O_32
REMARK   12  A    between atoms: O_32  and  C_33
REMARK                            x       y       z     vdW  Elec       q    Type
REMARK                         _______ _______ _______ _____ _____    ______ ____
ROOT
ATOM      1  N   UNL     1       4.781   4.738  18.542  0.00  0.00    +0.000 N 
ENDROOT
BRANCH   1   5
ATOM      2  C   UNL     1       6.785   5.073  14.846  0.00  0.00    +0.000 A 
ATOM      3  C   UNL     1       5.428   5.378  14.956  0.00  0.00    +0.000 A 
ATOM      4  C   UNL     1       4.797   5.384  16.200  0.00  0.00    +0.000 A 
ATOM      5  C   UNL     1       5.515   5.043  17.347  0.00  0.00    +0.000 A 
ATOM      6  C   UNL     1       6.918   4.861  17.267  0.00  0.00    +0.000 A 
ATOM      7  C   UNL     1       7.534   4.856  16.003  0.00  0.00    +0.000 A 
BRANCH   2   9
ATOM      8  C   UNL     1       6.752   3.979  12.725  0.00  0.00    +0.000 C 
ATOM      9  O   UNL     1       7.252   5.017  13.562  0.00  0.00    +0.000 OA
ENDBRANCH   2   9
BRANCH   6  10
ATOM     10  O   UNL     1       7.607   4.658  18.440  0.00  0.00    +0.000 OA
ATOM     11  C   UNL     1       7.985   5.827  19.172  0.00  0.00    +0.000 C 
ENDBRANCH   6  10
ENDBRANCH   1   5
BRANCH   1  12
ATOM     12  S   UNL     1       4.566   3.130  19.013  0.00  0.00    +0.000 S 
ATOM     13  O   UNL     1       4.461   2.302  17.834  0.00  0.00    +0.000 OA
ATOM     14  O   UNL     1       5.512   2.797  20.059  0.00  0.00    +0.000 OA
BRANCH  12  15
ATOM     15  C   UNL     1       2.955   3.108  19.806  0.00  0.00    +0.000 A 
ATOM     16  C   UNL     1       2.905   2.885  21.188  0.00  0.00    +0.000 A 
ATOM     17  C   UNL     1       1.679   2.688  21.835  0.00  0.00    +0.000 A 
ATOM     18  C   UNL     1       0.487   2.683  21.111  0.00  0.00    +0.000 A 
ATOM     19  C   UNL     1       0.516   2.895  19.736  0.00  0.00    +0.000 A 
ATOM     20  C   UNL     1       1.750   3.104  19.092  0.00  0.00    +0.000 A 
BRANCH  20  21
ATOM     21  N   UNL     1       1.674   3.388  17.675  0.00  0.00    +0.000 N 
ATOM     22  O   UNL     1       2.009   2.470  16.916  0.00  0.00    +0.000 OA
ATOM     23  O   UNL     1       1.426   4.554  17.347  0.00  0.00    +0.000 OA
ENDBRANCH  20  21
ENDBRANCH  12  15
ENDBRANCH   1  12
BRANCH   1  24
ATOM     24  C   UNL     1       4.343   5.807  19.464  0.00  0.00    +0.000 C 
BRANCH  24  25
ATOM     25  C   UNL     1       2.998   6.493  19.285  0.00  0.00    +0.000 C 
ATOM     26  O   UNL     1       2.075   6.334  20.082  0.00  0.00    +0.000 OA
ATOM     27  N   UNL     1       2.908   7.398  18.250  0.00  0.00    +0.000 N 
ATOM     28  H   UNL     1       3.671   7.491  17.599  0.00  0.00    +0.000 HD
BRANCH  27  29
ATOM     29  C   UNL     1       1.670   8.056  17.897  0.00  0.00    +0.000 C 
BRANCH  29  30
ATOM     30  C   UNL     1       1.577   9.412  18.532  0.00  0.00    +0.000 A 
ATOM     31  C   UNL     1       0.866   9.610  19.720  0.00  0.00    +0.000 A 
ATOM     32  C   UNL     1       0.758  10.888  20.259  0.00  0.00    +0.000 A 
ATOM     33  C   UNL     1       1.366  11.935  19.587  0.00  0.00    +0.000 A 
ATOM     34  N   UNL     1       2.064  11.785  18.441  0.00  0.00    +0.000 NA
ATOM     35  C   UNL     1       2.148  10.532  17.938  0.00  0.00    +0.000 A 
ENDBRANCH  29  30
ENDBRANCH  27  29
ENDBRANCH  24  25
ENDBRANCH   1  24
TORSDOF 10
ENDMDL
MODEL 5
REMARK VINA RESULT:      -7.7      1.386      2.317
REMARK  Name = 
REMARK  12 active torsions:
REMARK  status: ('A' for Active; 'I' for Inactive)
REMARK    1  A    between atoms: C_1  and  O_2
REMARK    2  A    between atoms: O_2  and  C_3
REMARK    3  A    between atoms: C_6  and  N_7
REMARK    4  A    between atoms: N_7  and  C_8
REMARK    5  A    between atoms: N_7  and  S_19
REMARK    6  A    between atoms: C_8  and  C_9
REMARK    7  A    between atoms: N_11  and  C_12
REMARK    8  A    between atoms: C_12  and  C_13
REMARK    9  A    between atoms: S_19  and  C_22
REMARK   10  A    between atoms: C_27  and  N_28
REMARK   11  A    between atoms: C_31  and  O_32
REMARK   12  A    between atoms: O_32  and  C_33
REMARK                            x       y       z     vdW  Elec       q    Type
REMARK                         _______ _______ _______ _____ _____    ______ ____
ROOT
ATOM      1  N   UNL     1       4.665   4.783  17.934  0.00  0.00    +0.000 N 
ENDROOT
BRANCH   1   5
ATOM      2  C   UNL     1       6.636   4.590  14.211  0.00  0.00    +0.000 A 
ATOM      3  C   UNL     1       5.272   4.318  14.315  0.00  0.00    +0.000 A 
ATOM      4  C   UNL     1       4.598   4.500  15.522  0.00  0.00    +0.000 A 
ATOM      5  C   UNL     1       5.298   4.921  16.654  0.00  0.00    +0.000 A 
ATOM      6  C   UNL     1       6.650   5.325  16.531  0.00  0.00    +0.000 A 
ATOM      7  C   UNL     1       7.312   5.130  15.305  0.00  0.00    +0.000 A 
BRANCH   2   9
ATOM      8  C   UNL     1       6.457   3.401  12.149  0.00  0.00    +0.000 C 
ATOM      9  O   UNL     1       7.186   4.282  12.997  0.00  0.00    +0.000 OA
ENDBRANCH   2   9
BRANCH   6  10
ATOM     10  O   UNL     1       7.264   5.859  17.639  0.00  0.00    +0.000 OA
ATOM     11  C   UNL     1       7.586   7.251  17.587  0.00  0.00    +0.000 C 
ENDBRANCH   6  10
ENDBRANCH   1   5
BRANCH   1  12
ATOM     12  S   UNL     1       4.657   3.285  18.714  0.00  0.00    +0.000 S 
ATOM     13  O   UNL     1       4.512   2.239  17.729  0.00  0.00    +0.000 OA
ATOM     14  O   UNL     1       5.734   3.234  19.682  0.00  0.00    +0.000 OA
BRANCH  12  15
ATOM     15  C   UNL     1       3.147   3.294  19.686  0.00  0.00    +0.000 A 
ATOM     16  C   UNL     1       3.257   3.163  21.076  0.00  0.00    +0.000 A 
ATOM     17  C   UNL     1       2.116   2.993  21.870  0.00  0.00    +0.000 A 
ATOM     18  C   UNL     1       0.850   2.924  21.288  0.00  0.00    +0.000 A 
ATOM     19  C   UNL     1       0.720   3.046  19.907  0.00  0.00    +0.000 A 
ATOM     20  C   UNL     1       1.869   3.227  19.114  0.00  0.00    +0.000 A 
BRANCH  20  21
ATOM     21  N   UNL     1       1.628   3.416  17.700  0.00  0.00    +0.000 N 
ATOM     22  O   UNL     1       1.982   2.491  16.958  0.00  0.00    +0.000 OA
ATOM     23  O   UNL     1       1.230   4.531  17.341  0.00  0.00    +0.000 OA
ENDBRANCH  20  21
ENDBRANCH  12  15
ENDBRANCH   1  12
BRANCH   1  24
ATOM     24  C   UNL     1       4.155   5.962  18.666  0.00  0.00    +0.000 C 
BRANCH  24  25
ATOM     25  C   UNL     1       3.514   7.126  17.927  0.00  0.00    +0.000 C 
ATOM     26  O   UNL     1       4.055   7.661  16.961  0.00  0.00    +0.000 OA
ATOM     27  N   UNL     1       2.240   7.470  18.322  0.00  0.00    +0.000 N 
ATOM     28  H   UNL     1       1.830   7.031  19.131  0.00  0.00    +0.000 HD
BRANCH  27  29
ATOM     29  C   UNL     1       1.539   8.613  17.781  0.00  0.00    +0.000 C 
BRANCH  29  30
ATOM     30  C   UNL     1       1.292   9.647  18.840  0.00  0.00    +0.000 A 
ATOM     31  C   UNL     1       1.449  11.011  18.575  0.00  0.00    +0.000 A 
ATOM     32  C   UNL     1       1.259  11.943  19.591  0.00  0.00    +0.000 A 
ATOM     33  C   UNL     1       0.918  11.477  20.849  0.00  0.00    +0.000 A 
ATOM     34  N   UNL     1       0.753  10.170  21.145  0.00  0.00    +0.000 NA
ATOM     35  C   UNL     1       0.949   9.287  20.139  0.00  0.00    +0.000 A 
ENDBRANCH  29  30
ENDBRANCH  27  29
ENDBRANCH  24  25
ENDBRANCH   1  24
TORSDOF 10
ENDMDL
MODEL 6
REMARK VINA RESULT:      -7.6      1.325      2.010
REMARK  Name = 
REMARK  12 active torsions:
REMARK  status: ('A' for Active; 'I' for Inactive)
REMARK    1  A    between atoms: C_1  and  O_2
REMARK    2  A    between atoms: O_2  and  C_3
REMARK    3  A    between atoms: C_6  and  N_7
REMARK    4  A    between atoms: N_7  and  C_8
REMARK    5  A    between atoms: N_7  and  S_19
REMARK    6  A    between atoms: C_8  and  C_9
REMARK    7  A    between atoms: N_11  and  C_12
REMARK    8  A    between atoms: C_12  and  C_13
REMARK    9  A    between atoms: S_19  and  C_22
REMARK   10  A    between atoms: C_27  and  N_28
REMARK   11  A    between atoms: C_31  and  O_32
REMARK   12  A    between atoms: O_32  and  C_33
REMARK                            x       y       z     vdW  Elec       q    Type
REMARK                         _______ _______ _______ _____ _____    ______ ____
ROOT
ATOM      1  N   UNL     1       4.076   5.292  17.649  0.00  0.00    +0.000 N 
ENDROOT
BRANCH   1   5
ATOM      2  C   UNL     1       6.730   4.940  14.390  0.00  0.00    +0.000 A 
ATOM      3  C   UNL     1       5.503   4.278  14.390  0.00  0.00    +0.000 A 
ATOM      4  C   UNL     1       4.576   4.491  15.411  0.00  0.00    +0.000 A 
ATOM      5  C   UNL     1       4.890   5.346  16.468  0.00  0.00    +0.000 A 
ATOM      6  C   UNL     1       6.074   6.123  16.414  0.00  0.00    +0.000 A 
ATOM      7  C   UNL     1       6.996   5.889  15.378  0.00  0.00    +0.000 A 
BRANCH   2   9
ATOM      8  C   UNL     1       6.996   4.003  12.211  0.00  0.00    +0.000 C 
ATOM      9  O   UNL     1       7.576   4.570  13.381  0.00  0.00    +0.000 OA
ENDBRANCH   2   9
BRANCH   6  10
ATOM     10  O   UNL     1       6.280   7.049  17.409  0.00  0.00    +0.000 OA
ATOM     11  C   UNL     1       7.592   7.611  17.500  0.00  0.00    +0.000 C 
ENDBRANCH   6  10
ENDBRANCH   1   5
BRANCH   1  12
ATOM     12  S   UNL     1       4.679   4.584  19.058  0.00  0.00    +0.000 S 
ATOM     13  O   UNL     1       5.552   3.489  18.701  0.00  0.00    +0.000 OA
ATOM     14  O   UNL     1       5.134   5.617  19.967  0.00  0.00    +0.000 OA
BRANCH  12  15
ATOM     15  C   UNL     1       3.237   3.860  19.848  0.00  0.00    +0.000 A 
ATOM     16  C   UNL     1       2.880   4.326  21.119  0.00  0.00    +0.000 A 
ATOM     17  C   UNL     1       1.873   3.688  21.856  0.00  0.00    +0.000 A 
ATOM     18  C   UNL     1       1.228   2.561  21.348  0.00  0.00    +0.000 A 
ATOM     19  C   UNL     1       1.574   2.078  20.089  0.00  0.00    +0.000 A 
ATOM     20  C   UNL     1       2.578   2.729  19.348  0.00  0.00    +0.000 A 
BRANCH  20  21
ATOM     21  N   UNL     1       2.818   2.200  18.023  0.00  0.00    +0.000 N 
ATOM     22  O   UNL     1       3.704   1.341  17.931  0.00  0.00    +0.000 OA
ATOM     23  O   UNL     1       2.229   2.747  17.083  0.00  0.00    +0.000 OA
ENDBRANCH  20  21
ENDBRANCH  12  15
ENDBRANCH   1  12
BRANCH   1  24
ATOM     24  C   UNL     1       2.774   5.989  17.711  0.00  0.00    +0.000 C 
BRANCH  24  25
ATOM     25  C   UNL     1       2.700   7.501  17.851  0.00  0.00    +0.000 C 
ATOM     26  O   UNL     1       3.301   8.255  17.087  0.00  0.00    +0.000 OA
ATOM     27  N   UNL     1       1.827   7.983  18.801  0.00  0.00    +0.000 N 
ATOM     28  H   UNL     1       1.365   7.344  19.427  0.00  0.00    +0.000 HD
BRANCH  27  29
ATOM     29  C   UNL     1       1.718   9.390  19.115  0.00  0.00    +0.000 C 
BRANCH  29  30
ATOM     30  C   UNL     1       0.991   9.601  20.410  0.00  0.00    +0.000 A 
ATOM     31  C   UNL     1      -0.136  10.427  20.485  0.00  0.00    +0.000 A 
ATOM     32  C   UNL     1      -0.759  10.641  21.710  0.00  0.00    +0.000 A 
ATOM     33  C   UNL     1      -0.231  10.021  22.830  0.00  0.00    +0.000 A 
ATOM     34  N   UNL     1       0.851   9.214  22.799  0.00  0.00    +0.000 NA
ATOM     35  C   UNL     1       1.439   9.028  21.595  0.00  0.00    +0.000 A 
ENDBRANCH  29  30
ENDBRANCH  27  29
ENDBRANCH  24  25
ENDBRANCH   1  24
TORSDOF 10
ENDMDL
MODEL 7
REMARK VINA RESULT:      -7.6      1.637      2.359
REMARK  Name = 
REMARK  12 active torsions:
REMARK  status: ('A' for Active; 'I' for Inactive)
REMARK    1  A    between atoms: C_1  and  O_2
REMARK    2  A    between atoms: O_2  and  C_3
REMARK    3  A    between atoms: C_6  and  N_7
REMARK    4  A    between atoms: N_7  and  C_8
REMARK    5  A    between atoms: N_7  and  S_19
REMARK    6  A    between atoms: C_8  and  C_9
REMARK    7  A    between atoms: N_11  and  C_12
REMARK    8  A    between atoms: C_12  and  C_13
REMARK    9  A    between atoms: S_19  and  C_22
REMARK   10  A    between atoms: C_27  and  N_28
REMARK   11  A    between atoms: C_31  and  O_32
REMARK   12  A    between atoms: O_32  and  C_33
REMARK                            x       y       z     vdW  Elec       q    Type
REMARK                         _______ _______ _______ _____ _____    ______ ____
ROOT
ATOM      1  N   UNL     1       4.311   5.272  17.649  0.00  0.00    +0.000 N 
ENDROOT
BRANCH   1   5
ATOM      2  C   UNL     1       6.742   4.603  14.269  0.00  0.00    +0.000 A 
ATOM      3  C   UNL     1       5.378   4.313  14.240  0.00  0.00    +0.000 A 
ATOM      4  C   UNL     1       4.554   4.647  15.314  0.00  0.00    +0.000 A 
ATOM      5  C   UNL     1       5.101   5.243  16.452  0.00  0.00    +0.000 A 
ATOM      6  C   UNL     1       6.455   5.661  16.442  0.00  0.00    +0.000 A 
ATOM      7  C   UNL     1       7.268   5.311  15.349  0.00  0.00    +0.000 A 
BRANCH   2   9
ATOM      8  C   UNL     1       6.704   3.546  12.129  0.00  0.00    +0.000 C 
ATOM      9  O   UNL     1       7.444   4.141  13.190  0.00  0.00    +0.000 OA
ENDBRANCH   2   9
BRANCH   6  10
ATOM     10  O   UNL     1       6.919   6.362  17.530  0.00  0.00    +0.000 OA
ATOM     11  C   UNL     1       7.622   7.577  17.258  0.00  0.00    +0.000 C 
ENDBRANCH   6  10
ENDBRANCH   1   5
BRANCH   1  12
ATOM     12  S   UNL     1       4.850   4.471  19.035  0.00  0.00    +0.000 S 
ATOM     13  O   UNL     1       5.646   3.331  18.643  0.00  0.00    +0.000 OA
ATOM     14  O   UNL     1       5.369   5.434  19.985  0.00  0.00    +0.000 OA
BRANCH  12  15
ATOM     15  C   UNL     1       3.354   3.822  19.788  0.00  0.00    +0.000 A 
ATOM     16  C   UNL     1       3.006   4.282  21.064  0.00  0.00    +0.000 A 
ATOM     17  C   UNL     1       1.951   3.693  21.772  0.00  0.00    +0.000 A 
ATOM     18  C   UNL     1       1.244   2.620  21.230  0.00  0.00    +0.000 A 
ATOM     19  C   UNL     1       1.579   2.143  19.966  0.00  0.00    +0.000 A 
ATOM     20  C   UNL     1       2.633   2.745  19.254  0.00  0.00    +0.000 A 
BRANCH  20  21
ATOM     21  N   UNL     1       2.860   2.231  17.920  0.00  0.00    +0.000 N 
ATOM     22  O   UNL     1       2.174   2.730  17.019  0.00  0.00    +0.000 OA
ATOM     23  O   UNL     1       3.603   1.248  17.816  0.00  0.00    +0.000 OA
ENDBRANCH  20  21
ENDBRANCH  12  15
ENDBRANCH   1  12
BRANCH   1  24
ATOM     24  C   UNL     1       3.108   6.124  17.751  0.00  0.00    +0.000 C 
BRANCH  24  25
ATOM     25  C   UNL     1       3.216   7.640  17.719  0.00  0.00    +0.000 C 
ATOM     26  O   UNL     1       4.287   8.212  17.525  0.00  0.00    +0.000 OA
ATOM     27  N   UNL     1       2.030   8.337  17.798  0.00  0.00    +0.000 N 
ATOM     28  H   UNL     1       1.171   7.845  17.979  0.00  0.00    +0.000 HD
BRANCH  27  29
ATOM     29  C   UNL     1       1.980   9.780  17.876  0.00  0.00    +0.000 C 
BRANCH  29  30
ATOM     30  C   UNL     1       0.745  10.240  18.594  0.00  0.00    +0.000 A 
ATOM     31  C   UNL     1      -0.518  10.147  18.000  0.00  0.00    +0.000 A 
ATOM     32  C   UNL     1      -1.638  10.627  18.672  0.00  0.00    +0.000 A 
ATOM     33  C   UNL     1      -1.457  11.191  19.924  0.00  0.00    +0.000 A 
ATOM     34  N   UNL     1      -0.256  11.297  20.532  0.00  0.00    +0.000 NA
ATOM     35  C   UNL     1       0.815  10.826  19.853  0.00  0.00    +0.000 A 
ENDBRANCH  29  30
ENDBRANCH  27  29
ENDBRANCH  24  25
ENDBRANCH   1  24
TORSDOF 10
ENDMDL
MODEL 8
REMARK VINA RESULT:      -7.5      1.411      2.257
REMARK  Name = 
REMARK  12 active torsions:
REMARK  status: ('A' for Active; 'I' for Inactive)
REMARK    1  A    between atoms: C_1  and  O_2
REMARK    2  A    between atoms: O_2  and  C_3
REMARK    3  A    between atoms: C_6  and  N_7
REMARK    4  A    between atoms: N_7  and  C_8
REMARK    5  A    between atoms: N_7  and  S_19
REMARK    6  A    between atoms: C_8  and  C_9
REMARK    7  A    between atoms: N_11  and  C_12
REMARK    8  A    between atoms: C_12  and  C_13
REMARK    9  A    between atoms: S_19  and  C_22
REMARK   10  A    between atoms: C_27  and  N_28
REMARK   11  A    between atoms: C_31  and  O_32
REMARK   12  A    between atoms: O_32  and  C_33
REMARK                            x       y       z     vdW  Elec       q    Type
REMARK                         _______ _______ _______ _____ _____    ______ ____
ROOT
ATOM      1  N   UNL     1       4.079   5.246  17.662  0.00  0.00    +0.000 N 
ENDROOT
BRANCH   1   5
ATOM      2  C   UNL     1       6.709   4.888  14.385  0.00  0.00    +0.000 A 
ATOM      3  C   UNL     1       5.502   4.191  14.414  0.00  0.00    +0.000 A 
ATOM      4  C   UNL     1       4.580   4.403  15.439  0.00  0.00    +0.000 A 
ATOM      5  C   UNL     1       4.880   5.293  16.472  0.00  0.00    +0.000 A 
ATOM      6  C   UNL     1       6.040   6.101  16.386  0.00  0.00    +0.000 A 
ATOM      7  C   UNL     1       6.958   5.868  15.346  0.00  0.00    +0.000 A 
BRANCH   2   9
ATOM      8  C   UNL     1       8.295   5.545  12.726  0.00  0.00    +0.000 C 
ATOM      9  O   UNL     1       7.556   4.517  13.376  0.00  0.00    +0.000 OA
ENDBRANCH   2   9
BRANCH   6  10
ATOM     10  O   UNL     1       6.230   7.058  17.355  0.00  0.00    +0.000 OA
ATOM     11  C   UNL     1       7.583   7.404  17.658  0.00  0.00    +0.000 C 
ENDBRANCH   6  10
ENDBRANCH   1   5
BRANCH   1  12
ATOM     12  S   UNL     1       4.682   4.504  19.055  0.00  0.00    +0.000 S 
ATOM     13  O   UNL     1       5.529   3.398  18.673  0.00  0.00    +0.000 OA
ATOM     14  O   UNL     1       5.166   5.514  19.975  0.00  0.00    +0.000 OA
BRANCH  12  15
ATOM     15  C   UNL     1       3.233   3.797  19.847  0.00  0.00    +0.000 A 
ATOM     16  C   UNL     1       2.880   4.271  21.117  0.00  0.00    +0.000 A 
ATOM     17  C   UNL     1       1.867   3.646  21.856  0.00  0.00    +0.000 A 
ATOM     18  C   UNL     1       1.212   2.522  21.353  0.00  0.00    +0.000 A 
ATOM     19  C   UNL     1       1.554   2.031  20.096  0.00  0.00    +0.000 A 
ATOM     20  C   UNL     1       2.564   2.669  19.352  0.00  0.00    +0.000 A 
BRANCH  20  21
ATOM     21  N   UNL     1       2.800   2.132  18.029  0.00  0.00    +0.000 N 
ATOM     22  O   UNL     1       3.682   1.270  17.940  0.00  0.00    +0.000 OA
ATOM     23  O   UNL     1       2.210   2.677  17.088  0.00  0.00    +0.000 OA
ENDBRANCH  20  21
ENDBRANCH  12  15
ENDBRANCH   1  12
BRANCH   1  24
ATOM     24  C   UNL     1       2.797   5.975  17.750  0.00  0.00    +0.000 C 
BRANCH  24  25
ATOM     25  C   UNL     1       2.746   7.415  18.237  0.00  0.00    +0.000 C 
ATOM     26  O   UNL     1       3.370   8.314  17.675  0.00  0.00    +0.000 OA
ATOM     27  N   UNL     1       1.868   7.679  19.265  0.00  0.00    +0.000 N 
ATOM     28  H   UNL     1       1.387   6.921  19.721  0.00  0.00    +0.000 HD
BRANCH  27  29
ATOM     29  C   UNL     1       1.778   8.977  19.896  0.00  0.00    +0.000 C 
BRANCH  29  30
ATOM     30  C   UNL     1       0.524   9.692  19.487  0.00  0.00    +0.000 A 
ATOM     31  C   UNL     1       0.054   9.638  18.171  0.00  0.00    +0.000 A 
ATOM     32  C   UNL     1      -1.086  10.352  17.812  0.00  0.00    +0.000 A 
ATOM     33  C   UNL     1      -1.720  11.104  18.786  0.00  0.00    +0.000 A 
ATOM     34  N   UNL     1      -1.300  11.179  20.067  0.00  0.00    +0.000 NA
ATOM     35  C   UNL     1      -0.188  10.479  20.386  0.00  0.00    +0.000 A 
ENDBRANCH  29  30
ENDBRANCH  27  29
ENDBRANCH  24  25
ENDBRANCH   1  24
TORSDOF 10
ENDMDL
MODEL 9
REMARK VINA RESULT:      -7.5      1.905      2.451
REMARK  Name = 
REMARK  12 active torsions:
REMARK  status: ('A' for Active; 'I' for Inactive)
REMARK    1  A    between atoms: C_1  and  O_2
REMARK    2  A    between atoms: O_2  and  C_3
REMARK    3  A    between atoms: C_6  and  N_7
REMARK    4  A    between atoms: N_7  and  C_8
REMARK    5  A    between atoms: N_7  and  S_19
REMARK    6  A    between atoms: C_8  and  C_9
REMARK    7  A    between atoms: N_11  and  C_12
REMARK    8  A    between atoms: C_12  and  C_13
REMARK    9  A    between atoms: S_19  and  C_22
REMARK   10  A    between atoms: C_27  and  N_28
REMARK   11  A    between atoms: C_31  and  O_32
REMARK   12  A    between atoms: O_32  and  C_33
REMARK                            x       y       z     vdW  Elec       q    Type
REMARK                         _______ _______ _______ _____ _____    ______ ____
ROOT
ATOM      1  N   UNL     1       4.093   5.217  17.609  0.00  0.00    +0.000 N 
ENDROOT
BRANCH   1   5
ATOM      2  C   UNL     1       6.760   4.967  14.352  0.00  0.00    +0.000 A 
ATOM      3  C   UNL     1       5.580   4.224  14.371  0.00  0.00    +0.000 A 
ATOM      4  C   UNL     1       4.643   4.398  15.389  0.00  0.00    +0.000 A 
ATOM      5  C   UNL     1       4.900   5.297  16.426  0.00  0.00    +0.000 A 
ATOM      6  C   UNL     1       6.028   6.151  16.349  0.00  0.00    +0.000 A 
ATOM      7  C   UNL     1       6.963   5.955  15.316  0.00  0.00    +0.000 A 
BRANCH   2   9
ATOM      8  C   UNL     1       7.086   3.995  12.197  0.00  0.00    +0.000 C 
ATOM      9  O   UNL     1       7.628   4.631  13.350  0.00  0.00    +0.000 OA
ENDBRANCH   2   9
BRANCH   6  10
ATOM     10  O   UNL     1       6.173   7.112  17.321  0.00  0.00    +0.000 OA
ATOM     11  C   UNL     1       7.510   7.518  17.628  0.00  0.00    +0.000 C 
ENDBRANCH   6  10
ENDBRANCH   1   5
BRANCH   1  12
ATOM     12  S   UNL     1       4.707   4.483  19.001  0.00  0.00    +0.000 S 
ATOM     13  O   UNL     1       5.546   3.371  18.619  0.00  0.00    +0.000 OA
ATOM     14  O   UNL     1       5.205   5.497  19.909  0.00  0.00    +0.000 OA
BRANCH  12  15
ATOM     15  C   UNL     1       3.265   3.787  19.814  0.00  0.00    +0.000 A 
ATOM     16  C   UNL     1       2.911   4.290  21.072  0.00  0.00    +0.000 A 
ATOM     17  C   UNL     1       1.904   3.677  21.829  0.00  0.00    +0.000 A 
ATOM     18  C   UNL     1       1.254   2.538  21.355  0.00  0.00    +0.000 A 
ATOM     19  C   UNL     1       1.597   2.018  20.109  0.00  0.00    +0.000 A 
ATOM     20  C   UNL     1       2.601   2.644  19.348  0.00  0.00    +0.000 A 
BRANCH  20  21
ATOM     21  N   UNL     1       2.837   2.076  18.038  0.00  0.00    +0.000 N 
ATOM     22  O   UNL     1       3.718   1.210  17.969  0.00  0.00    +0.000 OA
ATOM     23  O   UNL     1       2.249   2.600  17.084  0.00  0.00    +0.000 OA
ENDBRANCH  20  21
ENDBRANCH  12  15
ENDBRANCH   1  12
BRANCH   1  24
ATOM     24  C   UNL     1       2.789   5.907  17.694  0.00  0.00    +0.000 C 
BRANCH  24  25
ATOM     25  C   UNL     1       2.645   7.224  18.440  0.00  0.00    +0.000 C 
ATOM     26  O   UNL     1       2.671   7.281  19.668  0.00  0.00    +0.000 OA
ATOM     27  N   UNL     1       2.606   8.362  17.666  0.00  0.00    +0.000 N 
ATOM     28  H   UNL     1       2.563   8.284  16.663  0.00  0.00    +0.000 HD
BRANCH  27  29
ATOM     29  C   UNL     1       2.377   9.675  18.224  0.00  0.00    +0.000 C 
BRANCH  29  30
ATOM     30  C   UNL     1       0.911   9.990  18.283  0.00  0.00    +0.000 A 
ATOM     31  C   UNL     1       0.388  10.833  19.268  0.00  0.00    +0.000 A 
ATOM     32  C   UNL     1      -0.983  11.067  19.325  0.00  0.00    +0.000 A 
ATOM     33  C   UNL     1      -1.792  10.444  18.391  0.00  0.00    +0.000 A 
ATOM     34  N   UNL     1      -1.326   9.627  17.422  0.00  0.00    +0.000 NA
ATOM     35  C   UNL     1       0.010   9.414  17.394  0.00  0.00    +0.000 A 
ENDBRANCH  29  30
ENDBRANCH  27  29
ENDBRANCH  24  25
ENDBRANCH   1  24
TORSDOF 10
ENDMDL
