MODEL 1
REMARK VINA RESULT:      -8.4      0.000      0.000
REMARK  Name = 
REMARK  4 active torsions:
REMARK  status: ('A' for Active; 'I' for Inactive)
REMARK    1  A    between atoms: C_2  and  C_4
REMARK    2  A    between atoms: C_4  and  C_5
REMARK    3  A    between atoms: C_4  and  C_11
REMARK    4  A    between atoms: C_14  and  C_15
REMARK                            x       y       z     vdW  Elec       q    Type
REMARK                         _______ _______ _______ _____ _____    ______ ____
ROOT
ATOM      1  C   UNL     1       6.204   5.623  17.394  0.00  0.00    +0.000 C 
ENDROOT
BRANCH   1   2
ATOM      2  C   UNL     1       4.979   5.153  18.168  0.00  0.00    +0.000 A 
ATOM      3  N   UNL     1       5.122   3.935  18.791  0.00  0.00    +0.000 NA
ATOM      4  C   UNL     1       4.122   3.500  19.594  0.00  0.00    +0.000 A 
ATOM      5  C   UNL     1       2.938   4.184  19.794  0.00  0.00    +0.000 A 
ATOM      6  C   UNL     1       2.780   5.399  19.120  0.00  0.00    +0.000 A 
ATOM      7  C   UNL     1       3.803   5.901  18.311  0.00  0.00    +0.000 A 
ATOM      8 CL   UNL     1       3.527   7.441  17.591  0.00  0.00    +0.000 Cl
BRANCH   5   9
ATOM      9  C   UNL     1       1.874   3.663  20.709  0.00  0.00    +0.000 C 
ATOM     10  F   UNL     1       2.195   3.762  22.029  0.00  0.00    +0.000 F 
ATOM     11  F   UNL     1       0.692   4.320  20.563  0.00  0.00    +0.000 F 
ATOM     12  F   UNL     1       1.599   2.348  20.491  0.00  0.00    +0.000 F 
ENDBRANCH   5   9
ENDBRANCH   1   2
BRANCH   1  13
ATOM     13  C   UNL     1       6.269   5.132  15.948  0.00  0.00    +0.000 A 
ATOM     14  C   UNL     1       5.258   4.333  15.407  0.00  0.00    +0.000 A 
ATOM     15  C   UNL     1       5.359   3.908  14.086  0.00  0.00    +0.000 A 
ATOM     16  C   UNL     1       6.471   4.264  13.336  0.00  0.00    +0.000 A 
ATOM     17  C   UNL     1       7.455   5.014  13.949  0.00  0.00    +0.000 A 
ATOM     18  N   UNL     1       7.386   5.435  15.231  0.00  0.00    +0.000 NA
ENDBRANCH   1  13
BRANCH   1  20
ATOM     19  N   UNL     1       8.187   4.228  17.865  0.00  0.00    +0.000 N 
ATOM     20  C   UNL     1       7.498   5.370  18.176  0.00  0.00    +0.000 C 
ATOM     21  O   UNL     1       7.939   6.075  19.077  0.00  0.00    +0.000 OA
ATOM     22  H   UNL     1       9.017   4.034  18.413  0.00  0.00    +0.000 HD
ATOM     23  H   UNL     1       7.860   3.528  17.214  0.00  0.00    +0.000 HD
ENDBRANCH   1  20
TORSDOF 4
ENDMDL
MODEL 2
REMARK VINA RESULT:      -8.3      0.740      1.105
REMARK  Name = 
REMARK  4 active torsions:
REMARK  status: ('A' for Active; 'I' for Inactive)
REMARK    1  A    between atoms: C_2  and  C_4
REMARK    2  A    between atoms: C_4  and  C_5
REMARK    3  A    between atoms: C_4  and  C_11
REMARK    4  A    between atoms: C_14  and  C_15
REMARK                            x       y       z     vdW  Elec       q    Type
REMARK                         _______ _______ _______ _____ _____    ______ ____
ROOT
ATOM      1  C   UNL     1       6.423   5.349  17.566  0.00  0.00    +0.000 C 
ENDROOT
BRANCH   1   2
ATOM      2  C   UNL     1       5.160   4.940  18.314  0.00  0.00    +0.000 A 
ATOM      3  N   UNL     1       5.260   3.758  19.011  0.00  0.00    +0.000 NA
ATOM      4  C   UNL     1       4.221   3.382  19.795  0.00  0.00    +0.000 A 
ATOM      5  C   UNL     1       3.040   4.091  19.905  0.00  0.00    +0.000 A 
ATOM      6  C   UNL     1       2.928   5.267  19.157  0.00  0.00    +0.000 A 
ATOM      7  C   UNL     1       3.991   5.709  18.364  0.00  0.00    +0.000 A 
ATOM      8 CL   UNL     1       3.767   7.208  17.547  0.00  0.00    +0.000 Cl
BRANCH   5   9
ATOM      9  C   UNL     1       1.932   3.637  20.804  0.00  0.00    +0.000 C 
ATOM     10  F   UNL     1       1.589   2.331  20.628  0.00  0.00    +0.000 F 
ATOM     11  F   UNL     1       2.244   3.765  22.122  0.00  0.00    +0.000 F 
ATOM     12  F   UNL     1       0.789   4.351  20.620  0.00  0.00    +0.000 F 
ENDBRANCH   5   9
ENDBRANCH   1   2
BRANCH   1  13
ATOM     13  C   UNL     1       6.438   4.966  16.086  0.00  0.00    +0.000 A 
ATOM     14  C   UNL     1       5.534   4.034  15.570  0.00  0.00    +0.000 A 
ATOM     15  C   UNL     1       5.584   3.714  14.216  0.00  0.00    +0.000 A 
ATOM     16  C   UNL     1       6.544   4.307  13.408  0.00  0.00    +0.000 A 
ATOM     17  C   UNL     1       7.438   5.180  13.996  0.00  0.00    +0.000 A 
ATOM     18  N   UNL     1       7.416   5.504  15.307  0.00  0.00    +0.000 NA
ENDBRANCH   1  13
BRANCH   1  20
ATOM     19  N   UNL     1       7.943   5.546  19.502  0.00  0.00    +0.000 N 
ATOM     20  C   UNL     1       7.689   4.915  18.314  0.00  0.00    +0.000 C 
ATOM     21  O   UNL     1       8.506   4.091  17.919  0.00  0.00    +0.000 OA
ATOM     22  H   UNL     1       8.803   5.294  19.977  0.00  0.00    +0.000 HD
ATOM     23  H   UNL     1       7.392   6.310  19.869  0.00  0.00    +0.000 HD
ENDBRANCH   1  20
TORSDOF 4
ENDMDL
MODEL 3
REMARK VINA RESULT:      -8.1      0.812      1.018
REMARK  Name = 
REMARK  4 active torsions:
REMARK  status: ('A' for Active; 'I' for Inactive)
REMARK    1  A    between atoms: C_2  and  C_4
REMARK    2  A    between atoms: C_4  and  C_5
REMARK    3  A    between atoms: C_4  and  C_11
REMARK    4  A    between atoms: C_14  and  C_15
REMARK                            x       y       z     vdW  Elec       q    Type
REMARK                         _______ _______ _______ _____ _____    ______ ____
ROOT
ATOM      1  C   UNL     1       5.912   5.652  16.912  0.00  0.00    +0.000 C 
ENDROOT
BRANCH   1   2
ATOM      2  C   UNL     1       4.632   5.107  17.535  0.00  0.00    +0.000 A 
ATOM      3  N   UNL     1       4.663   3.765  17.837  0.00  0.00    +0.000 NA
ATOM      4  C   UNL     1       3.610   3.228  18.497  0.00  0.00    +0.000 A 
ATOM      5  C   UNL     1       2.477   3.936  18.850  0.00  0.00    +0.000 A 
ATOM      6  C   UNL     1       2.432   5.289  18.499  0.00  0.00    +0.000 A 
ATOM      7  C   UNL     1       3.513   5.890  17.849  0.00  0.00    +0.000 A 
ATOM      8 CL   UNL     1       3.378   7.577  17.533  0.00  0.00    +0.000 Cl
BRANCH   5   9
ATOM      9  C   UNL     1       1.350   3.293  19.598  0.00  0.00    +0.000 C 
ATOM     10  F   UNL     1       0.555   4.182  20.254  0.00  0.00    +0.000 F 
ATOM     11  F   UNL     1       0.523   2.582  18.785  0.00  0.00    +0.000 F 
ATOM     12  F   UNL     1       1.788   2.417  20.543  0.00  0.00    +0.000 F 
ENDBRANCH   5   9
ENDBRANCH   1   2
BRANCH   1  13
ATOM     13  C   UNL     1       6.197   5.145  15.499  0.00  0.00    +0.000 A 
ATOM     14  C   UNL     1       5.304   4.298  14.839  0.00  0.00    +0.000 A 
ATOM     15  C   UNL     1       5.605   3.859  13.552  0.00  0.00    +0.000 A 
ATOM     16  C   UNL     1       6.797   4.250  12.958  0.00  0.00    +0.000 A 
ATOM     17  C   UNL     1       7.656   5.047  13.689  0.00  0.00    +0.000 A 
ATOM     18  N   UNL     1       7.392   5.482  14.940  0.00  0.00    +0.000 NA
ENDBRANCH   1  13
BRANCH   1  20
ATOM     19  N   UNL     1       7.708   4.276  17.901  0.00  0.00    +0.000 N 
ATOM     20  C   UNL     1       7.108   5.505  17.860  0.00  0.00    +0.000 C 
ATOM     21  O   UNL     1       7.538   6.376  18.609  0.00  0.00    +0.000 OA
ATOM     22  H   UNL     1       8.470   4.163  18.560  0.00  0.00    +0.000 HD
ATOM     23  H   UNL     1       7.371   3.463  17.404  0.00  0.00    +0.000 HD
ENDBRANCH   1  20
TORSDOF 4
ENDMDL
MODEL 4
REMARK VINA RESULT:      -7.5      0.974      1.518
REMARK  Name = 
REMARK  4 active torsions:
REMARK  status: ('A' for Active; 'I' for Inactive)
REMARK    1  A    between atoms: C_2  and  C_4
REMARK    2  A    between atoms: C_4  and  C_5
REMARK    3  A    between atoms: C_4  and  C_11
REMARK    4  A    between atoms: C_14  and  C_15
REMARK                            x       y       z     vdW  Elec       q    Type
REMARK                         _______ _______ _______ _____ _____    ______ ____
ROOT
ATOM      1  C   UNL     1       6.296   5.242  17.554  0.00  0.00    +0.000 C 
ENDROOT
BRANCH   1   2
ATOM      2  C   UNL     1       5.045   4.826  18.318  0.00  0.00    +0.000 A 
ATOM      3  N   UNL     1       5.150   3.629  18.989  0.00  0.00    +0.000 NA
ATOM      4  C   UNL     1       4.124   3.244  19.785  0.00  0.00    +0.000 A 
ATOM      5  C   UNL     1       2.950   3.958  19.933  0.00  0.00    +0.000 A 
ATOM      6  C   UNL     1       2.831   5.150  19.211  0.00  0.00    +0.000 A 
ATOM      7  C   UNL     1       3.881   5.601  18.407  0.00  0.00    +0.000 A 
ATOM      8 CL   UNL     1       3.653   7.118  17.625  0.00  0.00    +0.000 Cl
BRANCH   5   9
ATOM      9  C   UNL     1       1.856   3.492  20.843  0.00  0.00    +0.000 C 
ATOM     10  F   UNL     1       1.546   2.175  20.692  0.00  0.00    +0.000 F 
ATOM     11  F   UNL     1       2.168   3.653  22.158  0.00  0.00    +0.000 F 
ATOM     12  F   UNL     1       0.695   4.173  20.650  0.00  0.00    +0.000 F 
ENDBRANCH   5   9
ENDBRANCH   1   2
BRANCH   1  13
ATOM     13  C   UNL     1       6.312   4.823  16.085  0.00  0.00    +0.000 A 
ATOM     14  C   UNL     1       7.274   5.318  15.200  0.00  0.00    +0.000 A 
ATOM     15  C   UNL     1       7.250   4.910  13.870  0.00  0.00    +0.000 A 
ATOM     16  C   UNL     1       6.259   4.039  13.439  0.00  0.00    +0.000 A 
ATOM     17  C   UNL     1       5.311   3.630  14.356  0.00  0.00    +0.000 A 
ATOM     18  N   UNL     1       5.306   4.014  15.650  0.00  0.00    +0.000 NA
ENDBRANCH   1  13
BRANCH   1  20
ATOM     19  N   UNL     1       7.764   5.436  19.531  0.00  0.00    +0.000 N 
ATOM     20  C   UNL     1       7.573   4.853  18.307  0.00  0.00    +0.000 C 
ATOM     21  O   UNL     1       8.450   4.104  17.889  0.00  0.00    +0.000 OA
ATOM     22  H   UNL     1       8.630   5.216  20.010  0.00  0.00    +0.000 HD
ATOM     23  H   UNL     1       7.158   6.143  19.923  0.00  0.00    +0.000 HD
ENDBRANCH   1  20
TORSDOF 4
ENDMDL
MODEL 5
REMARK VINA RESULT:      -7.5      0.923      1.302
REMARK  Name = 
REMARK  4 active torsions:
REMARK  status: ('A' for Active; 'I' for Inactive)
REMARK    1  A    between atoms: C_2  and  C_4
REMARK    2  A    between atoms: C_4  and  C_5
REMARK    3  A    between atoms: C_4  and  C_11
REMARK    4  A    between atoms: C_14  and  C_15
REMARK                            x       y       z     vdW  Elec       q    Type
REMARK                         _______ _______ _______ _____ _____    ______ ____
ROOT
ATOM      1  C   UNL     1       5.743   6.179  16.931  0.00  0.00    +0.000 C 
ENDROOT
BRANCH   1   2
ATOM      2  C   UNL     1       4.807   5.454  17.890  0.00  0.00    +0.000 A 
ATOM      3  N   UNL     1       5.244   4.214  18.296  0.00  0.00    +0.000 NA
ATOM      4  C   UNL     1       4.527   3.554  19.237  0.00  0.00    +0.000 A 
ATOM      5  C   UNL     1       3.352   4.029  19.787  0.00  0.00    +0.000 A 
ATOM      6  C   UNL     1       2.889   5.269  19.336  0.00  0.00    +0.000 A 
ATOM      7  C   UNL     1       3.618   5.999  18.393  0.00  0.00    +0.000 A 
ATOM      8 CL   UNL     1       2.991   7.545  17.967  0.00  0.00    +0.000 Cl
BRANCH   5   9
ATOM      9  C   UNL     1       2.612   3.263  20.840  0.00  0.00    +0.000 C 
ATOM     10  F   UNL     1       1.530   2.589  20.363  0.00  0.00    +0.000 F 
ATOM     11  F   UNL     1       3.392   2.331  21.452  0.00  0.00    +0.000 F 
ATOM     12  F   UNL     1       2.143   4.066  21.833  0.00  0.00    +0.000 F 
ENDBRANCH   5   9
ENDBRANCH   1   2
BRANCH   1  13
ATOM     13  C   UNL     1       6.028   5.427  15.631  0.00  0.00    +0.000 A 
ATOM     14  C   UNL     1       5.074   4.583  15.057  0.00  0.00    +0.000 A 
ATOM     15  C   UNL     1       5.377   3.917  13.873  0.00  0.00    +0.000 A 
ATOM     16  C   UNL     1       6.629   4.083  13.297  0.00  0.00    +0.000 A 
ATOM     17  C   UNL     1       7.540   4.892  13.945  0.00  0.00    +0.000 A 
ATOM     18  N   UNL     1       7.275   5.546  15.097  0.00  0.00    +0.000 NA
ENDBRANCH   1  13
BRANCH   1  20
ATOM     19  N   UNL     1       7.709   5.728  18.355  0.00  0.00    +0.000 N 
ATOM     20  C   UNL     1       7.013   6.664  17.639  0.00  0.00    +0.000 C 
ATOM     21  O   UNL     1       7.428   7.818  17.653  0.00  0.00    +0.000 OA
ATOM     22  H   UNL     1       8.524   6.056  18.862  0.00  0.00    +0.000 HD
ATOM     23  H   UNL     1       7.402   4.775  18.494  0.00  0.00    +0.000 HD
ENDBRANCH   1  20
TORSDOF 4
ENDMDL
MODEL 6
REMARK VINA RESULT:      -7.4      1.957      3.302
REMARK  Name = 
REMARK  4 active torsions:
REMARK  status: ('A' for Active; 'I' for Inactive)
REMARK    1  A    between atoms: C_2  and  C_4
REMARK    2  A    between atoms: C_4  and  C_5
REMARK    3  A    between atoms: C_4  and  C_11
REMARK    4  A    between atoms: C_14  and  C_15
REMARK                            x       y       z     vdW  Elec       q    Type
REMARK                         _______ _______ _______ _____ _____    ______ ____
ROOT
ATOM      1  C   UNL     1       6.018   4.445  16.574  0.00  0.00    +0.000 C 
ENDROOT
BRANCH   1   2
ATOM      2  C   UNL     1       4.670   4.136  17.214  0.00  0.00    +0.000 A 
ATOM      3  N   UNL     1       4.447   2.804  17.474  0.00  0.00    +0.000 NA
ATOM      4  C   UNL     1       3.323   2.457  18.145  0.00  0.00    +0.000 A 
ATOM      5  C   UNL     1       2.355   3.357  18.549  0.00  0.00    +0.000 A 
ATOM      6  C   UNL     1       2.566   4.705  18.240  0.00  0.00    +0.000 A 
ATOM      7  C   UNL     1       3.730   5.108  17.580  0.00  0.00    +0.000 A 
ATOM      8 CL   UNL     1       3.917   6.800  17.318  0.00  0.00    +0.000 Cl
BRANCH   5   9
ATOM      9  C   UNL     1       1.141   2.918  19.307  0.00  0.00    +0.000 C 
ATOM     10  F   UNL     1       0.218   2.282  18.534  0.00  0.00    +0.000 F 
ATOM     11  F   UNL     1       1.439   2.057  20.317  0.00  0.00    +0.000 F 
ATOM     12  F   UNL     1       0.486   3.960  19.887  0.00  0.00    +0.000 F 
ENDBRANCH   5   9
ENDBRANCH   1   2
BRANCH   1  13
ATOM     13  C   UNL     1       6.820   5.539  17.280  0.00  0.00    +0.000 A 
ATOM     14  C   UNL     1       7.413   5.314  18.525  0.00  0.00    +0.000 A 
ATOM     15  C   UNL     1       8.133   6.339  19.132  0.00  0.00    +0.000 A 
ATOM     16  C   UNL     1       8.231   7.572  18.502  0.00  0.00    +0.000 A 
ATOM     17  C   UNL     1       7.579   7.738  17.297  0.00  0.00    +0.000 A 
ATOM     18  N   UNL     1       6.868   6.764  16.688  0.00  0.00    +0.000 NA
ENDBRANCH   1  13
BRANCH   1  20
ATOM     19  N   UNL     1       7.021   5.067  14.405  0.00  0.00    +0.000 N 
ATOM     20  C   UNL     1       5.888   4.672  15.064  0.00  0.00    +0.000 C 
ATOM     21  O   UNL     1       4.854   4.574  14.412  0.00  0.00    +0.000 OA
ATOM     22  H   UNL     1       6.927   5.262  13.414  0.00  0.00    +0.000 HD
ATOM     23  H   UNL     1       7.898   5.277  14.860  0.00  0.00    +0.000 HD
ENDBRANCH   1  20
TORSDOF 4
ENDMDL
MODEL 7
REMARK VINA RESULT:      -7.4      3.238      4.315
REMARK  Name = 
REMARK  4 active torsions:
REMARK  status: ('A' for Active; 'I' for Inactive)
REMARK    1  A    between atoms: C_2  and  C_4
REMARK    2  A    between atoms: C_4  and  C_5
REMARK    3  A    between atoms: C_4  and  C_11
REMARK    4  A    between atoms: C_14  and  C_15
REMARK                            x       y       z     vdW  Elec       q    Type
REMARK                         _______ _______ _______ _____ _____    ______ ____
ROOT
ATOM      1  C   UNL     1       3.559   3.780  18.646  0.00  0.00    +0.000 C 
ENDROOT
BRANCH   1   2
ATOM      2  C   UNL     1       2.943   4.970  19.371  0.00  0.00    +0.000 A 
ATOM      3  N   UNL     1       3.119   6.182  18.744  0.00  0.00    +0.000 NA
ATOM      4  C   UNL     1       2.505   7.272  19.263  0.00  0.00    +0.000 A 
ATOM      5  C   UNL     1       1.744   7.254  20.417  0.00  0.00    +0.000 A 
ATOM      6  C   UNL     1       1.607   6.027  21.075  0.00  0.00    +0.000 A 
ATOM      7  C   UNL     1       2.196   4.872  20.552  0.00  0.00    +0.000 A 
ATOM      8 CL   UNL     1       1.900   3.406  21.406  0.00  0.00    +0.000 Cl
BRANCH   5   9
ATOM      9  C   UNL     1       1.071   8.488  20.933  0.00  0.00    +0.000 C 
ATOM     10  F   UNL     1       1.709   9.052  21.995  0.00  0.00    +0.000 F 
ATOM     11  F   UNL     1       0.979   9.465  19.991  0.00  0.00    +0.000 F 
ATOM     12  F   UNL     1      -0.203   8.249  21.347  0.00  0.00    +0.000 F 
ENDBRANCH   5   9
ENDBRANCH   1   2
BRANCH   1  13
ATOM     13  C   UNL     1       4.825   4.104  17.854  0.00  0.00    +0.000 A 
ATOM     14  C   UNL     1       4.829   4.090  16.457  0.00  0.00    +0.000 A 
ATOM     15  C   UNL     1       6.005   4.391  15.775  0.00  0.00    +0.000 A 
ATOM     16  C   UNL     1       7.158   4.676  16.494  0.00  0.00    +0.000 A 
ATOM     17  C   UNL     1       7.094   4.622  17.872  0.00  0.00    +0.000 A 
ATOM     18  N   UNL     1       5.968   4.327  18.559  0.00  0.00    +0.000 NA
ENDBRANCH   1  13
BRANCH   1  20
ATOM     19  N   UNL     1       2.609   1.649  17.836  0.00  0.00    +0.000 N 
ATOM     20  C   UNL     1       2.513   3.015  17.827  0.00  0.00    +0.000 C 
ATOM     21  O   UNL     1       1.635   3.521  17.136  0.00  0.00    +0.000 OA
ATOM     22  H   UNL     1       1.947   1.143  17.259  0.00  0.00    +0.000 HD
ATOM     23  H   UNL     1       3.353   1.135  18.287  0.00  0.00    +0.000 HD
ENDBRANCH   1  20
TORSDOF 4
ENDMDL
MODEL 8
REMARK VINA RESULT:      -7.3      2.026      3.239
REMARK  Name = 
REMARK  4 active torsions:
REMARK  status: ('A' for Active; 'I' for Inactive)
REMARK    1  A    between atoms: C_2  and  C_4
REMARK    2  A    between atoms: C_4  and  C_5
REMARK    3  A    between atoms: C_4  and  C_11
REMARK    4  A    between atoms: C_14  and  C_15
REMARK                            x       y       z     vdW  Elec       q    Type
REMARK                         _______ _______ _______ _____ _____    ______ ____
ROOT
ATOM      1  C   UNL     1       5.735   4.643  16.513  0.00  0.00    +0.000 C 
ENDROOT
BRANCH   1   2
ATOM      2  C   UNL     1       4.434   4.295  17.225  0.00  0.00    +0.000 A 
ATOM      3  N   UNL     1       4.198   2.947  17.370  0.00  0.00    +0.000 NA
ATOM      4  C   UNL     1       3.121   2.555  18.092  0.00  0.00    +0.000 A 
ATOM      5  C   UNL     1       2.212   3.428  18.660  0.00  0.00    +0.000 A 
ATOM      6  C   UNL     1       2.433   4.795  18.469  0.00  0.00    +0.000 A 
ATOM      7  C   UNL     1       3.552   5.242  17.760  0.00  0.00    +0.000 A 
ATOM      8 CL   UNL     1       3.761   6.948  17.652  0.00  0.00    +0.000 Cl
BRANCH   5   9
ATOM      9  C   UNL     1       1.050   2.937  19.466  0.00  0.00    +0.000 C 
ATOM     10  F   UNL     1       1.402   2.076  20.461  0.00  0.00    +0.000 F 
ATOM     11  F   UNL     1       0.371   3.948  20.071  0.00  0.00    +0.000 F 
ATOM     12  F   UNL     1       0.135   2.275  18.707  0.00  0.00    +0.000 F 
ENDBRANCH   5   9
ENDBRANCH   1   2
BRANCH   1  13
ATOM     13  C   UNL     1       6.646   5.598  17.283  0.00  0.00    +0.000 A 
ATOM     14  C   UNL     1       7.179   5.247  18.527  0.00  0.00    +0.000 A 
ATOM     15  C   UNL     1       8.003   6.149  19.194  0.00  0.00    +0.000 A 
ATOM     16  C   UNL     1       8.263   7.388  18.625  0.00  0.00    +0.000 A 
ATOM     17  C   UNL     1       7.663   7.687  17.418  0.00  0.00    +0.000 A 
ATOM     18  N   UNL     1       6.854   6.834  16.752  0.00  0.00    +0.000 NA
ENDBRANCH   1  13
BRANCH   1  20
ATOM     19  N   UNL     1       5.252   6.415  14.862  0.00  0.00    +0.000 N 
ATOM     20  C   UNL     1       5.486   5.082  15.065  0.00  0.00    +0.000 C 
ATOM     21  O   UNL     1       5.437   4.339  14.091  0.00  0.00    +0.000 OA
ATOM     22  H   UNL     1       5.041   6.701  13.913  0.00  0.00    +0.000 HD
ATOM     23  H   UNL     1       5.168   7.096  15.605  0.00  0.00    +0.000 HD
ENDBRANCH   1  20
TORSDOF 4
ENDMDL
MODEL 9
REMARK VINA RESULT:      -7.3      1.876      3.200
REMARK  Name = 
REMARK  4 active torsions:
REMARK  status: ('A' for Active; 'I' for Inactive)
REMARK    1  A    between atoms: C_2  and  C_4
REMARK    2  A    between atoms: C_4  and  C_5
REMARK    3  A    between atoms: C_4  and  C_11
REMARK    4  A    between atoms: C_14  and  C_15
REMARK                            x       y       z     vdW  Elec       q    Type
REMARK                         _______ _______ _______ _____ _____    ______ ____
ROOT
ATOM      1  C   UNL     1       5.841   4.256  16.724  0.00  0.00    +0.000 C 
ENDROOT
BRANCH   1   2
ATOM      2  C   UNL     1       4.492   3.981  17.377  0.00  0.00    +0.000 A 
ATOM      3  N   UNL     1       4.232   2.655  17.631  0.00  0.00    +0.000 NA
ATOM      4  C   UNL     1       3.106   2.336  18.312  0.00  0.00    +0.000 A 
ATOM      5  C   UNL     1       2.171   3.262  18.734  0.00  0.00    +0.000 A 
ATOM      6  C   UNL     1       2.417   4.605  18.431  0.00  0.00    +0.000 A 
ATOM      7  C   UNL     1       3.586   4.979  17.761  0.00  0.00    +0.000 A 
ATOM      8 CL   UNL     1       3.820   6.665  17.508  0.00  0.00    +0.000 Cl
BRANCH   5   9
ATOM      9  C   UNL     1       0.952   2.854  19.502  0.00  0.00    +0.000 C 
ATOM     10  F   UNL     1       1.220   2.020  20.545  0.00  0.00    +0.000 F 
ATOM     11  F   UNL     1       0.292   3.917  20.036  0.00  0.00    +0.000 F 
ATOM     12  F   UNL     1       0.044   2.201  18.727  0.00  0.00    +0.000 F 
ENDBRANCH   5   9
ENDBRANCH   1   2
BRANCH   1  13
ATOM     13  C   UNL     1       6.697   5.296  17.446  0.00  0.00    +0.000 A 
ATOM     14  C   UNL     1       6.992   6.528  16.856  0.00  0.00    +0.000 A 
ATOM     15  C   UNL     1       7.776   7.445  17.549  0.00  0.00    +0.000 A 
ATOM     16  C   UNL     1       8.270   7.113  18.803  0.00  0.00    +0.000 A 
ATOM     17  C   UNL     1       7.980   5.859  19.303  0.00  0.00    +0.000 A 
ATOM     18  N   UNL     1       7.228   4.947  18.650  0.00  0.00    +0.000 NA
ENDBRANCH   1  13
BRANCH   1  20
ATOM     19  N   UNL     1       6.286   3.629  14.377  0.00  0.00    +0.000 N 
ATOM     20  C   UNL     1       5.697   4.529  15.222  0.00  0.00    +0.000 C 
ATOM     21  O   UNL     1       5.141   5.502  14.723  0.00  0.00    +0.000 OA
ATOM     22  H   UNL     1       6.232   3.832  13.385  0.00  0.00    +0.000 HD
ATOM     23  H   UNL     1       6.855   2.851  14.683  0.00  0.00    +0.000 HD
ENDBRANCH   1  20
TORSDOF 4
ENDMDL
