MODEL 1
REMARK VINA RESULT:      -5.3      0.000      0.000
REMARK  Name = 
REMARK  4 active torsions:
REMARK  status: ('A' for Active; 'I' for Inactive)
REMARK    1  A    between atoms: C_2  and  S_3
REMARK    2  A    between atoms: S_3  and  C_4
REMARK    3  A    between atoms: C_6  and  C_7
REMARK    4  A    between atoms: C_6  and  N_12
REMARK                            x       y       z     vdW  Elec       q    Type
REMARK                         _______ _______ _______ _____ _____    ______ ____
ROOT
ATOM      1  C   UNL     1       3.541   3.676  18.515  0.00  0.00    +0.000 C 
ATOM      2 CL   UNL     1       1.887   3.727  17.925  0.00  0.00    +0.000 Cl
ATOM      3  C   UNL     1       4.330   4.759  18.360  0.00  0.00    +0.000 C 
ENDROOT
BRANCH   3   4
ATOM      4  C   UNL     1       3.964   6.053  17.805  0.00  0.00    +0.000 C 
ATOM      5 CL   UNL     1       4.732   6.406  16.267  0.00  0.00    +0.000 Cl
ATOM      6  C   UNL     1       3.093   6.920  18.358  0.00  0.00    +0.000 C 
ATOM      7 CL   UNL     1       2.676   8.434  17.622  0.00  0.00    +0.000 Cl
ATOM      8 CL   UNL     1       2.318   6.608  19.880  0.00  0.00    +0.000 Cl
ENDBRANCH   3   4
BRANCH   3   9
ATOM      9  N   UNL     1       5.690   4.662  18.847  0.00  0.00    +0.000 N 
ATOM     10  O   UNL     1       5.929   5.167  19.953  0.00  0.00    +0.000 OA
ATOM     11  O   UNL     1       6.529   4.130  18.106  0.00  0.00    +0.000 OA
ENDBRANCH   3   9
BRANCH   1  12
ATOM     12  S   UNL     1       3.946   2.235  19.422  0.00  0.00    +0.000 S 
BRANCH  12  14
ATOM     13  N   UNL     1       2.594   2.875  21.845  0.00  0.00    +0.000 NA
ATOM     14  C   UNL     1       3.143   2.625  20.854  0.00  0.00    +0.000 C 
ENDBRANCH  12  14
ENDBRANCH   1  12
TORSDOF 4
ENDMDL
MODEL 2
REMARK VINA RESULT:      -5.2      3.032      4.300
REMARK  Name = 
REMARK  4 active torsions:
REMARK  status: ('A' for Active; 'I' for Inactive)
REMARK    1  A    between atoms: C_2  and  S_3
REMARK    2  A    between atoms: S_3  and  C_4
REMARK    3  A    between atoms: C_6  and  C_7
REMARK    4  A    between atoms: C_6  and  N_12
REMARK                            x       y       z     vdW  Elec       q    Type
REMARK                         _______ _______ _______ _____ _____    ______ ____
ROOT
ATOM      1  C   UNL     1       4.226   4.593  18.223  0.00  0.00    +0.000 C 
ATOM      2 CL   UNL     1       5.444   5.573  19.024  0.00  0.00    +0.000 Cl
ATOM      3  C   UNL     1       2.959   4.607  18.687  0.00  0.00    +0.000 C 
ENDROOT
BRANCH   3   4
ATOM      4  C   UNL     1       2.419   5.412  19.771  0.00  0.00    +0.000 C 
ATOM      5 CL   UNL     1       2.184   4.521  21.265  0.00  0.00    +0.000 Cl
ATOM      6  C   UNL     1       2.144   6.730  19.701  0.00  0.00    +0.000 C 
ATOM      7 CL   UNL     1       1.532   7.637  21.047  0.00  0.00    +0.000 Cl
ATOM      8 CL   UNL     1       2.359   7.643  18.240  0.00  0.00    +0.000 Cl
ENDBRANCH   3   4
BRANCH   3   9
ATOM      9  N   UNL     1       1.995   3.770  18.004  0.00  0.00    +0.000 N 
ATOM     10  O   UNL     1       1.198   4.336  17.243  0.00  0.00    +0.000 OA
ATOM     11  O   UNL     1       1.999   2.558  18.266  0.00  0.00    +0.000 OA
ENDBRANCH   3   9
BRANCH   1  12
ATOM     12  S   UNL     1       4.770   3.810  16.756  0.00  0.00    +0.000 S 
BRANCH  12  14
ATOM     13  N   UNL     1       5.595   6.134  15.331  0.00  0.00    +0.000 NA
ATOM     14  C   UNL     1       5.249   5.192  15.915  0.00  0.00    +0.000 C 
ENDBRANCH  12  14
ENDBRANCH   1  12
TORSDOF 4
ENDMDL
MODEL 3
REMARK VINA RESULT:      -5.2      2.372      3.208
REMARK  Name = 
REMARK  4 active torsions:
REMARK  status: ('A' for Active; 'I' for Inactive)
REMARK    1  A    between atoms: C_2  and  S_3
REMARK    2  A    between atoms: S_3  and  C_4
REMARK    3  A    between atoms: C_6  and  C_7
REMARK    4  A    between atoms: C_6  and  N_12
REMARK                            x       y       z     vdW  Elec       q    Type
REMARK                         _______ _______ _______ _____ _____    ______ ____
ROOT
ATOM      1  C   UNL     1       2.686   4.230  18.801  0.00  0.00    +0.000 C 
ATOM      2 CL   UNL     1       2.361   5.924  18.465  0.00  0.00    +0.000 Cl
ATOM      3  C   UNL     1       3.936   3.753  18.631  0.00  0.00    +0.000 C 
ENDROOT
BRANCH   3   4
ATOM      4  C   UNL     1       5.128   4.497  18.253  0.00  0.00    +0.000 C 
ATOM      5 CL   UNL     1       5.945   5.259  19.606  0.00  0.00    +0.000 Cl
ATOM      6  C   UNL     1       5.623   4.591  17.003  0.00  0.00    +0.000 C 
ATOM      7 CL   UNL     1       7.072   5.468  16.628  0.00  0.00    +0.000 Cl
ATOM      8 CL   UNL     1       4.840   3.854  15.640  0.00  0.00    +0.000 Cl
ENDBRANCH   3   4
BRANCH   3   9
ATOM      9  N   UNL     1       4.150   2.347  18.904  0.00  0.00    +0.000 N 
ATOM     10  O   UNL     1       4.796   2.064  19.923  0.00  0.00    +0.000 OA
ATOM     11  O   UNL     1       3.721   1.529  18.078  0.00  0.00    +0.000 OA
ENDBRANCH   3   9
BRANCH   1  12
ATOM     12  S   UNL     1       1.343   3.358  19.506  0.00  0.00    +0.000 S 
BRANCH  12  14
ATOM     13  N   UNL     1       2.286   3.252  22.192  0.00  0.00    +0.000 NA
ATOM     14  C   UNL     1       1.905   3.306  21.097  0.00  0.00    +0.000 C 
ENDBRANCH  12  14
ENDBRANCH   1  12
TORSDOF 4
ENDMDL
MODEL 4
REMARK VINA RESULT:      -5.2      2.614      3.457
REMARK  Name = 
REMARK  4 active torsions:
REMARK  status: ('A' for Active; 'I' for Inactive)
REMARK    1  A    between atoms: C_2  and  S_3
REMARK    2  A    between atoms: S_3  and  C_4
REMARK    3  A    between atoms: C_6  and  C_7
REMARK    4  A    between atoms: C_6  and  N_12
REMARK                            x       y       z     vdW  Elec       q    Type
REMARK                         _______ _______ _______ _____ _____    ______ ____
ROOT
ATOM      1  C   UNL     1       3.126   4.474  19.649  0.00  0.00    +0.000 C 
ATOM      2 CL   UNL     1       2.843   6.186  19.369  0.00  0.00    +0.000 Cl
ATOM      3  C   UNL     1       4.262   3.911  19.188  0.00  0.00    +0.000 C 
ENDROOT
BRANCH   3   4
ATOM      4  C   UNL     1       5.371   4.568  18.517  0.00  0.00    +0.000 C 
ATOM      5 CL   UNL     1       6.507   5.336  19.612  0.00  0.00    +0.000 Cl
ATOM      6  C   UNL     1       5.577   4.583  17.184  0.00  0.00    +0.000 C 
ATOM      7 CL   UNL     1       6.945   5.359  16.452  0.00  0.00    +0.000 Cl
ATOM      8 CL   UNL     1       4.474   3.838  16.070  0.00  0.00    +0.000 Cl
ENDBRANCH   3   4
BRANCH   3   9
ATOM      9  N   UNL     1       4.441   2.494  19.428  0.00  0.00    +0.000 N 
ATOM     10  O   UNL     1       3.904   1.716  18.628  0.00  0.00    +0.000 OA
ATOM     11  O   UNL     1       5.072   2.158  20.441  0.00  0.00    +0.000 OA
ENDBRANCH   3   9
BRANCH   1  12
ATOM     12  S   UNL     1       1.941   3.699  20.677  0.00  0.00    +0.000 S 
BRANCH  12  14
ATOM     13  N   UNL     1       0.345   2.508  18.642  0.00  0.00    +0.000 NA
ATOM     14  C   UNL     1       0.997   3.003  19.465  0.00  0.00    +0.000 C 
ENDBRANCH  12  14
ENDBRANCH   1  12
TORSDOF 4
ENDMDL
MODEL 5
REMARK VINA RESULT:      -5.1      2.605      3.156
REMARK  Name = 
REMARK  4 active torsions:
REMARK  status: ('A' for Active; 'I' for Inactive)
REMARK    1  A    between atoms: C_2  and  S_3
REMARK    2  A    between atoms: S_3  and  C_4
REMARK    3  A    between atoms: C_6  and  C_7
REMARK    4  A    between atoms: C_6  and  N_12
REMARK                            x       y       z     vdW  Elec       q    Type
REMARK                         _______ _______ _______ _____ _____    ______ ____
ROOT
ATOM      1  C   UNL     1       2.985   4.632  19.020  0.00  0.00    +0.000 C 
ATOM      2 CL   UNL     1       2.668   6.254  18.422  0.00  0.00    +0.000 Cl
ATOM      3  C   UNL     1       4.040   3.946  18.533  0.00  0.00    +0.000 C 
ENDROOT
BRANCH   3   4
ATOM      4  C   UNL     1       5.041   4.409  17.585  0.00  0.00    +0.000 C 
ATOM      5 CL   UNL     1       4.651   4.050  15.912  0.00  0.00    +0.000 Cl
ATOM      6  C   UNL     1       6.160   5.089  17.903  0.00  0.00    +0.000 C 
ATOM      7 CL   UNL     1       7.296   5.642  16.714  0.00  0.00    +0.000 Cl
ATOM      8 CL   UNL     1       6.581   5.460  19.546  0.00  0.00    +0.000 Cl
ENDBRANCH   3   4
BRANCH   3   9
ATOM      9  N   UNL     1       4.250   2.607  19.044  0.00  0.00    +0.000 N 
ATOM     10  O   UNL     1       4.950   2.497  20.060  0.00  0.00    +0.000 OA
ATOM     11  O   UNL     1       3.762   1.665  18.403  0.00  0.00    +0.000 OA
ENDBRANCH   3   9
BRANCH   1  12
ATOM     12  S   UNL     1       1.963   4.133  20.349  0.00  0.00    +0.000 S 
BRANCH  12  14
ATOM     13  N   UNL     1       0.261   2.355  18.915  0.00  0.00    +0.000 NA
ATOM     14  C   UNL     1       0.955   3.087  19.490  0.00  0.00    +0.000 C 
ENDBRANCH  12  14
ENDBRANCH   1  12
TORSDOF 4
ENDMDL
MODEL 6
REMARK VINA RESULT:      -5.1      2.406      3.302
REMARK  Name = 
REMARK  4 active torsions:
REMARK  status: ('A' for Active; 'I' for Inactive)
REMARK    1  A    between atoms: C_2  and  S_3
REMARK    2  A    between atoms: S_3  and  C_4
REMARK    3  A    between atoms: C_6  and  C_7
REMARK    4  A    between atoms: C_6  and  N_12
REMARK                            x       y       z     vdW  Elec       q    Type
REMARK                         _______ _______ _______ _____ _____    ______ ____
ROOT
ATOM      1  C   UNL     1       2.477   3.653  18.515  0.00  0.00    +0.000 C 
ATOM      2 CL   UNL     1       1.899   5.212  17.945  0.00  0.00    +0.000 Cl
ATOM      3  C   UNL     1       3.805   3.423  18.570  0.00  0.00    +0.000 C 
ENDROOT
BRANCH   3   4
ATOM      4  C   UNL     1       4.882   4.354  18.273  0.00  0.00    +0.000 C 
ATOM      5 CL   UNL     1       5.241   5.463  19.585  0.00  0.00    +0.000 Cl
ATOM      6  C   UNL     1       5.596   4.380  17.130  0.00  0.00    +0.000 C 
ATOM      7 CL   UNL     1       6.893   5.499  16.856  0.00  0.00    +0.000 Cl
ATOM      8 CL   UNL     1       5.267   3.302  15.809  0.00  0.00    +0.000 Cl
ENDBRANCH   3   4
BRANCH   3   9
ATOM      9  N   UNL     1       4.231   2.117  19.030  0.00  0.00    +0.000 N 
ATOM     10  O   UNL     1       3.911   1.144  18.333  0.00  0.00    +0.000 OA
ATOM     11  O   UNL     1       4.837   2.058  20.109  0.00  0.00    +0.000 OA
ENDBRANCH   3   9
BRANCH   1  12
ATOM     12  S   UNL     1       1.227   2.594  19.128  0.00  0.00    +0.000 S 
BRANCH  12  14
ATOM     13  N   UNL     1       1.737   2.962  21.906  0.00  0.00    +0.000 NA
ATOM     14  C   UNL     1       1.530   2.801  20.775  0.00  0.00    +0.000 C 
ENDBRANCH  12  14
ENDBRANCH   1  12
TORSDOF 4
ENDMDL
MODEL 7
REMARK VINA RESULT:      -5.1      2.870      4.165
REMARK  Name = 
REMARK  4 active torsions:
REMARK  status: ('A' for Active; 'I' for Inactive)
REMARK    1  A    between atoms: C_2  and  S_3
REMARK    2  A    between atoms: S_3  and  C_4
REMARK    3  A    between atoms: C_6  and  C_7
REMARK    4  A    between atoms: C_6  and  N_12
REMARK                            x       y       z     vdW  Elec       q    Type
REMARK                         _______ _______ _______ _____ _____    ______ ____
ROOT
ATOM      1  C   UNL     1       4.410   4.944  17.689  0.00  0.00    +0.000 C 
ATOM      2 CL   UNL     1       5.540   6.124  18.336  0.00  0.00    +0.000 Cl
ATOM      3  C   UNL     1       3.206   4.794  18.278  0.00  0.00    +0.000 C 
ENDROOT
BRANCH   3   4
ATOM      4  C   UNL     1       2.657   5.558  19.387  0.00  0.00    +0.000 C 
ATOM      5 CL   UNL     1       2.480   4.630  20.866  0.00  0.00    +0.000 Cl
ATOM      6  C   UNL     1       2.335   6.866  19.349  0.00  0.00    +0.000 C 
ATOM      7 CL   UNL     1       1.716   7.724  20.724  0.00  0.00    +0.000 Cl
ATOM      8 CL   UNL     1       2.492   7.815  17.903  0.00  0.00    +0.000 Cl
ENDBRANCH   3   4
BRANCH   3   9
ATOM      9  N   UNL     1       2.316   3.797  17.718  0.00  0.00    +0.000 N 
ATOM     10  O   UNL     1       1.257   4.205  17.220  0.00  0.00    +0.000 OA
ATOM     11  O   UNL     1       2.648   2.608  17.822  0.00  0.00    +0.000 OA
ENDBRANCH   3   9
BRANCH   1  12
ATOM     12  S   UNL     1       4.924   4.186  16.198  0.00  0.00    +0.000 S 
BRANCH  12  14
ATOM     13  N   UNL     1       7.733   4.456  16.577  0.00  0.00    +0.000 NA
ATOM     14  C   UNL     1       6.589   4.349  16.412  0.00  0.00    +0.000 C 
ENDBRANCH  12  14
ENDBRANCH   1  12
TORSDOF 4
ENDMDL
MODEL 8
REMARK VINA RESULT:      -5.1      2.795      3.997
REMARK  Name = 
REMARK  4 active torsions:
REMARK  status: ('A' for Active; 'I' for Inactive)
REMARK    1  A    between atoms: C_2  and  S_3
REMARK    2  A    between atoms: S_3  and  C_4
REMARK    3  A    between atoms: C_6  and  C_7
REMARK    4  A    between atoms: C_6  and  N_12
REMARK                            x       y       z     vdW  Elec       q    Type
REMARK                         _______ _______ _______ _____ _____    ______ ____
ROOT
ATOM      1  C   UNL     1       4.451   5.471  17.226  0.00  0.00    +0.000 C 
ATOM      2 CL   UNL     1       5.382   6.952  17.389  0.00  0.00    +0.000 Cl
ATOM      3  C   UNL     1       3.270   5.361  17.868  0.00  0.00    +0.000 C 
ENDROOT
BRANCH   3   4
ATOM      4  C   UNL     1       2.593   6.373  18.664  0.00  0.00    +0.000 C 
ATOM      5 CL   UNL     1       2.206   7.833  17.771  0.00  0.00    +0.000 Cl
ATOM      6  C   UNL     1       2.237   6.238  19.957  0.00  0.00    +0.000 C 
ATOM      7 CL   UNL     1       1.398   7.476  20.837  0.00  0.00    +0.000 Cl
ATOM      8 CL   UNL     1       2.606   4.810  20.874  0.00  0.00    +0.000 Cl
ENDBRANCH   3   4
BRANCH   3   9
ATOM      9  N   UNL     1       2.549   4.114  17.717  0.00  0.00    +0.000 N 
ATOM     10  O   UNL     1       1.423   4.175  17.204  0.00  0.00    +0.000 OA
ATOM     11  O   UNL     1       3.082   3.085  18.156  0.00  0.00    +0.000 OA
ENDBRANCH   3   9
BRANCH   1  12
ATOM     12  S   UNL     1       5.100   4.327  16.072  0.00  0.00    +0.000 S 
BRANCH  12  14
ATOM     13  N   UNL     1       7.824   4.441  16.896  0.00  0.00    +0.000 NA
ATOM     14  C   UNL     1       6.717   4.401  16.552  0.00  0.00    +0.000 C 
ENDBRANCH  12  14
ENDBRANCH   1  12
TORSDOF 4
ENDMDL
MODEL 9
REMARK VINA RESULT:      -5.1      3.324      4.783
REMARK  Name = 
REMARK  4 active torsions:
REMARK  status: ('A' for Active; 'I' for Inactive)
REMARK    1  A    between atoms: C_2  and  S_3
REMARK    2  A    between atoms: S_3  and  C_4
REMARK    3  A    between atoms: C_6  and  C_7
REMARK    4  A    between atoms: C_6  and  N_12
REMARK                            x       y       z     vdW  Elec       q    Type
REMARK                         _______ _______ _______ _____ _____    ______ ____
ROOT
ATOM      1  C   UNL     1       4.522   5.127  18.236  0.00  0.00    +0.000 C 
ATOM      2 CL   UNL     1       5.829   5.254  19.403  0.00  0.00    +0.000 Cl
ATOM      3  C   UNL     1       3.504   4.274  18.477  0.00  0.00    +0.000 C 
ENDROOT
BRANCH   3   4
ATOM      4  C   UNL     1       3.293   3.454  19.658  0.00  0.00    +0.000 C 
ATOM      5 CL   UNL     1       4.249   1.982  19.679  0.00  0.00    +0.000 Cl
ATOM      6  C   UNL     1       2.481   3.765  20.689  0.00  0.00    +0.000 C 
ATOM      7 CL   UNL     1       2.303   2.753  22.086  0.00  0.00    +0.000 Cl
ATOM      8 CL   UNL     1       1.517   5.209  20.702  0.00  0.00    +0.000 Cl
ENDBRANCH   3   4
BRANCH   3   9
ATOM      9  N   UNL     1       2.460   4.193  17.477  0.00  0.00    +0.000 N 
ATOM     10  O   UNL     1       1.545   5.025  17.551  0.00  0.00    +0.000 OA
ATOM     11  O   UNL     1       2.525   3.270  16.652  0.00  0.00    +0.000 OA
ENDBRANCH   3   9
BRANCH   1  12
ATOM     12  S   UNL     1       4.601   6.284  16.926  0.00  0.00    +0.000 S 
BRANCH  12  14
ATOM     13  N   UNL     1       7.331   5.877  16.224  0.00  0.00    +0.000 NA
ATOM     14  C   UNL     1       6.218   6.052  16.504  0.00  0.00    +0.000 C 
ENDBRANCH  12  14
ENDBRANCH   1  12
TORSDOF 4
ENDMDL
