MODEL 1
REMARK VINA RESULT:      -8.2      0.000      0.000
REMARK  Name = 
REMARK  3 active torsions:
REMARK  status: ('A' for Active; 'I' for Inactive)
REMARK    1  A    between atoms: C_1  and  C_2
REMARK    2  A    between atoms: C_2  and  C_3
REMARK    3  A    between atoms: C_23  and  C_24
REMARK                            x       y       z     vdW  Elec       q    Type
REMARK                         _______ _______ _______ _____ _____    ______ ____
ROOT
ATOM      1  C   UNL     1       1.002   2.505  20.138  0.00  0.00    +0.000 C 
ATOM      2  C   UNL     1       2.033   3.305  19.323  0.00  0.00    +0.000 C 
ATOM      3  C   UNL     1       1.873   2.912  17.837  0.00  0.00    +0.000 C 
ATOM      4  C   UNL     1       3.448   2.969  19.820  0.00  0.00    +0.000 C 
ATOM      5  C   UNL     1       4.500   3.804  19.122  0.00  0.00    +0.000 C 
ATOM      6  O   UNL     1       5.644   3.371  18.968  0.00  0.00    +0.000 OA
ATOM      7  C   UNL     1       4.148   5.195  18.727  0.00  0.00    +0.000 C 
ATOM      8  C   UNL     1       2.919   5.663  19.000  0.00  0.00    +0.000 C 
ATOM      9  C   UNL     1       1.790   4.816  19.531  0.00  0.00    +0.000 C 
ATOM     10  N   UNL     1       2.659   6.983  18.738  0.00  0.00    +0.000 N 
ATOM     11  C   UNL     1       3.573   7.834  18.178  0.00  0.00    +0.000 C 
ATOM     12  N   UNL     1       3.145   9.103  17.922  0.00  0.00    +0.000 N 
ATOM     13  C   UNL     1       1.972   9.677  18.213  0.00  0.00    +0.000 A 
ATOM     14  N   UNL     1       0.919   9.144  18.810  0.00  0.00    +0.000 NA
ATOM     15  C   UNL     1       0.009  10.166  18.839  0.00  0.00    +0.000 A 
ATOM     16  C   UNL     1      -1.292  10.216  19.352  0.00  0.00    +0.000 A 
ATOM     17  C   UNL     1      -1.997  11.420  19.241  0.00  0.00    +0.000 A 
ATOM     18  C   UNL     1      -1.424  12.542  18.624  0.00  0.00    +0.000 A 
ATOM     19  C   UNL     1      -0.117  12.508  18.113  0.00  0.00    +0.000 A 
ATOM     20  C   UNL     1       0.547  11.297  18.247  0.00  0.00    +0.000 A 
ATOM     21  O   UNL     1       1.820  10.988  17.847  0.00  0.00    +0.000 OA
ATOM     22  N   UNL     1       4.775   7.489  17.849  0.00  0.00    +0.000 NA
ATOM     23  C   UNL     1       5.188   6.067  18.063  0.00  0.00    +0.000 C 
ATOM     24  H   UNL     1       1.749   7.362  18.994  0.00  0.00    +0.000 HD
ATOM     25  H   UNL     1       3.813   9.645  17.389  0.00  0.00    +0.000 HD
ENDROOT
BRANCH  23  26
ATOM     26  C   UNL     1       5.640   5.507  16.725  0.00  0.00    +0.000 A 
ATOM     27  C   UNL     1       4.771   4.796  15.891  0.00  0.00    +0.000 A 
ATOM     28  C   UNL     1       5.245   4.253  14.700  0.00  0.00    +0.000 A 
ATOM     29  C   UNL     1       6.575   4.456  14.369  0.00  0.00    +0.000 A 
ATOM     30  N   UNL     1       7.439   5.164  15.127  0.00  0.00    +0.000 NA
ATOM     31  C   UNL     1       6.951   5.667  16.285  0.00  0.00    +0.000 A 
ENDBRANCH  23  26
TORSDOF 1
ENDMDL
MODEL 2
REMARK VINA RESULT:      -7.9      3.437      9.874
REMARK  Name = 
REMARK  3 active torsions:
REMARK  status: ('A' for Active; 'I' for Inactive)
REMARK    1  A    between atoms: C_1  and  C_2
REMARK    2  A    between atoms: C_2  and  C_3
REMARK    3  A    between atoms: C_23  and  C_24
REMARK                            x       y       z     vdW  Elec       q    Type
REMARK                         _______ _______ _______ _____ _____    ______ ____
ROOT
ATOM      1  C   UNL     1       2.199  14.775  18.410  0.00  0.00    +0.000 C 
ATOM      2  C   UNL     1       1.188  14.062  19.323  0.00  0.00    +0.000 C 
ATOM      3  C   UNL     1      -0.175  14.037  18.595  0.00  0.00    +0.000 C 
ATOM      4  C   UNL     1       1.074  14.824  20.652  0.00  0.00    +0.000 C 
ATOM      5  C   UNL     1       0.168  14.112  21.633  0.00  0.00    +0.000 C 
ATOM      6  O   UNL     1      -0.457  14.747  22.485  0.00  0.00    +0.000 OA
ATOM      7  C   UNL     1       0.136  12.624  21.610  0.00  0.00    +0.000 C 
ATOM      8  C   UNL     1       0.907  11.965  20.729  0.00  0.00    +0.000 C 
ATOM      9  C   UNL     1       1.687  12.632  19.624  0.00  0.00    +0.000 C 
ATOM     10  N   UNL     1       0.954  10.598  20.809  0.00  0.00    +0.000 N 
ATOM     11  C   UNL     1       0.227   9.871  21.713  0.00  0.00    +0.000 C 
ATOM     12  N   UNL     1       0.334   8.515  21.629  0.00  0.00    +0.000 N 
ATOM     13  C   UNL     1       1.116   7.773  20.835  0.00  0.00    +0.000 A 
ATOM     14  N   UNL     1       1.974   8.177  19.914  0.00  0.00    +0.000 NA
ATOM     15  C   UNL     1       2.484   7.011  19.410  0.00  0.00    +0.000 A 
ATOM     16  C   UNL     1       3.441   6.787  18.414  0.00  0.00    +0.000 A 
ATOM     17  C   UNL     1       3.773   5.463  18.106  0.00  0.00    +0.000 A 
ATOM     18  C   UNL     1       3.159   4.389  18.766  0.00  0.00    +0.000 A 
ATOM     19  C   UNL     1       2.204   4.598  19.773  0.00  0.00    +0.000 A 
ATOM     20  C   UNL     1       1.907   5.926  20.049  0.00  0.00    +0.000 A 
ATOM     21  O   UNL     1       1.026   6.414  20.978  0.00  0.00    +0.000 OA
ATOM     22  N   UNL     1      -0.567  10.394  22.588  0.00  0.00    +0.000 NA
ATOM     23  C   UNL     1      -0.729  11.882  22.601  0.00  0.00    +0.000 C 
ATOM     24  H   UNL     1       1.579  10.092  20.183  0.00  0.00    +0.000 HD
ATOM     25  H   UNL     1      -0.323   8.029  22.226  0.00  0.00    +0.000 HD
ENDROOT
BRANCH  23  26
ATOM     26  C   UNL     1      -2.206  12.190  22.420  0.00  0.00    +0.000 A 
ATOM     27  C   UNL     1      -2.747  12.502  21.169  0.00  0.00    +0.000 A 
ATOM     28  C   UNL     1      -4.095  12.833  21.061  0.00  0.00    +0.000 A 
ATOM     29  C   UNL     1      -4.867  12.823  22.212  0.00  0.00    +0.000 A 
ATOM     30  N   UNL     1      -4.395  12.496  23.433  0.00  0.00    +0.000 NA
ATOM     31  C   UNL     1      -3.077  12.193  23.506  0.00  0.00    +0.000 A 
ENDBRANCH  23  26
TORSDOF 1
ENDMDL
MODEL 3
REMARK VINA RESULT:      -7.5      1.985      4.544
REMARK  Name = 
REMARK  3 active torsions:
REMARK  status: ('A' for Active; 'I' for Inactive)
REMARK    1  A    between atoms: C_1  and  C_2
REMARK    2  A    between atoms: C_2  and  C_3
REMARK    3  A    between atoms: C_23  and  C_24
REMARK                            x       y       z     vdW  Elec       q    Type
REMARK                         _______ _______ _______ _____ _____    ______ ____
ROOT
ATOM      1  C   UNL     1       7.786   6.513  17.140  0.00  0.00    +0.000 C 
ATOM      2  C   UNL     1       6.376   6.144  17.632  0.00  0.00    +0.000 C 
ATOM      3  C   UNL     1       6.476   5.777  19.130  0.00  0.00    +0.000 C 
ATOM      4  C   UNL     1       5.847   4.952  16.820  0.00  0.00    +0.000 C 
ATOM      5  C   UNL     1       4.421   4.607  17.191  0.00  0.00    +0.000 C 
ATOM      6  O   UNL     1       4.005   3.452  17.080  0.00  0.00    +0.000 OA
ATOM      7  C   UNL     1       3.509   5.715  17.588  0.00  0.00    +0.000 C 
ATOM      8  C   UNL     1       3.976   6.974  17.603  0.00  0.00    +0.000 C 
ATOM      9  C   UNL     1       5.426   7.341  17.413  0.00  0.00    +0.000 C 
ATOM     10  N   UNL     1       3.087   7.988  17.852  0.00  0.00    +0.000 N 
ATOM     11  C   UNL     1       1.763   7.778  18.123  0.00  0.00    +0.000 C 
ATOM     12  N   UNL     1       1.018   8.884  18.410  0.00  0.00    +0.000 N 
ATOM     13  C   UNL     1       1.374  10.174  18.389  0.00  0.00    +0.000 A 
ATOM     14  N   UNL     1       2.551  10.700  18.099  0.00  0.00    +0.000 NA
ATOM     15  C   UNL     1       2.352  12.046  18.243  0.00  0.00    +0.000 A 
ATOM     16  C   UNL     1       3.226  13.123  18.065  0.00  0.00    +0.000 A 
ATOM     17  C   UNL     1       2.734  14.415  18.284  0.00  0.00    +0.000 A 
ATOM     18  C   UNL     1       1.405  14.626  18.681  0.00  0.00    +0.000 A 
ATOM     19  C   UNL     1       0.514  13.556  18.854  0.00  0.00    +0.000 A 
ATOM     20  C   UNL     1       1.043  12.294  18.623  0.00  0.00    +0.000 A 
ATOM     21  O   UNL     1       0.403  11.085  18.712  0.00  0.00    +0.000 OA
ATOM     22  N   UNL     1       1.209   6.611  18.163  0.00  0.00    +0.000 NA
ATOM     23  C   UNL     1       2.070   5.409  17.927  0.00  0.00    +0.000 C 
ATOM     24  H   UNL     1       3.419   8.950  17.809  0.00  0.00    +0.000 HD
ATOM     25  H   UNL     1       0.085   8.659  18.733  0.00  0.00    +0.000 HD
ENDROOT
BRANCH  23  26
ATOM     26  C   UNL     1       1.944   4.502  19.140  0.00  0.00    +0.000 A 
ATOM     27  C   UNL     1       1.272   3.277  19.080  0.00  0.00    +0.000 A 
ATOM     28  C   UNL     1       1.133   2.507  20.231  0.00  0.00    +0.000 A 
ATOM     29  C   UNL     1       1.691   2.980  21.408  0.00  0.00    +0.000 A 
ATOM     30  N   UNL     1       2.377   4.139  21.505  0.00  0.00    +0.000 NA
ATOM     31  C   UNL     1       2.481   4.871  20.371  0.00  0.00    +0.000 A 
ENDBRANCH  23  26
TORSDOF 1
ENDMDL
MODEL 4
REMARK VINA RESULT:      -7.4      4.957      9.081
REMARK  Name = 
REMARK  3 active torsions:
REMARK  status: ('A' for Active; 'I' for Inactive)
REMARK    1  A    between atoms: C_1  and  C_2
REMARK    2  A    between atoms: C_2  and  C_3
REMARK    3  A    between atoms: C_23  and  C_24
REMARK                            x       y       z     vdW  Elec       q    Type
REMARK                         _______ _______ _______ _____ _____    ______ ____
ROOT
ATOM      1  C   UNL     1       2.053   8.157  17.682  0.00  0.00    +0.000 C 
ATOM      2  C   UNL     1       1.338   9.313  18.402  0.00  0.00    +0.000 C 
ATOM      3  C   UNL     1       1.348   9.007  19.918  0.00  0.00    +0.000 C 
ATOM      4  C   UNL     1      -0.105   9.421  17.885  0.00  0.00    +0.000 C 
ATOM      5  C   UNL     1      -0.829  10.607  18.485  0.00  0.00    +0.000 C 
ATOM      6  O   UNL     1      -2.053  10.587  18.633  0.00  0.00    +0.000 OA
ATOM      7  C   UNL     1      -0.041  11.832  18.791  0.00  0.00    +0.000 C 
ATOM      8  C   UNL     1       1.275  11.849  18.526  0.00  0.00    +0.000 C 
ATOM      9  C   UNL     1       2.066  10.639  18.095  0.00  0.00    +0.000 C 
ATOM     10  N   UNL     1       1.954  13.027  18.701  0.00  0.00    +0.000 N 
ATOM     11  C   UNL     1       1.367  14.171  19.168  0.00  0.00    +0.000 C 
ATOM     12  N   UNL     1       2.187  15.246  19.345  0.00  0.00    +0.000 N 
ATOM     13  C   UNL     1       3.487  15.379  19.053  0.00  0.00    +0.000 A 
ATOM     14  N   UNL     1       4.309  14.485  18.531  0.00  0.00    +0.000 NA
ATOM     15  C   UNL     1       5.505  15.146  18.459  0.00  0.00    +0.000 A 
ATOM     16  C   UNL     1       6.754  14.727  17.986  0.00  0.00    +0.000 A 
ATOM     17  C   UNL     1       7.816  15.637  18.034  0.00  0.00    +0.000 A 
ATOM     18  C   UNL     1       7.640  16.930  18.549  0.00  0.00    +0.000 A 
ATOM     19  C   UNL     1       6.391  17.367  19.018  0.00  0.00    +0.000 A 
ATOM     20  C   UNL     1       5.366  16.434  18.949  0.00  0.00    +0.000 A 
ATOM     21  O   UNL     1       4.059  16.592  19.328  0.00  0.00    +0.000 OA
ATOM     22  N   UNL     1       0.117  14.267  19.481  0.00  0.00    +0.000 NA
ATOM     23  C   UNL     1      -0.741  13.046  19.356  0.00  0.00    +0.000 C 
ATOM     24  H   UNL     1       2.940  13.065  18.449  0.00  0.00    +0.000 HD
ATOM     25  H   UNL     1       1.731  16.017  19.816  0.00  0.00    +0.000 HD
ENDROOT
BRANCH  23  26
ATOM     26  C   UNL     1      -1.362  12.773  20.715  0.00  0.00    +0.000 A 
ATOM     27  C   UNL     1      -0.633  12.188  21.755  0.00  0.00    +0.000 A 
ATOM     28  C   UNL     1      -1.260  11.904  22.966  0.00  0.00    +0.000 A 
ATOM     29  C   UNL     1      -2.598  12.235  23.105  0.00  0.00    +0.000 A 
ATOM     30  N   UNL     1      -3.331  12.831  22.140  0.00  0.00    +0.000 NA
ATOM     31  C   UNL     1      -2.696  13.080  20.971  0.00  0.00    +0.000 A 
ENDBRANCH  23  26
TORSDOF 1
ENDMDL
MODEL 5
REMARK VINA RESULT:      -7.4      3.664     10.136
REMARK  Name = 
REMARK  3 active torsions:
REMARK  status: ('A' for Active; 'I' for Inactive)
REMARK    1  A    between atoms: C_1  and  C_2
REMARK    2  A    between atoms: C_2  and  C_3
REMARK    3  A    between atoms: C_23  and  C_24
REMARK                            x       y       z     vdW  Elec       q    Type
REMARK                         _______ _______ _______ _____ _____    ______ ____
ROOT
ATOM      1  C   UNL     1       1.786  15.177  18.598  0.00  0.00    +0.000 C 
ATOM      2  C   UNL     1       0.826  14.446  19.552  0.00  0.00    +0.000 C 
ATOM      3  C   UNL     1      -0.566  14.400  18.883  0.00  0.00    +0.000 C 
ATOM      4  C   UNL     1       0.757  15.205  20.886  0.00  0.00    +0.000 C 
ATOM      5  C   UNL     1      -0.095  14.477  21.904  0.00  0.00    +0.000 C 
ATOM      6  O   UNL     1      -0.694  15.101  22.783  0.00  0.00    +0.000 OA
ATOM      7  C   UNL     1      -0.104  12.989  21.879  0.00  0.00    +0.000 C 
ATOM      8  C   UNL     1       0.639  12.344  20.965  0.00  0.00    +0.000 C 
ATOM      9  C   UNL     1       1.360  13.024  19.829  0.00  0.00    +0.000 C 
ATOM     10  N   UNL     1       0.712  10.977  21.041  0.00  0.00    +0.000 N 
ATOM     11  C   UNL     1       0.035  10.238  21.973  0.00  0.00    +0.000 C 
ATOM     12  N   UNL     1       0.160   8.883  21.882  0.00  0.00    +0.000 N 
ATOM     13  C   UNL     1       0.920   8.155  21.054  0.00  0.00    +0.000 A 
ATOM     14  N   UNL     1       1.731   8.574  20.098  0.00  0.00    +0.000 NA
ATOM     15  C   UNL     1       2.238   7.417  19.571  0.00  0.00    +0.000 A 
ATOM     16  C   UNL     1       3.155   7.210  18.535  0.00  0.00    +0.000 A 
ATOM     17  C   UNL     1       3.495   5.892  18.210  0.00  0.00    +0.000 A 
ATOM     18  C   UNL     1       2.927   4.807  18.894  0.00  0.00    +0.000 A 
ATOM     19  C   UNL     1       2.012   5.000  19.941  0.00  0.00    +0.000 A 
ATOM     20  C   UNL     1       1.706   6.322  20.232  0.00  0.00    +0.000 A 
ATOM     21  O   UNL     1       0.858   6.795  21.198  0.00  0.00    +0.000 OA
ATOM     22  N   UNL     1      -0.729  10.747  22.883  0.00  0.00    +0.000 NA
ATOM     23  C   UNL     1      -0.914  12.232  22.905  0.00  0.00    +0.000 C 
ATOM     24  H   UNL     1       1.317  10.482  20.388  0.00  0.00    +0.000 HD
ATOM     25  H   UNL     1      -0.463   8.386  22.506  0.00  0.00    +0.000 HD
ENDROOT
BRANCH  23  26
ATOM     26  C   UNL     1      -2.402  12.516  22.787  0.00  0.00    +0.000 A 
ATOM     27  C   UNL     1      -3.208  12.712  23.914  0.00  0.00    +0.000 A 
ATOM     28  C   UNL     1      -4.577  12.913  23.759  0.00  0.00    +0.000 A 
ATOM     29  C   UNL     1      -5.096  12.932  22.474  0.00  0.00    +0.000 A 
ATOM     30  N   UNL     1      -4.351  12.782  21.359  0.00  0.00    +0.000 NA
ATOM     31  C   UNL     1      -3.027  12.574  21.544  0.00  0.00    +0.000 A 
ENDBRANCH  23  26
TORSDOF 1
ENDMDL
MODEL 6
REMARK VINA RESULT:      -7.2      9.668     11.183
REMARK  Name = 
REMARK  3 active torsions:
REMARK  status: ('A' for Active; 'I' for Inactive)
REMARK    1  A    between atoms: C_1  and  C_2
REMARK    2  A    between atoms: C_2  and  C_3
REMARK    3  A    between atoms: C_23  and  C_24
REMARK                            x       y       z     vdW  Elec       q    Type
REMARK                         _______ _______ _______ _____ _____    ______ ____
ROOT
ATOM      1  C   UNL     1       8.933   9.816  18.259  0.00  0.00    +0.000 C 
ATOM      2  C   UNL     1       9.377  11.260  18.550  0.00  0.00    +0.000 C 
ATOM      3  C   UNL     1       8.530  12.205  17.667  0.00  0.00    +0.000 C 
ATOM      4  C   UNL     1      10.870  11.412  18.221  0.00  0.00    +0.000 C 
ATOM      5  C   UNL     1      11.389  12.787  18.583  0.00  0.00    +0.000 C 
ATOM      6  O   UNL     1      12.332  13.285  17.965  0.00  0.00    +0.000 OA
ATOM      7  C   UNL     1      10.803  13.471  19.768  0.00  0.00    +0.000 C 
ATOM      8  C   UNL     1       9.842  12.852  20.473  0.00  0.00    +0.000 C 
ATOM      9  C   UNL     1       9.176  11.568  20.050  0.00  0.00    +0.000 C 
ATOM     10  N   UNL     1       9.406  13.447  21.629  0.00  0.00    +0.000 N 
ATOM     11  C   UNL     1       9.871  14.654  22.076  0.00  0.00    +0.000 C 
ATOM     12  N   UNL     1       9.296  15.145  23.211  0.00  0.00    +0.000 N 
ATOM     13  C   UNL     1       8.385  14.579  24.012  0.00  0.00    +0.000 A 
ATOM     14  N   UNL     1       7.799  13.401  23.891  0.00  0.00    +0.000 NA
ATOM     15  C   UNL     1       6.960  13.341  24.971  0.00  0.00    +0.000 A 
ATOM     16  C   UNL     1       6.081  12.337  25.391  0.00  0.00    +0.000 A 
ATOM     17  C   UNL     1       5.340  12.555  26.558  0.00  0.00    +0.000 A 
ATOM     18  C   UNL     1       5.465  13.750  27.282  0.00  0.00    +0.000 A 
ATOM     19  C   UNL     1       6.349  14.763  26.878  0.00  0.00    +0.000 A 
ATOM     20  C   UNL     1       7.066  14.503  25.718  0.00  0.00    +0.000 A 
ATOM     21  O   UNL     1       7.992  15.305  25.106  0.00  0.00    +0.000 OA
ATOM     22  N   UNL     1      10.773  15.351  21.467  0.00  0.00    +0.000 NA
ATOM     23  C   UNL     1      11.325  14.828  20.178  0.00  0.00    +0.000 C 
ATOM     24  H   UNL     1       8.719  12.959  22.201  0.00  0.00    +0.000 HD
ATOM     25  H   UNL     1       9.579  16.094  23.419  0.00  0.00    +0.000 HD
ENDROOT
BRANCH  23  26
ATOM     26  C   UNL     1      11.091  15.882  19.109  0.00  0.00    +0.000 A 
ATOM     27  C   UNL     1      12.130  16.679  18.619  0.00  0.00    +0.000 A 
ATOM     28  C   UNL     1      11.857  17.671  17.681  0.00  0.00    +0.000 A 
ATOM     29  C   UNL     1      10.551  17.822  17.247  0.00  0.00    +0.000 A 
ATOM     30  N   UNL     1       9.524  17.054  17.667  0.00  0.00    +0.000 NA
ATOM     31  C   UNL     1       9.819  16.108  18.590  0.00  0.00    +0.000 A 
ENDBRANCH  23  26
TORSDOF 1
ENDMDL
MODEL 7
REMARK VINA RESULT:      -7.1      5.298      9.429
REMARK  Name = 
REMARK  3 active torsions:
REMARK  status: ('A' for Active; 'I' for Inactive)
REMARK    1  A    between atoms: C_1  and  C_2
REMARK    2  A    between atoms: C_2  and  C_3
REMARK    3  A    between atoms: C_23  and  C_24
REMARK                            x       y       z     vdW  Elec       q    Type
REMARK                         _______ _______ _______ _____ _____    ______ ____
ROOT
ATOM      1  C   UNL     1       1.665   8.528  17.832  0.00  0.00    +0.000 C 
ATOM      2  C   UNL     1       1.066   9.753  18.545  0.00  0.00    +0.000 C 
ATOM      3  C   UNL     1       1.089   9.477  20.065  0.00  0.00    +0.000 C 
ATOM      4  C   UNL     1      -0.375   9.972  18.059  0.00  0.00    +0.000 C 
ATOM      5  C   UNL     1      -0.983  11.226  18.651  0.00  0.00    +0.000 C 
ATOM      6  O   UNL     1      -2.200  11.311  18.827  0.00  0.00    +0.000 OA
ATOM      7  C   UNL     1      -0.089  12.387  18.912  0.00  0.00    +0.000 C 
ATOM      8  C   UNL     1       1.218  12.287  18.615  0.00  0.00    +0.000 C 
ATOM      9  C   UNL     1       1.894  11.008  18.192  0.00  0.00    +0.000 C 
ATOM     10  N   UNL     1       1.996  13.408  18.749  0.00  0.00    +0.000 N 
ATOM     11  C   UNL     1       1.518  14.606  19.205  0.00  0.00    +0.000 C 
ATOM     12  N   UNL     1       2.429  15.612  19.341  0.00  0.00    +0.000 N 
ATOM     13  C   UNL     1       3.727  15.630  19.015  0.00  0.00    +0.000 A 
ATOM     14  N   UNL     1       4.459  14.661  18.493  0.00  0.00    +0.000 NA
ATOM     15  C   UNL     1       5.704  15.218  18.379  0.00  0.00    +0.000 A 
ATOM     16  C   UNL     1       6.901  14.687  17.886  0.00  0.00    +0.000 A 
ATOM     17  C   UNL     1       8.036  15.506  17.889  0.00  0.00    +0.000 A 
ATOM     18  C   UNL     1       7.981  16.819  18.381  0.00  0.00    +0.000 A 
ATOM     19  C   UNL     1       6.785  17.368  18.870  0.00  0.00    +0.000 A 
ATOM     20  C   UNL     1       5.685  16.522  18.845  0.00  0.00    +0.000 A 
ATOM     21  O   UNL     1       4.406  16.796  19.251  0.00  0.00    +0.000 OA
ATOM     22  N   UNL     1       0.288  14.812  19.545  0.00  0.00    +0.000 NA
ATOM     23  C   UNL     1      -0.671  13.666  19.466  0.00  0.00    +0.000 C 
ATOM     24  H   UNL     1       2.975  13.359  18.473  0.00  0.00    +0.000 HD
ATOM     25  H   UNL     1       2.051  16.428  19.805  0.00  0.00    +0.000 HD
ENDROOT
BRANCH  23  26
ATOM     26  C   UNL     1      -1.277  13.471  20.846  0.00  0.00    +0.000 A 
ATOM     27  C   UNL     1      -2.575  13.895  21.148  0.00  0.00    +0.000 A 
ATOM     28  C   UNL     1      -3.068  13.748  22.442  0.00  0.00    +0.000 A 
ATOM     29  C   UNL     1      -2.249  13.159  23.393  0.00  0.00    +0.000 A 
ATOM     30  N   UNL     1      -1.004  12.705  23.137  0.00  0.00    +0.000 NA
ATOM     31  C   UNL     1      -0.550  12.877  21.873  0.00  0.00    +0.000 A 
ENDBRANCH  23  26
TORSDOF 1
ENDMDL
MODEL 8
REMARK VINA RESULT:      -7.1      9.400     10.947
REMARK  Name = 
REMARK  3 active torsions:
REMARK  status: ('A' for Active; 'I' for Inactive)
REMARK    1  A    between atoms: C_1  and  C_2
REMARK    2  A    between atoms: C_2  and  C_3
REMARK    3  A    between atoms: C_23  and  C_24
REMARK                            x       y       z     vdW  Elec       q    Type
REMARK                         _______ _______ _______ _____ _____    ______ ____
ROOT
ATOM      1  C   UNL     1       8.945   9.657  18.191  0.00  0.00    +0.000 C 
ATOM      2  C   UNL     1       9.304  11.102  18.577  0.00  0.00    +0.000 C 
ATOM      3  C   UNL     1       8.414  12.052  17.745  0.00  0.00    +0.000 C 
ATOM      4  C   UNL     1      10.790  11.357  18.277  0.00  0.00    +0.000 C 
ATOM      5  C   UNL     1      11.227  12.733  18.731  0.00  0.00    +0.000 C 
ATOM      6  O   UNL     1      12.146  13.321  18.158  0.00  0.00    +0.000 OA
ATOM      7  C   UNL     1      10.592  13.308  19.949  0.00  0.00    +0.000 C 
ATOM      8  C   UNL     1       9.661  12.593  20.602  0.00  0.00    +0.000 C 
ATOM      9  C   UNL     1       9.072  11.303  20.091  0.00  0.00    +0.000 C 
ATOM     10  N   UNL     1       9.181  13.089  21.787  0.00  0.00    +0.000 N 
ATOM     11  C   UNL     1       9.574  14.290  22.314  0.00  0.00    +0.000 C 
ATOM     12  N   UNL     1       8.961  14.675  23.470  0.00  0.00    +0.000 N 
ATOM     13  C   UNL     1       8.076  14.011  24.223  0.00  0.00    +0.000 A 
ATOM     14  N   UNL     1       7.558  12.811  24.021  0.00  0.00    +0.000 NA
ATOM     15  C   UNL     1       6.714  12.637  25.084  0.00  0.00    +0.000 A 
ATOM     16  C   UNL     1       5.890  11.561  25.429  0.00  0.00    +0.000 A 
ATOM     17  C   UNL     1       5.127  11.664  26.598  0.00  0.00    +0.000 A 
ATOM     18  C   UNL     1       5.177  12.816  27.397  0.00  0.00    +0.000 A 
ATOM     19  C   UNL     1       6.006  13.900  27.068  0.00  0.00    +0.000 A 
ATOM     20  C   UNL     1       6.748  13.754  25.904  0.00  0.00    +0.000 A 
ATOM     21  O   UNL     1       7.633  14.643  25.354  0.00  0.00    +0.000 OA
ATOM     22  N   UNL     1      10.440  15.073  21.761  0.00  0.00    +0.000 NA
ATOM     23  C   UNL     1      11.033  14.663  20.450  0.00  0.00    +0.000 C 
ATOM     24  H   UNL     1       8.518  12.529  22.318  0.00  0.00    +0.000 HD
ATOM     25  H   UNL     1       9.188  15.624  23.740  0.00  0.00    +0.000 HD
ENDROOT
BRANCH  23  26
ATOM     26  C   UNL     1      10.750  15.768  19.446  0.00  0.00    +0.000 A 
ATOM     27  C   UNL     1       9.487  15.938  18.871  0.00  0.00    +0.000 A 
ATOM     28  C   UNL     1       9.290  16.928  17.913  0.00  0.00    +0.000 A 
ATOM     29  C   UNL     1      10.364  17.735  17.573  0.00  0.00    +0.000 A 
ATOM     30  N   UNL     1      11.591  17.629  18.127  0.00  0.00    +0.000 NA
ATOM     31  C   UNL     1      11.753  16.647  19.044  0.00  0.00    +0.000 A 
ENDBRANCH  23  26
TORSDOF 1
ENDMDL
MODEL 9
REMARK VINA RESULT:      -6.9      2.844      8.783
REMARK  Name = 
REMARK  3 active torsions:
REMARK  status: ('A' for Active; 'I' for Inactive)
REMARK    1  A    between atoms: C_1  and  C_2
REMARK    2  A    between atoms: C_2  and  C_3
REMARK    3  A    between atoms: C_23  and  C_24
REMARK                            x       y       z     vdW  Elec       q    Type
REMARK                         _______ _______ _______ _____ _____    ______ ____
ROOT
ATOM      1  C   UNL     1      -3.065  10.210  15.699  0.00  0.00    +0.000 C 
ATOM      2  C   UNL     1      -2.323  10.469  17.021  0.00  0.00    +0.000 C 
ATOM      3  C   UNL     1      -3.323  10.251  18.179  0.00  0.00    +0.000 C 
ATOM      4  C   UNL     1      -1.790  11.910  17.034  0.00  0.00    +0.000 C 
ATOM      5  C   UNL     1      -0.962  12.193  18.269  0.00  0.00    +0.000 C 
ATOM      6  O   UNL     1      -0.892  13.333  18.731  0.00  0.00    +0.000 OA
ATOM      7  C   UNL     1      -0.153  11.082  18.843  0.00  0.00    +0.000 C 
ATOM      8  C   UNL     1      -0.181   9.877  18.252  0.00  0.00    +0.000 C 
ATOM      9  C   UNL     1      -1.121   9.506  17.133  0.00  0.00    +0.000 C 
ATOM     10  N   UNL     1       0.665   8.907  18.724  0.00  0.00    +0.000 N 
ATOM     11  C   UNL     1       1.504   9.094  19.789  0.00  0.00    +0.000 C 
ATOM     12  N   UNL     1       2.241   8.015  20.179  0.00  0.00    +0.000 N 
ATOM     13  C   UNL     1       2.328   6.801  19.620  0.00  0.00    +0.000 A 
ATOM     14  N   UNL     1       1.702   6.339  18.552  0.00  0.00    +0.000 NA
ATOM     15  C   UNL     1       2.153   5.051  18.442  0.00  0.00    +0.000 A 
ATOM     16  C   UNL     1       1.858   4.057  17.503  0.00  0.00    +0.000 A 
ATOM     17  C   UNL     1       2.484   2.813  17.641  0.00  0.00    +0.000 A 
ATOM     18  C   UNL     1       3.375   2.564  18.696  0.00  0.00    +0.000 A 
ATOM     19  C   UNL     1       3.688   3.555  19.640  0.00  0.00    +0.000 A 
ATOM     20  C   UNL     1       3.047   4.773  19.462  0.00  0.00    +0.000 A 
ATOM     21  O   UNL     1       3.170   5.905  20.224  0.00  0.00    +0.000 OA
ATOM     22  N   UNL     1       1.597  10.200  20.450  0.00  0.00    +0.000 NA
ATOM     23  C   UNL     1       0.714  11.341  20.053  0.00  0.00    +0.000 C 
ATOM     24  H   UNL     1       0.692   8.007  18.248  0.00  0.00    +0.000 HD
ATOM     25  H   UNL     1       2.739   8.169  21.046  0.00  0.00    +0.000 HD
ENDROOT
BRANCH  23  26
ATOM     26  C   UNL     1      -0.101  11.744  21.270  0.00  0.00    +0.000 A 
ATOM     27  C   UNL     1      -0.906  10.829  21.955  0.00  0.00    +0.000 A 
ATOM     28  C   UNL     1      -1.680  11.258  23.031  0.00  0.00    +0.000 A 
ATOM     29  C   UNL     1      -1.608  12.591  23.401  0.00  0.00    +0.000 A 
ATOM     30  N   UNL     1      -0.820  13.500  22.790  0.00  0.00    +0.000 NA
ATOM     31  C   UNL     1      -0.091  13.055  21.739  0.00  0.00    +0.000 A 
ENDBRANCH  23  26
TORSDOF 1
ENDMDL
