MODEL 1
REMARK VINA RESULT:      -8.1      0.000      0.000
REMARK  Name = 
REMARK  8 active torsions:
REMARK  status: ('A' for Active; 'I' for Inactive)
REMARK    1  A    between atoms: C_1  and  O_2
REMARK    2  A    between atoms: O_2  and  C_3
REMARK    3  A    between atoms: C_3  and  C_4
REMARK    4  A    between atoms: C_4  and  N_5
REMARK    5  A    between atoms: C_11  and  C_12
REMARK    6  A    between atoms: C_13  and  C_14
REMARK    7  A    between atoms: C_14  and  C_15
REMARK    8  A    between atoms: C_18  and  C_19
REMARK                            x       y       z     vdW  Elec       q    Type
REMARK                         _______ _______ _______ _____ _____    ______ ____
ROOT
ATOM      1  N   UNL     1       8.314   9.312  17.698  0.00  0.00    +0.000 N 
ATOM      2  C   UNL     1       7.773   8.038  17.828  0.00  0.00    +0.000 C 
ATOM      3  O   UNL     1       8.005   7.347  18.815  0.00  0.00    +0.000 OA
ATOM      4  N   UNL     1       7.035   7.699  16.726  0.00  0.00    +0.000 N 
ATOM      5  C   UNL     1       6.395   6.499  16.531  0.00  0.00    +0.000 A 
ATOM      6  N   UNL     1       6.085   6.071  15.329  0.00  0.00    +0.000 NA
ATOM      7  C   UNL     1       5.546   4.791  15.407  0.00  0.00    +0.000 A 
ATOM      8  C   UNL     1       5.267   4.067  14.137  0.00  0.00    +0.000 C 
ATOM      9  C   UNL     1       5.386   4.307  16.698  0.00  0.00    +0.000 A 
ATOM     10  S   UNL     1       5.904   5.504  17.818  0.00  0.00    +0.000 S 
ATOM     11  H   UNL     1       7.740   9.975  17.195  0.00  0.00    +0.000 HD
ATOM     12  H   UNL     1       7.244   8.182  15.865  0.00  0.00    +0.000 HD
ENDROOT
BRANCH   1  13
ATOM     13  C   UNL     1       9.152   9.859  18.756  0.00  0.00    +0.000 C 
BRANCH  13  14
ATOM     14  C   UNL     1       9.390  11.387  18.603  0.00  0.00    +0.000 C 
ATOM     15  C   UNL     1       9.302  12.122  19.956  0.00  0.00    +0.000 C 
ATOM     16  C   UNL     1      10.485  11.819  20.864  0.00  0.00    +0.000 C 
ATOM     17  O   UNL     1      11.721  12.101  20.219  0.00  0.00    +0.000 OA
ATOM     18  C   UNL     1      11.911  11.398  18.995  0.00  0.00    +0.000 C 
ATOM     19  C   UNL     1      10.786  11.677  18.009  0.00  0.00    +0.000 C 
BRANCH  14  21
ATOM     20  C   UNL     1       8.266  13.356  17.685  0.00  0.00    +0.000 C 
ATOM     21  O   UNL     1       8.436  11.942  17.661  0.00  0.00    +0.000 OA
ENDBRANCH  14  21
ENDBRANCH  13  14
ENDBRANCH   1  13
BRANCH   9  22
ATOM     22  C   UNL     1       4.951   2.957  17.181  0.00  0.00    +0.000 C 
BRANCH  22  23
ATOM     23  C   UNL     1       3.989   2.978  18.347  0.00  0.00    +0.000 A 
ATOM     24  C   UNL     1       2.652   3.352  18.162  0.00  0.00    +0.000 A 
ATOM     25  C   UNL     1       1.744   3.312  19.223  0.00  0.00    +0.000 A 
ATOM     26  C   UNL     1       2.155   2.892  20.491  0.00  0.00    +0.000 A 
ATOM     27  C   UNL     1       1.181   2.804  21.629  0.00  0.00    +0.000 C 
ATOM     28  C   UNL     1       3.493   2.527  20.684  0.00  0.00    +0.000 A 
ATOM     29  C   UNL     1       4.405   2.582  19.625  0.00  0.00    +0.000 A 
ENDBRANCH  22  23
ENDBRANCH   9  22
TORSDOF 5
ENDMDL
MODEL 2
REMARK VINA RESULT:      -7.9      7.112      9.429
REMARK  Name = 
REMARK  8 active torsions:
REMARK  status: ('A' for Active; 'I' for Inactive)
REMARK    1  A    between atoms: C_1  and  O_2
REMARK    2  A    between atoms: O_2  and  C_3
REMARK    3  A    between atoms: C_3  and  C_4
REMARK    4  A    between atoms: C_4  and  N_5
REMARK    5  A    between atoms: C_11  and  C_12
REMARK    6  A    between atoms: C_13  and  C_14
REMARK    7  A    between atoms: C_14  and  C_15
REMARK    8  A    between atoms: C_18  and  C_19
REMARK                            x       y       z     vdW  Elec       q    Type
REMARK                         _______ _______ _______ _____ _____    ______ ____
ROOT
ATOM      1  N   UNL     1       3.537   6.660  18.363  0.00  0.00    +0.000 N 
ATOM      2  C   UNL     1       2.732   7.787  18.254  0.00  0.00    +0.000 C 
ATOM      3  O   UNL     1       2.766   8.498  17.255  0.00  0.00    +0.000 OA
ATOM      4  N   UNL     1       1.990   7.976  19.390  0.00  0.00    +0.000 N 
ATOM      5  C   UNL     1       1.119   9.015  19.610  0.00  0.00    +0.000 A 
ATOM      6  N   UNL     1       0.780   9.384  20.825  0.00  0.00    +0.000 NA
ATOM      7  C   UNL     1      -0.023  10.519  20.769  0.00  0.00    +0.000 A 
ATOM      8  C   UNL     1      -0.391  11.184  22.047  0.00  0.00    +0.000 C 
ATOM      9  C   UNL     1      -0.340  10.941  19.484  0.00  0.00    +0.000 A 
ATOM     10  S   UNL     1       0.368   9.867  18.345  0.00  0.00    +0.000 S 
ATOM     11  H   UNL     1       3.140   5.896  18.895  0.00  0.00    +0.000 HD
ATOM     12  H   UNL     1       2.336   7.561  20.241  0.00  0.00    +0.000 HD
ENDROOT
BRANCH   1  13
ATOM     13  C   UNL     1       4.422   6.289  17.268  0.00  0.00    +0.000 C 
BRANCH  13  14
ATOM     14  C   UNL     1       4.835   4.791  17.311  0.00  0.00    +0.000 C 
ATOM     15  C   UNL     1       5.316   4.286  15.936  0.00  0.00    +0.000 C 
ATOM     16  C   UNL     1       6.669   4.861  15.542  0.00  0.00    +0.000 C 
ATOM     17  O   UNL     1       7.651   4.612  16.540  0.00  0.00    +0.000 OA
ATOM     18  C   UNL     1       7.313   5.117  17.827  0.00  0.00    +0.000 C 
ATOM     19  C   UNL     1       5.984   4.559  18.317  0.00  0.00    +0.000 C 
BRANCH  14  21
ATOM     20  C   UNL     1       4.016   3.040  18.809  0.00  0.00    +0.000 C 
ATOM     21  O   UNL     1       3.725   3.988  17.787  0.00  0.00    +0.000 OA
ENDBRANCH  14  21
ENDBRANCH  13  14
ENDBRANCH   1  13
BRANCH   9  22
ATOM     22  C   UNL     1      -1.075  12.160  19.019  0.00  0.00    +0.000 C 
BRANCH  22  23
ATOM     23  C   UNL     1      -2.558  11.965  18.803  0.00  0.00    +0.000 A 
ATOM     24  C   UNL     1      -3.482  12.402  19.760  0.00  0.00    +0.000 A 
ATOM     25  C   UNL     1      -4.856  12.282  19.537  0.00  0.00    +0.000 A 
ATOM     26  C   UNL     1      -5.334  11.726  18.347  0.00  0.00    +0.000 A 
ATOM     27  C   UNL     1      -6.807  11.630  18.076  0.00  0.00    +0.000 C 
ATOM     28  C   UNL     1      -4.415  11.279  17.391  0.00  0.00    +0.000 A 
ATOM     29  C   UNL     1      -3.040  11.385  17.621  0.00  0.00    +0.000 A 
ENDBRANCH  22  23
ENDBRANCH   9  22
TORSDOF 5
ENDMDL
MODEL 3
REMARK VINA RESULT:      -7.9      6.223     10.746
REMARK  Name = 
REMARK  8 active torsions:
REMARK  status: ('A' for Active; 'I' for Inactive)
REMARK    1  A    between atoms: C_1  and  O_2
REMARK    2  A    between atoms: O_2  and  C_3
REMARK    3  A    between atoms: C_3  and  C_4
REMARK    4  A    between atoms: C_4  and  N_5
REMARK    5  A    between atoms: C_11  and  C_12
REMARK    6  A    between atoms: C_13  and  C_14
REMARK    7  A    between atoms: C_14  and  C_15
REMARK    8  A    between atoms: C_18  and  C_19
REMARK                            x       y       z     vdW  Elec       q    Type
REMARK                         _______ _______ _______ _____ _____    ______ ____
ROOT
ATOM      1  N   UNL     1       2.427   6.269  20.597  0.00  0.00    +0.000 N 
ATOM      2  C   UNL     1       2.016   7.465  20.020  0.00  0.00    +0.000 C 
ATOM      3  O   UNL     1       2.394   7.794  18.900  0.00  0.00    +0.000 OA
ATOM      4  N   UNL     1       1.218   8.178  20.875  0.00  0.00    +0.000 N 
ATOM      5  C   UNL     1       0.675   9.413  20.617  0.00  0.00    +0.000 A 
ATOM      6  N   UNL     1       0.301  10.218  21.586  0.00  0.00    +0.000 NA
ATOM      7  C   UNL     1      -0.112  11.437  21.057  0.00  0.00    +0.000 A 
ATOM      8  C   UNL     1      -0.434  12.540  22.002  0.00  0.00    +0.000 C 
ATOM      9  C   UNL     1      -0.114  11.495  19.670  0.00  0.00    +0.000 A 
ATOM     10  S   UNL     1       0.389   9.978  19.039  0.00  0.00    +0.000 S 
ATOM     11  H   UNL     1       1.753   5.834  21.213  0.00  0.00    +0.000 HD
ATOM     12  H   UNL     1       1.307   7.982  21.861  0.00  0.00    +0.000 HD
ENDROOT
BRANCH   1  13
ATOM     13  C   UNL     1       3.300   5.368  19.859  0.00  0.00    +0.000 C 
BRANCH  13  14
ATOM     14  C   UNL     1       2.756   3.913  19.808  0.00  0.00    +0.000 C 
ATOM     15  C   UNL     1       1.356   3.844  19.166  0.00  0.00    +0.000 C 
ATOM     16  C   UNL     1       1.386   4.106  17.667  0.00  0.00    +0.000 C 
ATOM     17  O   UNL     1       2.286   3.227  17.004  0.00  0.00    +0.000 OA
ATOM     18  C   UNL     1       3.623   3.288  17.491  0.00  0.00    +0.000 C 
ATOM     19  C   UNL     1       3.688   2.998  18.984  0.00  0.00    +0.000 C 
BRANCH  14  21
ATOM     20  C   UNL     1       1.557   2.628  21.509  0.00  0.00    +0.000 C 
ATOM     21  O   UNL     1       2.730   3.349  21.144  0.00  0.00    +0.000 OA
ENDBRANCH  14  21
ENDBRANCH  13  14
ENDBRANCH   1  13
BRANCH   9  22
ATOM     22  C   UNL     1      -0.382  12.645  18.749  0.00  0.00    +0.000 C 
BRANCH  22  23
ATOM     23  C   UNL     1       0.736  13.658  18.653  0.00  0.00    +0.000 A 
ATOM     24  C   UNL     1       2.025  13.263  18.275  0.00  0.00    +0.000 A 
ATOM     25  C   UNL     1       3.047  14.204  18.124  0.00  0.00    +0.000 A 
ATOM     26  C   UNL     1       2.797  15.561  18.342  0.00  0.00    +0.000 A 
ATOM     27  C   UNL     1       3.874  16.587  18.141  0.00  0.00    +0.000 C 
ATOM     28  C   UNL     1       1.513  15.961  18.729  0.00  0.00    +0.000 A 
ATOM     29  C   UNL     1       0.494  15.017  18.896  0.00  0.00    +0.000 A 
ENDBRANCH  22  23
ENDBRANCH   9  22
TORSDOF 5
ENDMDL
MODEL 4
REMARK VINA RESULT:      -7.8      7.514     10.509
REMARK  Name = 
REMARK  8 active torsions:
REMARK  status: ('A' for Active; 'I' for Inactive)
REMARK    1  A    between atoms: C_1  and  O_2
REMARK    2  A    between atoms: O_2  and  C_3
REMARK    3  A    between atoms: C_3  and  C_4
REMARK    4  A    between atoms: C_4  and  N_5
REMARK    5  A    between atoms: C_11  and  C_12
REMARK    6  A    between atoms: C_13  and  C_14
REMARK    7  A    between atoms: C_14  and  C_15
REMARK    8  A    between atoms: C_18  and  C_19
REMARK                            x       y       z     vdW  Elec       q    Type
REMARK                         _______ _______ _______ _____ _____    ______ ____
ROOT
ATOM      1  N   UNL     1       2.749   6.292  20.565  0.00  0.00    +0.000 N 
ATOM      2  C   UNL     1       2.078   7.369  19.996  0.00  0.00    +0.000 C 
ATOM      3  O   UNL     1       2.078   7.549  18.783  0.00  0.00    +0.000 OA
ATOM      4  N   UNL     1       1.504   8.157  20.958  0.00  0.00    +0.000 N 
ATOM      5  C   UNL     1       0.796   9.311  20.727  0.00  0.00    +0.000 A 
ATOM      6  N   UNL     1       0.650  10.229  21.656  0.00  0.00    +0.000 NA
ATOM      7  C   UNL     1      -0.011  11.334  21.130  0.00  0.00    +0.000 A 
ATOM      8  C   UNL     1      -0.142  12.546  21.983  0.00  0.00    +0.000 C 
ATOM      9  C   UNL     1      -0.426  11.189  19.813  0.00  0.00    +0.000 A 
ATOM     10  S   UNL     1       0.008   9.624  19.253  0.00  0.00    +0.000 S 
ATOM     11  H   UNL     1       2.329   5.918  21.406  0.00  0.00    +0.000 HD
ATOM     12  H   UNL     1       1.896   8.112  21.886  0.00  0.00    +0.000 HD
ENDROOT
BRANCH   1  13
ATOM     13  C   UNL     1       3.447   5.339  19.714  0.00  0.00    +0.000 C 
BRANCH  13  14
ATOM     14  C   UNL     1       2.797   3.927  19.737  0.00  0.00    +0.000 C 
ATOM     15  C   UNL     1       1.396   3.927  19.092  0.00  0.00    +0.000 C 
ATOM     16  C   UNL     1       1.448   4.106  17.582  0.00  0.00    +0.000 C 
ATOM     17  O   UNL     1       2.282   3.130  16.970  0.00  0.00    +0.000 OA
ATOM     18  C   UNL     1       3.619   3.118  17.460  0.00  0.00    +0.000 C 
ATOM     19  C   UNL     1       3.661   2.904  18.967  0.00  0.00    +0.000 C 
BRANCH  14  21
ATOM     20  C   UNL     1       1.539   2.747  21.471  0.00  0.00    +0.000 C 
ATOM     21  O   UNL     1       2.728   3.438  21.101  0.00  0.00    +0.000 OA
ENDBRANCH  14  21
ENDBRANCH  13  14
ENDBRANCH   1  13
BRANCH   9  22
ATOM     22  C   UNL     1      -1.059  12.177  18.883  0.00  0.00    +0.000 C 
BRANCH  22  23
ATOM     23  C   UNL     1      -2.545  11.993  18.674  0.00  0.00    +0.000 A 
ATOM     24  C   UNL     1      -3.459  12.408  19.650  0.00  0.00    +0.000 A 
ATOM     25  C   UNL     1      -4.836  12.297  19.436  0.00  0.00    +0.000 A 
ATOM     26  C   UNL     1      -5.325  11.775  18.236  0.00  0.00    +0.000 A 
ATOM     27  C   UNL     1      -6.800  11.690  17.975  0.00  0.00    +0.000 C 
ATOM     28  C   UNL     1      -4.416  11.349  17.261  0.00  0.00    +0.000 A 
ATOM     29  C   UNL     1      -3.039  11.445  17.482  0.00  0.00    +0.000 A 
ENDBRANCH  22  23
ENDBRANCH   9  22
TORSDOF 5
ENDMDL
MODEL 5
REMARK VINA RESULT:      -7.7      7.445     10.432
REMARK  Name = 
REMARK  8 active torsions:
REMARK  status: ('A' for Active; 'I' for Inactive)
REMARK    1  A    between atoms: C_1  and  O_2
REMARK    2  A    between atoms: O_2  and  C_3
REMARK    3  A    between atoms: C_3  and  C_4
REMARK    4  A    between atoms: C_4  and  N_5
REMARK    5  A    between atoms: C_11  and  C_12
REMARK    6  A    between atoms: C_13  and  C_14
REMARK    7  A    between atoms: C_14  and  C_15
REMARK    8  A    between atoms: C_18  and  C_19
REMARK                            x       y       z     vdW  Elec       q    Type
REMARK                         _______ _______ _______ _____ _____    ______ ____
ROOT
ATOM      1  N   UNL     1       2.670   5.934  20.601  0.00  0.00    +0.000 N 
ATOM      2  C   UNL     1       2.095   7.125  20.173  0.00  0.00    +0.000 C 
ATOM      3  O   UNL     1       2.388   7.619  19.090  0.00  0.00    +0.000 OA
ATOM      4  N   UNL     1       1.247   7.633  21.121  0.00  0.00    +0.000 N 
ATOM      5  C   UNL     1       0.546   8.810  21.017  0.00  0.00    +0.000 A 
ATOM      6  N   UNL     1       0.112   9.450  22.080  0.00  0.00    +0.000 NA
ATOM      7  C   UNL     1      -0.466  10.658  21.702  0.00  0.00    +0.000 A 
ATOM      8  C   UNL     1      -0.887  11.601  22.772  0.00  0.00    +0.000 C 
ATOM      9  C   UNL     1      -0.526  10.867  20.330  0.00  0.00    +0.000 A 
ATOM     10  S   UNL     1       0.136   9.504  19.521  0.00  0.00    +0.000 S 
ATOM     11  H   UNL     1       2.078   5.353  21.179  0.00  0.00    +0.000 HD
ATOM     12  H   UNL     1       1.396   7.343  22.076  0.00  0.00    +0.000 HD
ENDROOT
BRANCH   1  13
ATOM     13  C   UNL     1       3.620   5.237  19.746  0.00  0.00    +0.000 C 
BRANCH  13  14
ATOM     14  C   UNL     1       3.222   3.756  19.489  0.00  0.00    +0.000 C 
ATOM     15  C   UNL     1       1.728   3.615  19.134  0.00  0.00    +0.000 C 
ATOM     16  C   UNL     1       1.401   4.159  17.752  0.00  0.00    +0.000 C 
ATOM     17  O   UNL     1       2.214   3.558  16.751  0.00  0.00    +0.000 OA
ATOM     18  C   UNL     1       3.613   3.713  16.968  0.00  0.00    +0.000 C 
ATOM     19  C   UNL     1       4.034   3.156  18.321  0.00  0.00    +0.000 C 
BRANCH  14  21
ATOM     20  C   UNL     1       4.569   1.974  20.484  0.00  0.00    +0.000 C 
ATOM     21  O   UNL     1       3.546   2.951  20.651  0.00  0.00    +0.000 OA
ENDBRANCH  14  21
ENDBRANCH  13  14
ENDBRANCH   1  13
BRANCH   9  22
ATOM     22  C   UNL     1      -0.968  12.068  19.553  0.00  0.00    +0.000 C 
BRANCH  22  23
ATOM     23  C   UNL     1      -2.415  12.046  19.116  0.00  0.00    +0.000 A 
ATOM     24  C   UNL     1      -2.778  11.498  17.879  0.00  0.00    +0.000 A 
ATOM     25  C   UNL     1      -4.120  11.418  17.498  0.00  0.00    +0.000 A 
ATOM     26  C   UNL     1      -5.127  11.880  18.350  0.00  0.00    +0.000 A 
ATOM     27  C   UNL     1      -6.574  11.761  17.972  0.00  0.00    +0.000 C 
ATOM     28  C   UNL     1      -4.769  12.438  19.583  0.00  0.00    +0.000 A 
ATOM     29  C   UNL     1      -3.425  12.532  19.957  0.00  0.00    +0.000 A 
ENDBRANCH  22  23
ENDBRANCH   9  22
TORSDOF 5
ENDMDL
MODEL 6
REMARK VINA RESULT:      -7.6      6.195     10.760
REMARK  Name = 
REMARK  8 active torsions:
REMARK  status: ('A' for Active; 'I' for Inactive)
REMARK    1  A    between atoms: C_1  and  O_2
REMARK    2  A    between atoms: O_2  and  C_3
REMARK    3  A    between atoms: C_3  and  C_4
REMARK    4  A    between atoms: C_4  and  N_5
REMARK    5  A    between atoms: C_11  and  C_12
REMARK    6  A    between atoms: C_13  and  C_14
REMARK    7  A    between atoms: C_14  and  C_15
REMARK    8  A    between atoms: C_18  and  C_19
REMARK                            x       y       z     vdW  Elec       q    Type
REMARK                         _______ _______ _______ _____ _____    ______ ____
ROOT
ATOM      1  N   UNL     1       2.211   6.341  20.720  0.00  0.00    +0.000 N 
ATOM      2  C   UNL     1       1.865   7.537  20.103  0.00  0.00    +0.000 C 
ATOM      3  O   UNL     1       2.241   7.798  18.965  0.00  0.00    +0.000 OA
ATOM      4  N   UNL     1       1.129   8.331  20.942  0.00  0.00    +0.000 N 
ATOM      5  C   UNL     1       0.658   9.587  20.644  0.00  0.00    +0.000 A 
ATOM      6  N   UNL     1       0.353  10.450  21.587  0.00  0.00    +0.000 NA
ATOM      7  C   UNL     1       0.008  11.671  21.017  0.00  0.00    +0.000 A 
ATOM      8  C   UNL     1      -0.227  12.829  21.922  0.00  0.00    +0.000 C 
ATOM      9  C   UNL     1      -0.017  11.676  19.628  0.00  0.00    +0.000 A 
ATOM     10  S   UNL     1       0.379  10.107  19.051  0.00  0.00    +0.000 S 
ATOM     11  H   UNL     1       1.523   5.973  21.364  0.00  0.00    +0.000 HD
ATOM     12  H   UNL     1       1.224   8.168  21.933  0.00  0.00    +0.000 HD
ENDROOT
BRANCH   1  13
ATOM     13  C   UNL     1       3.013   5.359  20.005  0.00  0.00    +0.000 C 
BRANCH  13  14
ATOM     14  C   UNL     1       2.258   4.019  19.776  0.00  0.00    +0.000 C 
ATOM     15  C   UNL     1       1.656   3.931  18.359  0.00  0.00    +0.000 C 
ATOM     16  C   UNL     1       2.717   3.755  17.283  0.00  0.00    +0.000 C 
ATOM     17  O   UNL     1       3.545   2.629  17.548  0.00  0.00    +0.000 OA
ATOM     18  C   UNL     1       4.200   2.674  18.812  0.00  0.00    +0.000 C 
ATOM     19  C   UNL     1       3.203   2.810  19.954  0.00  0.00    +0.000 C 
BRANCH  14  21
ATOM     20  C   UNL     1       1.360   2.759  21.670  0.00  0.00    +0.000 C 
ATOM     21  O   UNL     1       1.222   3.861  20.779  0.00  0.00    +0.000 OA
ENDBRANCH  14  21
ENDBRANCH  13  14
ENDBRANCH   1  13
BRANCH   9  22
ATOM     22  C   UNL     1      -0.231  12.805  18.667  0.00  0.00    +0.000 C 
BRANCH  22  23
ATOM     23  C   UNL     1       0.918  13.781  18.567  0.00  0.00    +0.000 A 
ATOM     24  C   UNL     1       0.737  15.132  18.890  0.00  0.00    +0.000 A 
ATOM     25  C   UNL     1       1.810  16.026  18.859  0.00  0.00    +0.000 A 
ATOM     26  C   UNL     1       3.090  15.585  18.510  0.00  0.00    +0.000 A 
ATOM     27  C   UNL     1       4.260  16.524  18.515  0.00  0.00    +0.000 C 
ATOM     28  C   UNL     1       3.275  14.238  18.177  0.00  0.00    +0.000 A 
ATOM     29  C   UNL     1       2.198  13.347  18.192  0.00  0.00    +0.000 A 
ENDBRANCH  22  23
ENDBRANCH   9  22
TORSDOF 5
ENDMDL
MODEL 7
REMARK VINA RESULT:      -7.6      7.294      9.526
REMARK  Name = 
REMARK  8 active torsions:
REMARK  status: ('A' for Active; 'I' for Inactive)
REMARK    1  A    between atoms: C_1  and  O_2
REMARK    2  A    between atoms: O_2  and  C_3
REMARK    3  A    between atoms: C_3  and  C_4
REMARK    4  A    between atoms: C_4  and  N_5
REMARK    5  A    between atoms: C_11  and  C_12
REMARK    6  A    between atoms: C_13  and  C_14
REMARK    7  A    between atoms: C_14  and  C_15
REMARK    8  A    between atoms: C_18  and  C_19
REMARK                            x       y       z     vdW  Elec       q    Type
REMARK                         _______ _______ _______ _____ _____    ______ ____
ROOT
ATOM      1  N   UNL     1       3.305   6.852  18.521  0.00  0.00    +0.000 N 
ATOM      2  C   UNL     1       2.488   7.969  18.394  0.00  0.00    +0.000 C 
ATOM      3  O   UNL     1       2.475   8.632  17.362  0.00  0.00    +0.000 OA
ATOM      4  N   UNL     1       1.794   8.209  19.550  0.00  0.00    +0.000 N 
ATOM      5  C   UNL     1       0.926   9.253  19.758  0.00  0.00    +0.000 A 
ATOM      6  N   UNL     1       0.636   9.678  20.967  0.00  0.00    +0.000 NA
ATOM      7  C   UNL     1      -0.175  10.806  20.891  0.00  0.00    +0.000 A 
ATOM      8  C   UNL     1      -0.493  11.530  22.151  0.00  0.00    +0.000 C 
ATOM      9  C   UNL     1      -0.550  11.164  19.602  0.00  0.00    +0.000 A 
ATOM     10  S   UNL     1       0.116  10.040  18.487  0.00  0.00    +0.000 S 
ATOM     11  H   UNL     1       2.936   6.113  19.106  0.00  0.00    +0.000 HD
ATOM     12  H   UNL     1       2.179   7.837  20.405  0.00  0.00    +0.000 HD
ENDROOT
BRANCH   1  13
ATOM     13  C   UNL     1       4.145   6.434  17.408  0.00  0.00    +0.000 C 
BRANCH  13  14
ATOM     14  C   UNL     1       4.548   4.934  17.491  0.00  0.00    +0.000 C 
ATOM     15  C   UNL     1       5.702   4.594  16.527  0.00  0.00    +0.000 C 
ATOM     16  C   UNL     1       7.030   5.189  16.972  0.00  0.00    +0.000 C 
ATOM     17  O   UNL     1       7.355   4.801  18.301  0.00  0.00    +0.000 OA
ATOM     18  C   UNL     1       6.368   5.151  19.266  0.00  0.00    +0.000 C 
ATOM     19  C   UNL     1       5.010   4.560  18.917  0.00  0.00    +0.000 C 
BRANCH  14  21
ATOM     20  C   UNL     1       2.931   3.282  18.287  0.00  0.00    +0.000 C 
ATOM     21  O   UNL     1       3.394   4.099  17.217  0.00  0.00    +0.000 OA
ENDBRANCH  14  21
ENDBRANCH  13  14
ENDBRANCH   1  13
BRANCH   9  22
ATOM     22  C   UNL     1      -1.312  12.356  19.112  0.00  0.00    +0.000 C 
BRANCH  22  23
ATOM     23  C   UNL     1      -2.806  12.155  19.001  0.00  0.00    +0.000 A 
ATOM     24  C   UNL     1      -3.355  11.472  17.908  0.00  0.00    +0.000 A 
ATOM     25  C   UNL     1      -4.729  11.228  17.833  0.00  0.00    +0.000 A 
ATOM     26  C   UNL     1      -5.581  11.657  18.854  0.00  0.00    +0.000 A 
ATOM     27  C   UNL     1      -7.052  11.364  18.806  0.00  0.00    +0.000 C 
ATOM     28  C   UNL     1      -5.039  12.348  19.944  0.00  0.00    +0.000 A 
ATOM     29  C   UNL     1      -3.667  12.607  20.011  0.00  0.00    +0.000 A 
ENDBRANCH  22  23
ENDBRANCH   9  22
TORSDOF 5
ENDMDL
MODEL 8
REMARK VINA RESULT:      -7.6      3.073      9.895
REMARK  Name = 
REMARK  8 active torsions:
REMARK  status: ('A' for Active; 'I' for Inactive)
REMARK    1  A    between atoms: C_1  and  O_2
REMARK    2  A    between atoms: O_2  and  C_3
REMARK    3  A    between atoms: C_3  and  C_4
REMARK    4  A    between atoms: C_4  and  N_5
REMARK    5  A    between atoms: C_11  and  C_12
REMARK    6  A    between atoms: C_13  and  C_14
REMARK    7  A    between atoms: C_14  and  C_15
REMARK    8  A    between atoms: C_18  and  C_19
REMARK                            x       y       z     vdW  Elec       q    Type
REMARK                         _______ _______ _______ _____ _____    ______ ____
ROOT
ATOM      1  N   UNL     1       7.609   8.145  17.275  0.00  0.00    +0.000 N 
ATOM      2  C   UNL     1       8.314   9.070  18.036  0.00  0.00    +0.000 C 
ATOM      3  O   UNL     1       8.822   8.756  19.107  0.00  0.00    +0.000 OA
ATOM      4  N   UNL     1       8.300  10.307  17.448  0.00  0.00    +0.000 N 
ATOM      5  C   UNL     1       8.880  11.442  17.962  0.00  0.00    +0.000 A 
ATOM      6  N   UNL     1       8.483  12.641  17.604  0.00  0.00    +0.000 NA
ATOM      7  C   UNL     1       9.156  13.605  18.348  0.00  0.00    +0.000 A 
ATOM      8  C   UNL     1       8.741  15.026  18.199  0.00  0.00    +0.000 C 
ATOM      9  C   UNL     1      10.121  13.101  19.210  0.00  0.00    +0.000 A 
ATOM     10  S   UNL     1      10.185  11.392  19.049  0.00  0.00    +0.000 S 
ATOM     11  H   UNL     1       7.662   8.281  16.273  0.00  0.00    +0.000 HD
ATOM     12  H   UNL     1       7.550  10.503  16.802  0.00  0.00    +0.000 HD
ENDROOT
BRANCH   1  13
ATOM     13  C   UNL     1       7.485   6.769  17.732  0.00  0.00    +0.000 C 
BRANCH  13  14
ATOM     14  C   UNL     1       6.678   5.878  16.746  0.00  0.00    +0.000 C 
ATOM     15  C   UNL     1       6.391   4.482  17.333  0.00  0.00    +0.000 C 
ATOM     16  C   UNL     1       5.369   4.520  18.460  0.00  0.00    +0.000 C 
ATOM     17  O   UNL     1       4.162   5.148  18.046  0.00  0.00    +0.000 OA
ATOM     18  C   UNL     1       4.335   6.476  17.561  0.00  0.00    +0.000 C 
ATOM     19  C   UNL     1       5.318   6.523  16.400  0.00  0.00    +0.000 C 
BRANCH  14  21
ATOM     20  C   UNL     1       6.880   4.825  14.548  0.00  0.00    +0.000 C 
ATOM     21  O   UNL     1       7.393   5.764  15.489  0.00  0.00    +0.000 OA
ENDBRANCH  14  21
ENDBRANCH  13  14
ENDBRANCH   1  13
BRANCH   9  22
ATOM     22  C   UNL     1      10.963  13.797  20.235  0.00  0.00    +0.000 C 
BRANCH  22  23
ATOM     23  C   UNL     1      10.214  14.264  21.462  0.00  0.00    +0.000 A 
ATOM     24  C   UNL     1       9.282  13.427  22.090  0.00  0.00    +0.000 A 
ATOM     25  C   UNL     1       8.634  13.828  23.261  0.00  0.00    +0.000 A 
ATOM     26  C   UNL     1       8.910  15.074  23.831  0.00  0.00    +0.000 A 
ATOM     27  C   UNL     1       8.253  15.500  25.111  0.00  0.00    +0.000 C 
ATOM     28  C   UNL     1       9.833  15.918  23.203  0.00  0.00    +0.000 A 
ATOM     29  C   UNL     1      10.469  15.523  22.023  0.00  0.00    +0.000 A 
ENDBRANCH  22  23
ENDBRANCH   9  22
TORSDOF 5
ENDMDL
MODEL 9
REMARK VINA RESULT:      -7.5      7.409     10.170
REMARK  Name = 
REMARK  8 active torsions:
REMARK  status: ('A' for Active; 'I' for Inactive)
REMARK    1  A    between atoms: C_1  and  O_2
REMARK    2  A    between atoms: O_2  and  C_3
REMARK    3  A    between atoms: C_3  and  C_4
REMARK    4  A    between atoms: C_4  and  N_5
REMARK    5  A    between atoms: C_11  and  C_12
REMARK    6  A    between atoms: C_13  and  C_14
REMARK    7  A    between atoms: C_14  and  C_15
REMARK    8  A    between atoms: C_18  and  C_19
REMARK                            x       y       z     vdW  Elec       q    Type
REMARK                         _______ _______ _______ _____ _____    ______ ____
ROOT
ATOM      1  N   UNL     1       2.960   6.240  19.844  0.00  0.00    +0.000 N 
ATOM      2  C   UNL     1       2.286   7.438  19.637  0.00  0.00    +0.000 C 
ATOM      3  O   UNL     1       2.499   8.123  18.642  0.00  0.00    +0.000 OA
ATOM      4  N   UNL     1       1.446   7.719  20.681  0.00  0.00    +0.000 N 
ATOM      5  C   UNL     1       0.661   8.841  20.795  0.00  0.00    +0.000 A 
ATOM      6  N   UNL     1       0.228   9.264  21.961  0.00  0.00    +0.000 NA
ATOM      7  C   UNL     1      -0.448  10.470  21.806  0.00  0.00    +0.000 A 
ATOM      8  C   UNL     1      -0.888  11.192  23.030  0.00  0.00    +0.000 C 
ATOM      9  C   UNL     1      -0.579  10.896  20.491  0.00  0.00    +0.000 A 
ATOM     10  S   UNL     1       0.142   9.737  19.447  0.00  0.00    +0.000 S 
ATOM     11  H   UNL     1       2.434   5.529  20.335  0.00  0.00    +0.000 HD
ATOM     12  H   UNL     1       1.654   7.289  21.569  0.00  0.00    +0.000 HD
ENDROOT
BRANCH   1  13
ATOM     13  C   UNL     1       3.920   5.765  18.858  0.00  0.00    +0.000 C 
BRANCH  13  14
ATOM     14  C   UNL     1       4.281   4.265  19.046  0.00  0.00    +0.000 C 
ATOM     15  C   UNL     1       3.340   3.567  20.048  0.00  0.00    +0.000 C 
ATOM     16  C   UNL     1       1.936   3.373  19.495  0.00  0.00    +0.000 C 
ATOM     17  O   UNL     1       1.957   2.674  18.256  0.00  0.00    +0.000 OA
ATOM     18  C   UNL     1       2.748   3.299  17.250  0.00  0.00    +0.000 C 
ATOM     19  C   UNL     1       4.185   3.497  17.709  0.00  0.00    +0.000 C 
BRANCH  14  21
ATOM     20  C   UNL     1       6.492   5.282  19.285  0.00  0.00    +0.000 C 
ATOM     21  O   UNL     1       5.662   4.141  19.475  0.00  0.00    +0.000 OA
ENDBRANCH  14  21
ENDBRANCH  13  14
ENDBRANCH   1  13
BRANCH   9  22
ATOM     22  C   UNL     1      -1.135  12.171  19.937  0.00  0.00    +0.000 C 
BRANCH  22  23
ATOM     23  C   UNL     1      -2.557  12.080  19.434  0.00  0.00    +0.000 A 
ATOM     24  C   UNL     1      -3.611  12.636  20.169  0.00  0.00    +0.000 A 
ATOM     25  C   UNL     1      -4.920  12.610  19.679  0.00  0.00    +0.000 A 
ATOM     26  C   UNL     1      -5.199  12.031  18.438  0.00  0.00    +0.000 A 
ATOM     27  C   UNL     1      -6.592  12.033  17.880  0.00  0.00    +0.000 C 
ATOM     28  C   UNL     1      -4.151  11.464  17.703  0.00  0.00    +0.000 A 
ATOM     29  C   UNL     1      -2.845  11.476  18.201  0.00  0.00    +0.000 A 
ENDBRANCH  22  23
ENDBRANCH   9  22
TORSDOF 5
ENDMDL
