MODEL 1
REMARK VINA RESULT:      -6.3      0.000      0.000
REMARK  Name = 
REMARK  16 active torsions:
REMARK  status: ('A' for Active; 'I' for Inactive)
REMARK    1  A    between atoms: C_2  and  C_3
REMARK    2  A    between atoms: C_3  and  C_4
REMARK    3  A    between atoms: C_4  and  C_5
REMARK    4  A    between atoms: C_4  and  C_6
REMARK    5  A    between atoms: C_4  and  C_8
REMARK    6  A    between atoms: C_6  and  O_7
REMARK    7  A    between atoms: C_8  and  O_9
REMARK    8  A    between atoms: C_8  and  C_10
REMARK    9  A    between atoms: N_12  and  C_13
REMARK   10  A    between atoms: C_13  and  C_14
REMARK   11  A    between atoms: C_14  and  C_15
REMARK   12  A    between atoms: N_17  and  C_18
REMARK   13  A    between atoms: C_18  and  C_19
REMARK   14  A    between atoms: C_19  and  C_20
REMARK   15  A    between atoms: C_20  and  C_21
REMARK   16  A    between atoms: C_21  and  C_22
REMARK                            x       y       z     vdW  Elec       q    Type
REMARK                         _______ _______ _______ _____ _____    ______ ____
ROOT
ATOM      1  C   UNL     1       4.314   3.378  18.454  0.00  0.00    +0.000 C 
ATOM      2  O   UNL     1       4.431   3.223  17.239  0.00  0.00    +0.000 OA
ATOM      3  N   UNL     1       5.310   3.995  19.179  0.00  0.00    +0.000 N 
ATOM      4  H   UNL     1       5.204   4.160  20.176  0.00  0.00    +0.000 HD
ENDROOT
BRANCH   1   5
ATOM      5  C   UNL     1       3.034   2.957  19.224  0.00  0.00    +0.000 C 
BRANCH   5   6
ATOM      6  C   UNL     1       1.915   4.055  19.200  0.00  0.00    +0.000 C 
ATOM      7  C   UNL     1       1.475   4.317  17.734  0.00  0.00    +0.000 C 
BRANCH   6   8
ATOM      8  C   UNL     1       2.392   5.424  19.799  0.00  0.00    +0.000 C 
BRANCH   8  10
ATOM      9  C   UNL     1       2.895   7.398  18.087  0.00  0.00    +0.000 C 
ATOM     10  C   UNL     1       2.655   6.481  18.792  0.00  0.00    +0.000 C 
ENDBRANCH   8  10
ENDBRANCH   6   8
BRANCH   6  11
ATOM     11  C   UNL     1       0.648   3.525  19.940  0.00  0.00    +0.000 C 
BRANCH  11  12
ATOM     12  O   UNL     1       1.006   2.827  21.132  0.00  0.00    +0.000 OA
ATOM     13  H   UNL     1       1.418   1.988  20.862  0.00  0.00    +0.000 HD
ENDBRANCH  11  12
ENDBRANCH   6  11
ENDBRANCH   5   6
BRANCH   5  14
ATOM     14  O   UNL     1       2.530   1.696  18.765  0.00  0.00    +0.000 OA
ATOM     15  H   UNL     1       2.466   1.714  17.792  0.00  0.00    +0.000 HD
ENDBRANCH   5  14
ENDBRANCH   1   5
BRANCH   3  16
ATOM     16  C   UNL     1       6.496   4.429  18.457  0.00  0.00    +0.000 C 
BRANCH  16  17
ATOM     17  C   UNL     1       6.491   5.921  18.135  0.00  0.00    +0.000 C 
BRANCH  17  18
ATOM     18  C   UNL     1       6.288   6.117  16.647  0.00  0.00    +0.000 C 
ATOM     19  O   UNL     1       5.898   7.175  16.164  0.00  0.00    +0.000 OA
ATOM     20  N   UNL     1       6.534   5.000  15.880  0.00  0.00    +0.000 N 
ATOM     21  H   UNL     1       6.872   4.149  16.316  0.00  0.00    +0.000 HD
BRANCH  20  22
ATOM     22  C   UNL     1       6.376   5.046  14.439  0.00  0.00    +0.000 C 
BRANCH  22  23
ATOM     23  C   UNL     1       6.363   3.659  13.794  0.00  0.00    +0.000 C 
BRANCH  23  24
ATOM     24  C   UNL     1       6.147   3.744  12.281  0.00  0.00    +0.000 C 
BRANCH  24  25
ATOM     25  C   UNL     1       5.162   2.685  11.794  0.00  0.00    +0.000 C 
ATOM     26  C   UNL     1       3.975   3.315  11.081  0.00  0.00    +0.000 C 
ENDBRANCH  24  25
ENDBRANCH  23  24
ENDBRANCH  22  23
ENDBRANCH  20  22
ENDBRANCH  17  18
ENDBRANCH  16  17
ENDBRANCH   3  16
TORSDOF 14
ENDMDL
MODEL 2
REMARK VINA RESULT:      -6.3      2.751      4.736
REMARK  Name = 
REMARK  16 active torsions:
REMARK  status: ('A' for Active; 'I' for Inactive)
REMARK    1  A    between atoms: C_2  and  C_3
REMARK    2  A    between atoms: C_3  and  C_4
REMARK    3  A    between atoms: C_4  and  C_5
REMARK    4  A    between atoms: C_4  and  C_6
REMARK    5  A    between atoms: C_4  and  C_8
REMARK    6  A    between atoms: C_6  and  O_7
REMARK    7  A    between atoms: C_8  and  O_9
REMARK    8  A    between atoms: C_8  and  C_10
REMARK    9  A    between atoms: N_12  and  C_13
REMARK   10  A    between atoms: C_13  and  C_14
REMARK   11  A    between atoms: C_14  and  C_15
REMARK   12  A    between atoms: N_17  and  C_18
REMARK   13  A    between atoms: C_18  and  C_19
REMARK   14  A    between atoms: C_19  and  C_20
REMARK   15  A    between atoms: C_20  and  C_21
REMARK   16  A    between atoms: C_21  and  C_22
REMARK                            x       y       z     vdW  Elec       q    Type
REMARK                         _______ _______ _______ _____ _____    ______ ____
ROOT
ATOM      1  C   UNL     1       4.094   3.306  18.283  0.00  0.00    +0.000 C 
ATOM      2  O   UNL     1       3.835   2.303  17.619  0.00  0.00    +0.000 OA
ATOM      3  N   UNL     1       4.722   4.386  17.702  0.00  0.00    +0.000 N 
ATOM      4  H   UNL     1       4.905   5.231  18.234  0.00  0.00    +0.000 HD
ENDROOT
BRANCH   1   5
ATOM      5  C   UNL     1       3.679   3.445  19.772  0.00  0.00    +0.000 C 
BRANCH   5   6
ATOM      6  C   UNL     1       2.175   3.851  19.954  0.00  0.00    +0.000 C 
ATOM      7  C   UNL     1       1.439   3.743  18.591  0.00  0.00    +0.000 C 
BRANCH   6   8
ATOM      8  C   UNL     1       2.001   5.322  20.468  0.00  0.00    +0.000 C 
BRANCH   8  10
ATOM      9  C   UNL     1       2.506   7.284  18.741  0.00  0.00    +0.000 C 
ATOM     10  C   UNL     1       2.312   6.368  19.462  0.00  0.00    +0.000 C 
ENDBRANCH   8  10
ENDBRANCH   6   8
BRANCH   6  11
ATOM     11  C   UNL     1       1.471   2.832  20.904  0.00  0.00    +0.000 C 
BRANCH  11  12
ATOM     12  O   UNL     1       1.830   3.070  22.265  0.00  0.00    +0.000 OA
ATOM     13  H   UNL     1       2.789   3.231  22.285  0.00  0.00    +0.000 HD
ENDBRANCH  11  12
ENDBRANCH   6  11
ENDBRANCH   5   6
BRANCH   5  14
ATOM     14  O   UNL     1       3.989   2.262  20.520  0.00  0.00    +0.000 OA
ATOM     15  H   UNL     1       4.753   1.817  20.110  0.00  0.00    +0.000 HD
ENDBRANCH   5  14
ENDBRANCH   1   5
BRANCH   3  16
ATOM     16  C   UNL     1       5.078   4.279  16.296  0.00  0.00    +0.000 C 
BRANCH  16  17
ATOM     17  C   UNL     1       5.778   5.524  15.758  0.00  0.00    +0.000 C 
BRANCH  17  18
ATOM     18  C   UNL     1       6.878   5.940  16.712  0.00  0.00    +0.000 C 
ATOM     19  O   UNL     1       7.606   5.132  17.279  0.00  0.00    +0.000 OA
ATOM     20  N   UNL     1       6.970   7.298  16.929  0.00  0.00    +0.000 N 
ATOM     21  H   UNL     1       6.361   7.934  16.427  0.00  0.00    +0.000 HD
BRANCH  20  22
ATOM     22  C   UNL     1       7.978   7.835  17.824  0.00  0.00    +0.000 C 
BRANCH  22  23
ATOM     23  C   UNL     1       8.045   9.363  17.799  0.00  0.00    +0.000 C 
BRANCH  23  24
ATOM     24  C   UNL     1       9.043   9.898  18.830  0.00  0.00    +0.000 C 
BRANCH  24  25
ATOM     25  C   UNL     1       9.875  11.045  18.264  0.00  0.00    +0.000 C 
ATOM     26  C   UNL     1       9.000  12.225  17.869  0.00  0.00    +0.000 C 
ENDBRANCH  24  25
ENDBRANCH  23  24
ENDBRANCH  22  23
ENDBRANCH  20  22
ENDBRANCH  17  18
ENDBRANCH  16  17
ENDBRANCH   3  16
TORSDOF 14
ENDMDL
MODEL 3
REMARK VINA RESULT:      -6.2      1.673      2.583
REMARK  Name = 
REMARK  16 active torsions:
REMARK  status: ('A' for Active; 'I' for Inactive)
REMARK    1  A    between atoms: C_2  and  C_3
REMARK    2  A    between atoms: C_3  and  C_4
REMARK    3  A    between atoms: C_4  and  C_5
REMARK    4  A    between atoms: C_4  and  C_6
REMARK    5  A    between atoms: C_4  and  C_8
REMARK    6  A    between atoms: C_6  and  O_7
REMARK    7  A    between atoms: C_8  and  O_9
REMARK    8  A    between atoms: C_8  and  C_10
REMARK    9  A    between atoms: N_12  and  C_13
REMARK   10  A    between atoms: C_13  and  C_14
REMARK   11  A    between atoms: C_14  and  C_15
REMARK   12  A    between atoms: N_17  and  C_18
REMARK   13  A    between atoms: C_18  and  C_19
REMARK   14  A    between atoms: C_19  and  C_20
REMARK   15  A    between atoms: C_20  and  C_21
REMARK   16  A    between atoms: C_21  and  C_22
REMARK                            x       y       z     vdW  Elec       q    Type
REMARK                         _______ _______ _______ _____ _____    ______ ____
ROOT
ATOM      1  C   UNL     1       3.963   5.041  18.360  0.00  0.00    +0.000 C 
ATOM      2  O   UNL     1       3.661   6.136  18.833  0.00  0.00    +0.000 OA
ATOM      3  N   UNL     1       5.286   4.671  18.244  0.00  0.00    +0.000 N 
ATOM      4  H   UNL     1       5.543   3.755  17.890  0.00  0.00    +0.000 HD
ENDROOT
BRANCH   1   5
ATOM      5  C   UNL     1       2.897   3.997  17.935  0.00  0.00    +0.000 C 
BRANCH   5   6
ATOM      6  C   UNL     1       2.637   2.905  19.030  0.00  0.00    +0.000 C 
ATOM      7  C   UNL     1       1.184   2.371  18.895  0.00  0.00    +0.000 C 
BRANCH   6   8
ATOM      8  C   UNL     1       2.802   3.454  20.489  0.00  0.00    +0.000 C 
BRANCH   8  10
ATOM      9  C   UNL     1       1.105   2.321  22.198  0.00  0.00    +0.000 C 
ATOM     10  C   UNL     1       1.906   2.825  21.491  0.00  0.00    +0.000 C 
ENDBRANCH   8  10
ENDBRANCH   6   8
BRANCH   6  11
ATOM     11  C   UNL     1       3.569   1.680  18.777  0.00  0.00    +0.000 C 
BRANCH  11  12
ATOM     12  O   UNL     1       4.826   1.851  19.431  0.00  0.00    +0.000 OA
ATOM     13  H   UNL     1       4.640   2.122  20.346  0.00  0.00    +0.000 HD
ENDBRANCH  11  12
ENDBRANCH   6  11
ENDBRANCH   5   6
BRANCH   5  14
ATOM     14  O   UNL     1       1.673   4.625  17.531  0.00  0.00    +0.000 OA
ATOM     15  H   UNL     1       1.681   5.556  17.823  0.00  0.00    +0.000 HD
ENDBRANCH   5  14
ENDBRANCH   1   5
BRANCH   3  16
ATOM     16  C   UNL     1       6.291   5.629  18.678  0.00  0.00    +0.000 C 
BRANCH  16  17
ATOM     17  C   UNL     1       7.442   5.782  17.686  0.00  0.00    +0.000 C 
BRANCH  17  18
ATOM     18  C   UNL     1       6.893   5.842  16.277  0.00  0.00    +0.000 C 
ATOM     19  O   UNL     1       6.014   6.629  15.939  0.00  0.00    +0.000 OA
ATOM     20  N   UNL     1       7.426   4.913  15.411  0.00  0.00    +0.000 N 
ATOM     21  H   UNL     1       8.163   4.291  15.724  0.00  0.00    +0.000 HD
BRANCH  20  22
ATOM     22  C   UNL     1       6.986   4.856  14.029  0.00  0.00    +0.000 C 
BRANCH  22  23
ATOM     23  C   UNL     1       6.078   3.660  13.740  0.00  0.00    +0.000 C 
BRANCH  23  24
ATOM     24  C   UNL     1       5.783   3.527  12.243  0.00  0.00    +0.000 C 
BRANCH  24  25
ATOM     25  C   UNL     1       4.308   3.231  11.986  0.00  0.00    +0.000 C 
ATOM     26  C   UNL     1       3.904   3.603  10.567  0.00  0.00    +0.000 C 
ENDBRANCH  24  25
ENDBRANCH  23  24
ENDBRANCH  22  23
ENDBRANCH  20  22
ENDBRANCH  17  18
ENDBRANCH  16  17
ENDBRANCH   3  16
TORSDOF 14
ENDMDL
MODEL 4
REMARK VINA RESULT:      -6.2      1.809      2.976
REMARK  Name = 
REMARK  16 active torsions:
REMARK  status: ('A' for Active; 'I' for Inactive)
REMARK    1  A    between atoms: C_2  and  C_3
REMARK    2  A    between atoms: C_3  and  C_4
REMARK    3  A    between atoms: C_4  and  C_5
REMARK    4  A    between atoms: C_4  and  C_6
REMARK    5  A    between atoms: C_4  and  C_8
REMARK    6  A    between atoms: C_6  and  O_7
REMARK    7  A    between atoms: C_8  and  O_9
REMARK    8  A    between atoms: C_8  and  C_10
REMARK    9  A    between atoms: N_12  and  C_13
REMARK   10  A    between atoms: C_13  and  C_14
REMARK   11  A    between atoms: C_14  and  C_15
REMARK   12  A    between atoms: N_17  and  C_18
REMARK   13  A    between atoms: C_18  and  C_19
REMARK   14  A    between atoms: C_19  and  C_20
REMARK   15  A    between atoms: C_20  and  C_21
REMARK   16  A    between atoms: C_21  and  C_22
REMARK                            x       y       z     vdW  Elec       q    Type
REMARK                         _______ _______ _______ _____ _____    ______ ____
ROOT
ATOM      1  C   UNL     1       5.090   4.995  18.444  0.00  0.00    +0.000 C 
ATOM      2  O   UNL     1       5.893   4.237  18.988  0.00  0.00    +0.000 OA
ATOM      3  N   UNL     1       5.477   5.767  17.370  0.00  0.00    +0.000 N 
ATOM      4  H   UNL     1       4.811   6.367  16.892  0.00  0.00    +0.000 HD
ENDROOT
BRANCH   1   5
ATOM      5  C   UNL     1       3.604   5.081  18.878  0.00  0.00    +0.000 C 
BRANCH   5   6
ATOM      6  C   UNL     1       2.892   3.683  18.912  0.00  0.00    +0.000 C 
ATOM      7  C   UNL     1       1.353   3.883  18.852  0.00  0.00    +0.000 C 
BRANCH   6   8
ATOM      8  C   UNL     1       3.210   2.870  20.214  0.00  0.00    +0.000 C 
BRANCH   8  10
ATOM      9  C   UNL     1       1.267   2.657  22.020  0.00  0.00    +0.000 C 
ATOM     10  C   UNL     1       2.080   2.768  21.170  0.00  0.00    +0.000 C 
ENDBRANCH   8  10
ENDBRANCH   6   8
BRANCH   6  11
ATOM     11  C   UNL     1       3.271   2.874  17.633  0.00  0.00    +0.000 C 
BRANCH  11  12
ATOM     12  O   UNL     1       4.062   1.734  17.964  0.00  0.00    +0.000 OA
ATOM     13  H   UNL     1       4.644   1.557  17.205  0.00  0.00    +0.000 HD
ENDBRANCH  11  12
ENDBRANCH   6  11
ENDBRANCH   5   6
BRANCH   5  14
ATOM     14  O   UNL     1       3.456   5.765  20.129  0.00  0.00    +0.000 OA
ATOM     15  H   UNL     1       3.895   6.634  20.070  0.00  0.00    +0.000 HD
ENDBRANCH   5  14
ENDBRANCH   1   5
BRANCH   3  16
ATOM     16  C   UNL     1       6.860   5.663  16.931  0.00  0.00    +0.000 C 
BRANCH  16  17
ATOM     17  C   UNL     1       7.154   4.370  16.174  0.00  0.00    +0.000 C 
BRANCH  17  18
ATOM     18  C   UNL     1       7.229   4.657  14.689  0.00  0.00    +0.000 C 
ATOM     19  O   UNL     1       7.836   5.618  14.229  0.00  0.00    +0.000 OA
ATOM     20  N   UNL     1       6.525   3.777  13.897  0.00  0.00    +0.000 N 
ATOM     21  H   UNL     1       6.051   2.984  14.315  0.00  0.00    +0.000 HD
BRANCH  20  22
ATOM     22  C   UNL     1       6.509   3.936  12.454  0.00  0.00    +0.000 C 
BRANCH  22  23
ATOM     23  C   UNL     1       6.476   2.602  11.707  0.00  0.00    +0.000 C 
BRANCH  23  24
ATOM     24  C   UNL     1       5.043   2.182  11.370  0.00  0.00    +0.000 C 
BRANCH  24  25
ATOM     25  C   UNL     1       4.075   3.357  11.471  0.00  0.00    +0.000 C 
ATOM     26  C   UNL     1       3.385   3.626  10.142  0.00  0.00    +0.000 C 
ENDBRANCH  24  25
ENDBRANCH  23  24
ENDBRANCH  22  23
ENDBRANCH  20  22
ENDBRANCH  17  18
ENDBRANCH  16  17
ENDBRANCH   3  16
TORSDOF 14
ENDMDL
MODEL 5
REMARK VINA RESULT:      -6.0      2.026      3.084
REMARK  Name = 
REMARK  16 active torsions:
REMARK  status: ('A' for Active; 'I' for Inactive)
REMARK    1  A    between atoms: C_2  and  C_3
REMARK    2  A    between atoms: C_3  and  C_4
REMARK    3  A    between atoms: C_4  and  C_5
REMARK    4  A    between atoms: C_4  and  C_6
REMARK    5  A    between atoms: C_4  and  C_8
REMARK    6  A    between atoms: C_6  and  O_7
REMARK    7  A    between atoms: C_8  and  O_9
REMARK    8  A    between atoms: C_8  and  C_10
REMARK    9  A    between atoms: N_12  and  C_13
REMARK   10  A    between atoms: C_13  and  C_14
REMARK   11  A    between atoms: C_14  and  C_15
REMARK   12  A    between atoms: N_17  and  C_18
REMARK   13  A    between atoms: C_18  and  C_19
REMARK   14  A    between atoms: C_19  and  C_20
REMARK   15  A    between atoms: C_20  and  C_21
REMARK   16  A    between atoms: C_21  and  C_22
REMARK                            x       y       z     vdW  Elec       q    Type
REMARK                         _______ _______ _______ _____ _____    ______ ____
ROOT
ATOM      1  C   UNL     1       4.565   4.950  17.740  0.00  0.00    +0.000 C 
ATOM      2  O   UNL     1       4.288   5.774  16.870  0.00  0.00    +0.000 OA
ATOM      3  N   UNL     1       5.291   3.821  17.428  0.00  0.00    +0.000 N 
ATOM      4  H   UNL     1       5.556   3.155  18.147  0.00  0.00    +0.000 HD
ENDROOT
BRANCH   1   5
ATOM      5  C   UNL     1       4.180   5.154  19.229  0.00  0.00    +0.000 C 
BRANCH   5   6
ATOM      6  C   UNL     1       2.644   5.385  19.440  0.00  0.00    +0.000 C 
ATOM      7  C   UNL     1       2.210   4.779  20.804  0.00  0.00    +0.000 C 
BRANCH   6   8
ATOM      8  C   UNL     1       1.769   4.712  18.327  0.00  0.00    +0.000 C 
BRANCH   8  10
ATOM      9  C   UNL     1       0.877   2.257  18.840  0.00  0.00    +0.000 C 
ATOM     10  C   UNL     1       1.252   3.365  18.678  0.00  0.00    +0.000 C 
ENDBRANCH   8  10
ENDBRANCH   6   8
BRANCH   6  11
ATOM     11  C   UNL     1       2.355   6.915  19.539  0.00  0.00    +0.000 C 
BRANCH  11  12
ATOM     12  O   UNL     1       2.164   7.313  20.896  0.00  0.00    +0.000 OA
ATOM     13  H   UNL     1       2.808   6.820  21.434  0.00  0.00    +0.000 HD
ENDBRANCH  11  12
ENDBRANCH   6  11
ENDBRANCH   5   6
BRANCH   5  14
ATOM     14  O   UNL     1       4.659   4.082  20.052  0.00  0.00    +0.000 OA
ATOM     15  H   UNL     1       4.104   3.294  19.902  0.00  0.00    +0.000 HD
ENDBRANCH   5  14
ENDBRANCH   1   5
BRANCH   3  16
ATOM     16  C   UNL     1       5.690   3.642  16.040  0.00  0.00    +0.000 C 
BRANCH  16  17
ATOM     17  C   UNL     1       6.825   4.570  15.617  0.00  0.00    +0.000 C 
BRANCH  17  18
ATOM     18  C   UNL     1       6.959   4.553  14.108  0.00  0.00    +0.000 C 
ATOM     19  O   UNL     1       7.725   5.293  13.501  0.00  0.00    +0.000 OA
ATOM     20  N   UNL     1       6.120   3.669  13.466  0.00  0.00    +0.000 N 
ATOM     21  H   UNL     1       5.513   3.061  14.006  0.00  0.00    +0.000 HD
BRANCH  20  22
ATOM     22  C   UNL     1       6.140   3.551  12.020  0.00  0.00    +0.000 C 
BRANCH  22  23
ATOM     23  C   UNL     1       5.064   2.606  11.483  0.00  0.00    +0.000 C 
BRANCH  23  24
ATOM     24  C   UNL     1       3.742   3.341  11.239  0.00  0.00    +0.000 C 
BRANCH  24  25
ATOM     25  C   UNL     1       3.393   3.387   9.754  0.00  0.00    +0.000 C 
ATOM     26  C   UNL     1       2.567   4.618   9.415  0.00  0.00    +0.000 C 
ENDBRANCH  24  25
ENDBRANCH  23  24
ENDBRANCH  22  23
ENDBRANCH  20  22
ENDBRANCH  17  18
ENDBRANCH  16  17
ENDBRANCH   3  16
TORSDOF 14
ENDMDL
MODEL 6
REMARK VINA RESULT:      -6.0      1.427      1.670
REMARK  Name = 
REMARK  16 active torsions:
REMARK  status: ('A' for Active; 'I' for Inactive)
REMARK    1  A    between atoms: C_2  and  C_3
REMARK    2  A    between atoms: C_3  and  C_4
REMARK    3  A    between atoms: C_4  and  C_5
REMARK    4  A    between atoms: C_4  and  C_6
REMARK    5  A    between atoms: C_4  and  C_8
REMARK    6  A    between atoms: C_6  and  O_7
REMARK    7  A    between atoms: C_8  and  O_9
REMARK    8  A    between atoms: C_8  and  C_10
REMARK    9  A    between atoms: N_12  and  C_13
REMARK   10  A    between atoms: C_13  and  C_14
REMARK   11  A    between atoms: C_14  and  C_15
REMARK   12  A    between atoms: N_17  and  C_18
REMARK   13  A    between atoms: C_18  and  C_19
REMARK   14  A    between atoms: C_19  and  C_20
REMARK   15  A    between atoms: C_20  and  C_21
REMARK   16  A    between atoms: C_21  and  C_22
REMARK                            x       y       z     vdW  Elec       q    Type
REMARK                         _______ _______ _______ _____ _____    ______ ____
ROOT
ATOM      1  C   UNL     1       5.251   4.379  18.856  0.00  0.00    +0.000 C 
ATOM      2  O   UNL     1       5.491   3.896  17.750  0.00  0.00    +0.000 OA
ATOM      3  N   UNL     1       6.226   5.067  19.544  0.00  0.00    +0.000 N 
ATOM      4  H   UNL     1       6.026   5.501  20.440  0.00  0.00    +0.000 HD
ENDROOT
BRANCH   1   5
ATOM      5  C   UNL     1       3.844   4.306  19.506  0.00  0.00    +0.000 C 
BRANCH   5   6
ATOM      6  C   UNL     1       2.849   5.378  18.939  0.00  0.00    +0.000 C 
ATOM      7  C   UNL     1       1.889   4.707  17.919  0.00  0.00    +0.000 C 
BRANCH   6   8
ATOM      8  C   UNL     1       3.577   6.552  18.198  0.00  0.00    +0.000 C 
BRANCH   8  10
ATOM      9  C   UNL     1       2.092   8.710  17.731  0.00  0.00    +0.000 C 
ATOM     10  C   UNL     1       2.750   7.769  18.007  0.00  0.00    +0.000 C 
ENDBRANCH   8  10
ENDBRANCH   6   8
BRANCH   6  11
ATOM     11  C   UNL     1       1.944   5.912  20.093  0.00  0.00    +0.000 C 
BRANCH  11  12
ATOM     12  O   UNL     1       2.317   5.335  21.344  0.00  0.00    +0.000 OA
ATOM     13  H   UNL     1       2.390   4.374  21.207  0.00  0.00    +0.000 HD
ENDBRANCH  11  12
ENDBRANCH   6  11
ENDBRANCH   5   6
BRANCH   5  14
ATOM     14  O   UNL     1       3.288   2.988  19.418  0.00  0.00    +0.000 OA
ATOM     15  H   UNL     1       3.611   2.455  20.168  0.00  0.00    +0.000 HD
ENDBRANCH   5  14
ENDBRANCH   1   5
BRANCH   3  16
ATOM     16  C   UNL     1       7.537   5.175  18.923  0.00  0.00    +0.000 C 
BRANCH  16  17
ATOM     17  C   UNL     1       7.840   6.576  18.397  0.00  0.00    +0.000 C 
BRANCH  17  18
ATOM     18  C   UNL     1       7.212   6.751  17.030  0.00  0.00    +0.000 C 
ATOM     19  O   UNL     1       6.628   7.775  16.694  0.00  0.00    +0.000 OA
ATOM     20  N   UNL     1       7.310   5.650  16.207  0.00  0.00    +0.000 N 
ATOM     21  H   UNL     1       7.816   4.828  16.516  0.00  0.00    +0.000 HD
BRANCH  20  22
ATOM     22  C   UNL     1       6.749   5.679  14.869  0.00  0.00    +0.000 C 
BRANCH  22  23
ATOM     23  C   UNL     1       6.782   4.315  14.178  0.00  0.00    +0.000 C 
BRANCH  23  24
ATOM     24  C   UNL     1       5.397   3.910  13.666  0.00  0.00    +0.000 C 
BRANCH  24  25
ATOM     25  C   UNL     1       5.471   3.308  12.265  0.00  0.00    +0.000 C 
ATOM     26  C   UNL     1       6.901   3.272  11.750  0.00  0.00    +0.000 C 
ENDBRANCH  24  25
ENDBRANCH  23  24
ENDBRANCH  22  23
ENDBRANCH  20  22
ENDBRANCH  17  18
ENDBRANCH  16  17
ENDBRANCH   3  16
TORSDOF 14
ENDMDL
MODEL 7
REMARK VINA RESULT:      -6.0      1.794      2.902
REMARK  Name = 
REMARK  16 active torsions:
REMARK  status: ('A' for Active; 'I' for Inactive)
REMARK    1  A    between atoms: C_2  and  C_3
REMARK    2  A    between atoms: C_3  and  C_4
REMARK    3  A    between atoms: C_4  and  C_5
REMARK    4  A    between atoms: C_4  and  C_6
REMARK    5  A    between atoms: C_4  and  C_8
REMARK    6  A    between atoms: C_6  and  O_7
REMARK    7  A    between atoms: C_8  and  O_9
REMARK    8  A    between atoms: C_8  and  C_10
REMARK    9  A    between atoms: N_12  and  C_13
REMARK   10  A    between atoms: C_13  and  C_14
REMARK   11  A    between atoms: C_14  and  C_15
REMARK   12  A    between atoms: N_17  and  C_18
REMARK   13  A    between atoms: C_18  and  C_19
REMARK   14  A    between atoms: C_19  and  C_20
REMARK   15  A    between atoms: C_20  and  C_21
REMARK   16  A    between atoms: C_21  and  C_22
REMARK                            x       y       z     vdW  Elec       q    Type
REMARK                         _______ _______ _______ _____ _____    ______ ____
ROOT
ATOM      1  C   UNL     1       4.566   5.553  18.781  0.00  0.00    +0.000 C 
ATOM      2  O   UNL     1       5.398   5.355  19.665  0.00  0.00    +0.000 OA
ATOM      3  N   UNL     1       4.940   5.548  17.455  0.00  0.00    +0.000 N 
ATOM      4  H   UNL     1       4.252   5.674  16.718  0.00  0.00    +0.000 HD
ENDROOT
BRANCH   1   5
ATOM      5  C   UNL     1       3.059   5.752  19.091  0.00  0.00    +0.000 C 
BRANCH   5   6
ATOM      6  C   UNL     1       2.229   4.426  18.979  0.00  0.00    +0.000 C 
ATOM      7  C   UNL     1       1.536   4.362  17.590  0.00  0.00    +0.000 C 
BRANCH   6   8
ATOM      8  C   UNL     1       1.108   4.317  20.070  0.00  0.00    +0.000 C 
BRANCH   8  10
ATOM      9  C   UNL     1       1.585   2.474  21.930  0.00  0.00    +0.000 C 
ATOM     10  C   UNL     1       1.391   3.342  21.152  0.00  0.00    +0.000 C 
ENDBRANCH   8  10
ENDBRANCH   6   8
BRANCH   6  11
ATOM     11  C   UNL     1       3.193   3.201  19.035  0.00  0.00    +0.000 C 
BRANCH  11  12
ATOM     12  O   UNL     1       3.434   2.680  17.728  0.00  0.00    +0.000 OA
ATOM     13  H   UNL     1       2.566   2.516  17.319  0.00  0.00    +0.000 HD
ENDBRANCH  11  12
ENDBRANCH   6  11
ENDBRANCH   5   6
BRANCH   5  14
ATOM     14  O   UNL     1       2.858   6.382  20.363  0.00  0.00    +0.000 OA
ATOM     15  H   UNL     1       1.970   6.152  20.695  0.00  0.00    +0.000 HD
ENDBRANCH   5  14
ENDBRANCH   1   5
BRANCH   3  16
ATOM     16  C   UNL     1       6.345   5.322  17.155  0.00  0.00    +0.000 C 
BRANCH  16  17
ATOM     17  C   UNL     1       6.579   4.118  16.246  0.00  0.00    +0.000 C 
BRANCH  17  18
ATOM     18  C   UNL     1       6.178   4.467  14.828  0.00  0.00    +0.000 C 
ATOM     19  O   UNL     1       5.257   5.233  14.568  0.00  0.00    +0.000 OA
ATOM     20  N   UNL     1       6.902   3.821  13.850  0.00  0.00    +0.000 N 
ATOM     21  H   UNL     1       7.668   3.208  14.106  0.00  0.00    +0.000 HD
BRANCH  20  22
ATOM     22  C   UNL     1       6.621   4.060  12.446  0.00  0.00    +0.000 C 
BRANCH  22  23
ATOM     23  C   UNL     1       6.576   2.774  11.619  0.00  0.00    +0.000 C 
BRANCH  23  24
ATOM     24  C   UNL     1       5.140   2.274  11.435  0.00  0.00    +0.000 C 
BRANCH  24  25
ATOM     25  C   UNL     1       4.134   3.420  11.500  0.00  0.00    +0.000 C 
ATOM     26  C   UNL     1       3.417   3.606  10.172  0.00  0.00    +0.000 C 
ENDBRANCH  24  25
ENDBRANCH  23  24
ENDBRANCH  22  23
ENDBRANCH  20  22
ENDBRANCH  17  18
ENDBRANCH  16  17
ENDBRANCH   3  16
TORSDOF 14
ENDMDL
MODEL 8
REMARK VINA RESULT:      -6.0      1.616      2.422
REMARK  Name = 
REMARK  16 active torsions:
REMARK  status: ('A' for Active; 'I' for Inactive)
REMARK    1  A    between atoms: C_2  and  C_3
REMARK    2  A    between atoms: C_3  and  C_4
REMARK    3  A    between atoms: C_4  and  C_5
REMARK    4  A    between atoms: C_4  and  C_6
REMARK    5  A    between atoms: C_4  and  C_8
REMARK    6  A    between atoms: C_6  and  O_7
REMARK    7  A    between atoms: C_8  and  O_9
REMARK    8  A    between atoms: C_8  and  C_10
REMARK    9  A    between atoms: N_12  and  C_13
REMARK   10  A    between atoms: C_13  and  C_14
REMARK   11  A    between atoms: C_14  and  C_15
REMARK   12  A    between atoms: N_17  and  C_18
REMARK   13  A    between atoms: C_18  and  C_19
REMARK   14  A    between atoms: C_19  and  C_20
REMARK   15  A    between atoms: C_20  and  C_21
REMARK   16  A    between atoms: C_21  and  C_22
REMARK                            x       y       z     vdW  Elec       q    Type
REMARK                         _______ _______ _______ _____ _____    ______ ____
ROOT
ATOM      1  C   UNL     1       3.921   5.204  18.716  0.00  0.00    +0.000 C 
ATOM      2  O   UNL     1       3.826   6.082  19.572  0.00  0.00    +0.000 OA
ATOM      3  N   UNL     1       4.553   5.460  17.519  0.00  0.00    +0.000 N 
ATOM      4  H   UNL     1       4.668   4.730  16.823  0.00  0.00    +0.000 HD
ENDROOT
BRANCH   1   5
ATOM      5  C   UNL     1       3.406   3.759  18.950  0.00  0.00    +0.000 C 
BRANCH   5   6
ATOM      6  C   UNL     1       1.869   3.604  18.680  0.00  0.00    +0.000 C 
ATOM      7  C   UNL     1       1.432   4.608  17.578  0.00  0.00    +0.000 C 
BRANCH   6   8
ATOM      8  C   UNL     1       0.996   3.890  19.950  0.00  0.00    +0.000 C 
BRANCH   8  10
ATOM      9  C   UNL     1       2.035   2.784  22.137  0.00  0.00    +0.000 C 
ATOM     10  C   UNL     1       1.526   3.306  21.208  0.00  0.00    +0.000 C 
ENDBRANCH   8  10
ENDBRANCH   6   8
BRANCH   6  11
ATOM     11  C   UNL     1       1.581   2.183  18.103  0.00  0.00    +0.000 C 
BRANCH  11  12
ATOM     12  O   UNL     1       2.179   1.172  18.913  0.00  0.00    +0.000 OA
ATOM     13  H   UNL     1       2.919   1.586  19.390  0.00  0.00    +0.000 HD
ENDBRANCH  11  12
ENDBRANCH   6  11
ENDBRANCH   5   6
BRANCH   5  14
ATOM     14  O   UNL     1       4.162   2.800  18.198  0.00  0.00    +0.000 OA
ATOM     15  H   UNL     1       5.009   2.635  18.653  0.00  0.00    +0.000 HD
ENDBRANCH   5  14
ENDBRANCH   1   5
BRANCH   3  16
ATOM     16  C   UNL     1       5.074   6.802  17.308  0.00  0.00    +0.000 C 
BRANCH  16  17
ATOM     17  C   UNL     1       6.591   6.837  17.135  0.00  0.00    +0.000 C 
BRANCH  17  18
ATOM     18  C   UNL     1       7.045   5.595  16.397  0.00  0.00    +0.000 C 
ATOM     19  O   UNL     1       7.780   4.754  16.903  0.00  0.00    +0.000 OA
ATOM     20  N   UNL     1       6.604   5.505  15.095  0.00  0.00    +0.000 N 
ATOM     21  H   UNL     1       5.983   6.213  14.719  0.00  0.00    +0.000 HD
BRANCH  20  22
ATOM     22  C   UNL     1       6.967   4.367  14.271  0.00  0.00    +0.000 C 
BRANCH  22  23
ATOM     23  C   UNL     1       6.011   4.151  13.096  0.00  0.00    +0.000 C 
BRANCH  23  24
ATOM     24  C   UNL     1       6.425   2.943  12.250  0.00  0.00    +0.000 C 
BRANCH  24  25
ATOM     25  C   UNL     1       5.280   2.459  11.366  0.00  0.00    +0.000 C 
ATOM     26  C   UNL     1       4.061   3.362  11.490  0.00  0.00    +0.000 C 
ENDBRANCH  24  25
ENDBRANCH  23  24
ENDBRANCH  22  23
ENDBRANCH  20  22
ENDBRANCH  17  18
ENDBRANCH  16  17
ENDBRANCH   3  16
TORSDOF 14
ENDMDL
MODEL 9
REMARK VINA RESULT:      -6.0      1.038      1.351
REMARK  Name = 
REMARK  16 active torsions:
REMARK  status: ('A' for Active; 'I' for Inactive)
REMARK    1  A    between atoms: C_2  and  C_3
REMARK    2  A    between atoms: C_3  and  C_4
REMARK    3  A    between atoms: C_4  and  C_5
REMARK    4  A    between atoms: C_4  and  C_6
REMARK    5  A    between atoms: C_4  and  C_8
REMARK    6  A    between atoms: C_6  and  O_7
REMARK    7  A    between atoms: C_8  and  O_9
REMARK    8  A    between atoms: C_8  and  C_10
REMARK    9  A    between atoms: N_12  and  C_13
REMARK   10  A    between atoms: C_13  and  C_14
REMARK   11  A    between atoms: C_14  and  C_15
REMARK   12  A    between atoms: N_17  and  C_18
REMARK   13  A    between atoms: C_18  and  C_19
REMARK   14  A    between atoms: C_19  and  C_20
REMARK   15  A    between atoms: C_20  and  C_21
REMARK   16  A    between atoms: C_21  and  C_22
REMARK                            x       y       z     vdW  Elec       q    Type
REMARK                         _______ _______ _______ _____ _____    ______ ____
ROOT
ATOM      1  C   UNL     1       4.389   2.943  19.234  0.00  0.00    +0.000 C 
ATOM      2  O   UNL     1       4.950   2.778  20.316  0.00  0.00    +0.000 OA
ATOM      3  N   UNL     1       4.959   3.740  18.265  0.00  0.00    +0.000 N 
ATOM      4  H   UNL     1       4.520   3.850  17.356  0.00  0.00    +0.000 HD
ENDROOT
BRANCH   1   5
ATOM      5  C   UNL     1       3.062   2.227  18.871  0.00  0.00    +0.000 C 
BRANCH   5   6
ATOM      6  C   UNL     1       1.816   3.178  18.925  0.00  0.00    +0.000 C 
ATOM      7  C   UNL     1       0.514   2.332  18.866  0.00  0.00    +0.000 C 
BRANCH   6   8
ATOM      8  C   UNL     1       1.772   4.192  17.731  0.00  0.00    +0.000 C 
BRANCH   8  10
ATOM      9  C   UNL     1       2.570   6.624  18.462  0.00  0.00    +0.000 C 
ATOM     10  C   UNL     1       2.221   5.566  18.070  0.00  0.00    +0.000 C 
ENDBRANCH   8  10
ENDBRANCH   6   8
BRANCH   6  11
ATOM     11  C   UNL     1       1.784   3.918  20.299  0.00  0.00    +0.000 C 
BRANCH  11  12
ATOM     12  O   UNL     1       1.016   3.188  21.255  0.00  0.00    +0.000 OA
ATOM     13  H   UNL     1       1.237   3.544  22.133  0.00  0.00    +0.000 HD
ENDBRANCH  11  12
ENDBRANCH   6  11
ENDBRANCH   5   6
BRANCH   5  14
ATOM     14  O   UNL     1       3.148   1.562  17.603  0.00  0.00    +0.000 OA
ATOM     15  H   UNL     1       3.979   1.823  17.163  0.00  0.00    +0.000 HD
ENDBRANCH   5  14
ENDBRANCH   1   5
BRANCH   3  16
ATOM     16  C   UNL     1       6.224   4.383  18.583  0.00  0.00    +0.000 C 
BRANCH  16  17
ATOM     17  C   UNL     1       6.261   5.859  18.196  0.00  0.00    +0.000 C 
BRANCH  17  18
ATOM     18  C   UNL     1       6.376   5.986  16.691  0.00  0.00    +0.000 C 
ATOM     19  O   UNL     1       6.041   6.996  16.082  0.00  0.00    +0.000 OA
ATOM     20  N   UNL     1       6.845   4.858  16.053  0.00  0.00    +0.000 N 
ATOM     21  H   UNL     1       7.127   4.049  16.594  0.00  0.00    +0.000 HD
BRANCH  20  22
ATOM     22  C   UNL     1       7.001   4.839  14.610  0.00  0.00    +0.000 C 
BRANCH  22  23
ATOM     23  C   UNL     1       6.267   3.673  13.946  0.00  0.00    +0.000 C 
BRANCH  23  24
ATOM     24  C   UNL     1       6.361   3.748  12.419  0.00  0.00    +0.000 C 
BRANCH  24  25
ATOM     25  C   UNL     1       5.373   2.797  11.749  0.00  0.00    +0.000 C 
ATOM     26  C   UNL     1       6.042   1.492  11.345  0.00  0.00    +0.000 C 
ENDBRANCH  24  25
ENDBRANCH  23  24
ENDBRANCH  22  23
ENDBRANCH  20  22
ENDBRANCH  17  18
ENDBRANCH  16  17
ENDBRANCH   3  16
TORSDOF 14
ENDMDL
