MODEL 1
REMARK VINA RESULT:      -7.7      0.000      0.000
REMARK  Name = 
REMARK  13 active torsions:
REMARK  status: ('A' for Active; 'I' for Inactive)
REMARK    1  A    between atoms: C_1  and  C_2
REMARK    2  A    between atoms: C_2  and  C_3
REMARK    3  A    between atoms: C_3  and  C_4
REMARK    4  A    between atoms: C_4  and  C_5
REMARK    5  A    between atoms: C_5  and  C_6
REMARK    6  A    between atoms: C_6  and  C_7
REMARK    7  A    between atoms: C_7  and  C_8
REMARK    8  A    between atoms: C_11  and  C_12
REMARK    9  A    between atoms: N_14  and  C_15
REMARK   10  A    between atoms: C_15  and  C_16
REMARK   11  A    between atoms: C_16  and  N_17
REMARK   12  A    between atoms: C_19  and  C_20
REMARK   13  A    between atoms: C_20  and  C_21
REMARK                            x       y       z     vdW  Elec       q    Type
REMARK                         _______ _______ _______ _____ _____    ______ ____
ROOT
ATOM      1  C   UNL     1       8.127   7.835  18.043  0.00  0.00    +0.000 C 
ENDROOT
BRANCH   1   4
ATOM      2  C   UNL     1       6.939   5.711  18.436  0.00  0.00    +0.000 C 
ATOM      3  O   UNL     1       7.845   5.312  19.135  0.00  0.00    +0.000 OA
ATOM      4  N   UNL     1       6.992   6.940  17.817  0.00  0.00    +0.000 N 
ATOM      5  H   UNL     1       6.173   7.326  17.392  0.00  0.00    +0.000 HD
BRANCH   2   9
ATOM      6  C   UNL     1       3.521   3.068  18.053  0.00  0.00    +0.000 A 
ATOM      7  C   UNL     1       4.346   3.061  19.193  0.00  0.00    +0.000 A 
ATOM      8  C   UNL     1       5.423   3.938  19.277  0.00  0.00    +0.000 A 
ATOM      9  C   UNL     1       5.724   4.839  18.256  0.00  0.00    +0.000 A 
ATOM     10  C   UNL     1       4.897   4.869  17.121  0.00  0.00    +0.000 A 
ATOM     11  C   UNL     1       3.806   3.984  17.040  0.00  0.00    +0.000 A 
BRANCH   6  12
ATOM     12  C   UNL     1       2.361   2.093  17.935  0.00  0.00    +0.000 C 
BRANCH  12  13
ATOM     13  C   UNL     1       1.045   2.546  18.566  0.00  0.00    +0.000 C 
BRANCH  13  14
ATOM     14  C   UNL     1       1.167   2.845  20.062  0.00  0.00    +0.000 C 
BRANCH  14  15
ATOM     15  C   UNL     1       0.832   4.311  20.351  0.00  0.00    +0.000 C 
BRANCH  15  16
ATOM     16  C   UNL     1       2.084   5.106  20.724  0.00  0.00    +0.000 C 
BRANCH  16  18
ATOM     17  C   UNL     1       2.497   6.891  18.997  0.00  0.00    +0.000 C 
ATOM     18  C   UNL     1       1.922   6.584  20.370  0.00  0.00    +0.000 C 
ENDBRANCH  16  18
ENDBRANCH  15  16
ENDBRANCH  14  15
ENDBRANCH  13  14
ENDBRANCH  12  13
ENDBRANCH   6  12
ENDBRANCH   2   9
ENDBRANCH   1   4
BRANCH   1  19
ATOM     19  C   UNL     1       7.871   9.303  17.683  0.00  0.00    +0.000 C 
BRANCH  19  20
ATOM     20  N   UNL     1       8.835  10.193  18.305  0.00  0.00    +0.000 N 
ATOM     21  C   UNL     1       9.478  11.289  17.790  0.00  0.00    +0.000 A 
ATOM     22  C   UNL     1      10.298  11.721  18.818  0.00  0.00    +0.000 A 
ATOM     23  N   UNL     1      10.071  10.910  19.912  0.00  0.00    +0.000 NA
ATOM     24  N   UNL     1       9.168   9.997  19.592  0.00  0.00    +0.000 NA
BRANCH  22  25
ATOM     25  C   UNL     1      11.081  12.969  19.021  0.00  0.00    +0.000 C 
BRANCH  25  26
ATOM     26  C   UNL     1      10.543  14.350  18.754  0.00  0.00    +0.000 A 
ATOM     27  C   UNL     1       9.328  14.717  19.316  0.00  0.00    +0.000 A 
ATOM     28  N   UNL     1       8.815  15.650  18.447  0.00  0.00    +0.000 N 
ATOM     29  C   UNL     1       9.885  16.445  18.147  0.00  0.00    +0.000 A 
ATOM     30  C   UNL     1       9.900  17.790  17.732  0.00  0.00    +0.000 A 
ATOM     31  C   UNL     1      11.135  18.369  17.527  0.00  0.00    +0.000 A 
ATOM     32  C   UNL     1      12.308  17.623  17.648  0.00  0.00    +0.000 A 
ATOM     33  C   UNL     1      12.268  16.241  17.981  0.00  0.00    +0.000 A 
ATOM     34  C   UNL     1      11.030  15.635  18.274  0.00  0.00    +0.000 A 
ATOM     35  H   UNL     1       8.141  15.421  17.728  0.00  0.00    +0.000 HD
ENDBRANCH  25  26
ENDBRANCH  22  25
ENDBRANCH  19  20
ENDBRANCH   1  19
TORSDOF 12
ENDMDL
MODEL 2
REMARK VINA RESULT:      -7.4      3.958      5.601
REMARK  Name = 
REMARK  13 active torsions:
REMARK  status: ('A' for Active; 'I' for Inactive)
REMARK    1  A    between atoms: C_1  and  C_2
REMARK    2  A    between atoms: C_2  and  C_3
REMARK    3  A    between atoms: C_3  and  C_4
REMARK    4  A    between atoms: C_4  and  C_5
REMARK    5  A    between atoms: C_5  and  C_6
REMARK    6  A    between atoms: C_6  and  C_7
REMARK    7  A    between atoms: C_7  and  C_8
REMARK    8  A    between atoms: C_11  and  C_12
REMARK    9  A    between atoms: N_14  and  C_15
REMARK   10  A    between atoms: C_15  and  C_16
REMARK   11  A    between atoms: C_16  and  N_17
REMARK   12  A    between atoms: C_19  and  C_20
REMARK   13  A    between atoms: C_20  and  C_21
REMARK                            x       y       z     vdW  Elec       q    Type
REMARK                         _______ _______ _______ _____ _____    ______ ____
ROOT
ATOM      1  C   UNL     1       0.408  12.367  20.545  0.00  0.00    +0.000 C 
ENDROOT
BRANCH   1   4
ATOM      2  C   UNL     1       0.605  10.026  19.799  0.00  0.00    +0.000 C 
ATOM      3  O   UNL     1      -0.601   9.915  19.765  0.00  0.00    +0.000 OA
ATOM      4  N   UNL     1       1.212  11.194  20.204  0.00  0.00    +0.000 N 
ATOM      5  H   UNL     1       2.193  11.328  20.061  0.00  0.00    +0.000 HD
BRANCH   2   9
ATOM      6  C   UNL     1       3.075   6.611  18.772  0.00  0.00    +0.000 A 
ATOM      7  C   UNL     1       2.418   6.711  20.013  0.00  0.00    +0.000 A 
ATOM      8  C   UNL     1       1.624   7.820  20.291  0.00  0.00    +0.000 A 
ATOM      9  C   UNL     1       1.452   8.856  19.374  0.00  0.00    +0.000 A 
ATOM     10  C   UNL     1       2.087   8.758  18.124  0.00  0.00    +0.000 A 
ATOM     11  C   UNL     1       2.887   7.635  17.843  0.00  0.00    +0.000 A 
BRANCH   6  12
ATOM     12  C   UNL     1       3.971   5.422  18.468  0.00  0.00    +0.000 C 
BRANCH  12  13
ATOM     13  C   UNL     1       3.569   4.580  17.258  0.00  0.00    +0.000 C 
BRANCH  13  14
ATOM     14  C   UNL     1       2.825   3.298  17.638  0.00  0.00    +0.000 C 
BRANCH  14  15
ATOM     15  C   UNL     1       1.390   3.613  18.071  0.00  0.00    +0.000 C 
BRANCH  15  16
ATOM     16  C   UNL     1       0.955   2.732  19.243  0.00  0.00    +0.000 C 
BRANCH  16  18
ATOM     17  C   UNL     1       2.220   3.149  21.379  0.00  0.00    +0.000 C 
ATOM     18  C   UNL     1       0.993   3.508  20.558  0.00  0.00    +0.000 C 
ENDBRANCH  16  18
ENDBRANCH  15  16
ENDBRANCH  14  15
ENDBRANCH  13  14
ENDBRANCH  12  13
ENDBRANCH   6  12
ENDBRANCH   2   9
ENDBRANCH   1   4
BRANCH   1  19
ATOM     19  C   UNL     1       0.836  13.666  19.851  0.00  0.00    +0.000 C 
BRANCH  19  20
ATOM     20  N   UNL     1       2.214  14.015  20.151  0.00  0.00    +0.000 N 
ATOM     21  C   UNL     1       3.164  14.602  19.356  0.00  0.00    +0.000 A 
ATOM     22  C   UNL     1       4.292  14.661  20.155  0.00  0.00    +0.000 A 
ATOM     23  N   UNL     1       3.958  14.167  21.400  0.00  0.00    +0.000 NA
ATOM     24  N   UNL     1       2.688  13.794  21.388  0.00  0.00    +0.000 NA
BRANCH  22  25
ATOM     25  C   UNL     1       5.590  15.373  20.008  0.00  0.00    +0.000 C 
BRANCH  25  26
ATOM     26  C   UNL     1       6.761  14.833  19.231  0.00  0.00    +0.000 A 
ATOM     27  C   UNL     1       6.782  14.993  17.853  0.00  0.00    +0.000 A 
ATOM     28  N   UNL     1       7.521  13.929  17.395  0.00  0.00    +0.000 N 
ATOM     29  C   UNL     1       8.579  13.865  18.257  0.00  0.00    +0.000 A 
ATOM     30  C   UNL     1       9.868  13.343  18.040  0.00  0.00    +0.000 A 
ATOM     31  C   UNL     1      10.766  13.438  19.083  0.00  0.00    +0.000 A 
ATOM     32  C   UNL     1      10.379  13.955  20.321  0.00  0.00    +0.000 A 
ATOM     33  C   UNL     1       9.047  14.396  20.548  0.00  0.00    +0.000 A 
ATOM     34  C   UNL     1       8.123  14.387  19.484  0.00  0.00    +0.000 A 
ATOM     35  H   UNL     1       7.102  13.075  17.048  0.00  0.00    +0.000 HD
ENDBRANCH  25  26
ENDBRANCH  22  25
ENDBRANCH  19  20
ENDBRANCH   1  19
TORSDOF 12
ENDMDL
MODEL 3
REMARK VINA RESULT:      -7.2      3.866      5.998
REMARK  Name = 
REMARK  13 active torsions:
REMARK  status: ('A' for Active; 'I' for Inactive)
REMARK    1  A    between atoms: C_1  and  C_2
REMARK    2  A    between atoms: C_2  and  C_3
REMARK    3  A    between atoms: C_3  and  C_4
REMARK    4  A    between atoms: C_4  and  C_5
REMARK    5  A    between atoms: C_5  and  C_6
REMARK    6  A    between atoms: C_6  and  C_7
REMARK    7  A    between atoms: C_7  and  C_8
REMARK    8  A    between atoms: C_11  and  C_12
REMARK    9  A    between atoms: N_14  and  C_15
REMARK   10  A    between atoms: C_15  and  C_16
REMARK   11  A    between atoms: C_16  and  N_17
REMARK   12  A    between atoms: C_19  and  C_20
REMARK   13  A    between atoms: C_20  and  C_21
REMARK                            x       y       z     vdW  Elec       q    Type
REMARK                         _______ _______ _______ _____ _____    ______ ____
ROOT
ATOM      1  C   UNL     1       1.032  13.616  18.498  0.00  0.00    +0.000 C 
ENDROOT
BRANCH   1   4
ATOM      2  C   UNL     1       0.783  11.336  19.402  0.00  0.00    +0.000 C 
ATOM      3  O   UNL     1      -0.266  11.639  19.928  0.00  0.00    +0.000 OA
ATOM      4  N   UNL     1       1.526  12.253  18.693  0.00  0.00    +0.000 N 
ATOM      5  H   UNL     1       2.291  11.949  18.124  0.00  0.00    +0.000 HD
BRANCH   2   9
ATOM      6  C   UNL     1       2.173   7.229  19.543  0.00  0.00    +0.000 A 
ATOM      7  C   UNL     1       2.288   8.017  18.383  0.00  0.00    +0.000 A 
ATOM      8  C   UNL     1       1.841   9.335  18.390  0.00  0.00    +0.000 A 
ATOM      9  C   UNL     1       1.270   9.916  19.522  0.00  0.00    +0.000 A 
ATOM     10  C   UNL     1       1.167   9.146  20.692  0.00  0.00    +0.000 A 
ATOM     11  C   UNL     1       1.622   7.815  20.684  0.00  0.00    +0.000 A 
BRANCH   6  12
ATOM     12  C   UNL     1       2.626   5.779  19.538  0.00  0.00    +0.000 C 
BRANCH  12  13
ATOM     13  C   UNL     1       2.202   4.946  20.747  0.00  0.00    +0.000 C 
BRANCH  13  14
ATOM     14  C   UNL     1       0.918   4.149  20.506  0.00  0.00    +0.000 C 
BRANCH  14  15
ATOM     15  C   UNL     1       1.243   2.713  20.083  0.00  0.00    +0.000 C 
BRANCH  15  16
ATOM     16  C   UNL     1       1.066   2.523  18.576  0.00  0.00    +0.000 C 
BRANCH  16  18
ATOM     17  C   UNL     1       2.944   3.292  17.086  0.00  0.00    +0.000 C 
ATOM     18  C   UNL     1       2.389   2.143  17.911  0.00  0.00    +0.000 C 
ENDBRANCH  16  18
ENDBRANCH  15  16
ENDBRANCH  14  15
ENDBRANCH  13  14
ENDBRANCH  12  13
ENDBRANCH   6  12
ENDBRANCH   2   9
ENDBRANCH   1   4
BRANCH   1  19
ATOM     19  C   UNL     1       1.629  14.660  19.450  0.00  0.00    +0.000 C 
BRANCH  19  20
ATOM     20  N   UNL     1       3.028  14.923  19.163  0.00  0.00    +0.000 N 
ATOM     21  C   UNL     1       4.030  15.352  19.995  0.00  0.00    +0.000 A 
ATOM     22  C   UNL     1       5.138  15.456  19.173  0.00  0.00    +0.000 A 
ATOM     23  N   UNL     1       4.773  15.032  17.911  0.00  0.00    +0.000 NA
ATOM     24  N   UNL     1       3.493  14.696  17.924  0.00  0.00    +0.000 NA
BRANCH  22  25
ATOM     25  C   UNL     1       6.586  15.639  19.459  0.00  0.00    +0.000 C 
BRANCH  25  26
ATOM     26  C   UNL     1       7.647  14.633  19.101  0.00  0.00    +0.000 A 
ATOM     27  C   UNL     1       8.266  14.722  17.862  0.00  0.00    +0.000 A 
ATOM     28  N   UNL     1       8.635  13.431  17.568  0.00  0.00    +0.000 N 
ATOM     29  C   UNL     1       9.152  12.960  18.742  0.00  0.00    +0.000 A 
ATOM     30  C   UNL     1      10.099  11.939  18.945  0.00  0.00    +0.000 A 
ATOM     31  C   UNL     1      10.477  11.684  20.248  0.00  0.00    +0.000 A 
ATOM     32  C   UNL     1       9.878  12.358  21.314  0.00  0.00    +0.000 A 
ATOM     33  C   UNL     1       8.858  13.324  21.093  0.00  0.00    +0.000 A 
ATOM     34  C   UNL     1       8.503  13.666  19.774  0.00  0.00    +0.000 A 
ATOM     35  H   UNL     1       8.083  12.821  16.980  0.00  0.00    +0.000 HD
ENDBRANCH  25  26
ENDBRANCH  22  25
ENDBRANCH  19  20
ENDBRANCH   1  19
TORSDOF 12
ENDMDL
MODEL 4
REMARK VINA RESULT:      -7.1      6.020      9.514
REMARK  Name = 
REMARK  13 active torsions:
REMARK  status: ('A' for Active; 'I' for Inactive)
REMARK    1  A    between atoms: C_1  and  C_2
REMARK    2  A    between atoms: C_2  and  C_3
REMARK    3  A    between atoms: C_3  and  C_4
REMARK    4  A    between atoms: C_4  and  C_5
REMARK    5  A    between atoms: C_5  and  C_6
REMARK    6  A    between atoms: C_6  and  C_7
REMARK    7  A    between atoms: C_7  and  C_8
REMARK    8  A    between atoms: C_11  and  C_12
REMARK    9  A    between atoms: N_14  and  C_15
REMARK   10  A    between atoms: C_15  and  C_16
REMARK   11  A    between atoms: C_16  and  N_17
REMARK   12  A    between atoms: C_19  and  C_20
REMARK   13  A    between atoms: C_20  and  C_21
REMARK                            x       y       z     vdW  Elec       q    Type
REMARK                         _______ _______ _______ _____ _____    ______ ____
ROOT
ATOM      1  C   UNL     1       1.494   3.942  21.088  0.00  0.00    +0.000 C 
ENDROOT
BRANCH   1   4
ATOM      2  C   UNL     1       2.226   6.122  20.201  0.00  0.00    +0.000 C 
ATOM      3  O   UNL     1       3.361   5.715  20.083  0.00  0.00    +0.000 OA
ATOM      4  N   UNL     1       1.225   5.332  20.721  0.00  0.00    +0.000 N 
ATOM      5  H   UNL     1       0.269   5.618  20.649  0.00  0.00    +0.000 HD
BRANCH   2   9
ATOM      6  C   UNL     1       1.169  10.170  19.054  0.00  0.00    +0.000 A 
ATOM      7  C   UNL     1       0.877   9.656  20.331  0.00  0.00    +0.000 A 
ATOM      8  C   UNL     1       1.250   8.355  20.658  0.00  0.00    +0.000 A 
ATOM      9  C   UNL     1       1.910   7.525  19.753  0.00  0.00    +0.000 A 
ATOM     10  C   UNL     1       2.223   8.033  18.481  0.00  0.00    +0.000 A 
ATOM     11  C   UNL     1       1.849   9.349  18.153  0.00  0.00    +0.000 A 
BRANCH   6  12
ATOM     12  C   UNL     1       0.739  11.577  18.673  0.00  0.00    +0.000 C 
BRANCH  12  13
ATOM     13  C   UNL     1       0.150  12.421  19.803  0.00  0.00    +0.000 C 
BRANCH  13  14
ATOM     14  C   UNL     1      -1.269  12.912  19.509  0.00  0.00    +0.000 C 
BRANCH  14  15
ATOM     15  C   UNL     1      -2.211  12.572  20.667  0.00  0.00    +0.000 C 
BRANCH  15  16
ATOM     16  C   UNL     1      -1.457  11.921  21.827  0.00  0.00    +0.000 C 
BRANCH  16  18
ATOM     17  C   UNL     1      -3.456  12.491  23.247  0.00  0.00    +0.000 C 
ATOM     18  C   UNL     1      -1.938  12.465  23.171  0.00  0.00    +0.000 C 
ENDBRANCH  16  18
ENDBRANCH  15  16
ENDBRANCH  14  15
ENDBRANCH  13  14
ENDBRANCH  12  13
ENDBRANCH   6  12
ENDBRANCH   2   9
ENDBRANCH   1   4
BRANCH   1  19
ATOM     19  C   UNL     1       1.075   2.906  20.039  0.00  0.00    +0.000 C 
BRANCH  19  20
ATOM     20  N   UNL     1       2.083   2.735  19.008  0.00  0.00    +0.000 N 
ATOM     21  C   UNL     1       2.455   3.579  17.995  0.00  0.00    +0.000 A 
ATOM     22  C   UNL     1       3.435   2.883  17.309  0.00  0.00    +0.000 A 
ATOM     23  N   UNL     1       3.649   1.689  17.969  0.00  0.00    +0.000 NA
ATOM     24  N   UNL     1       2.833   1.620  19.008  0.00  0.00    +0.000 NA
BRANCH  22  25
ATOM     25  C   UNL     1       4.412   3.292  16.264  0.00  0.00    +0.000 C 
BRANCH  25  26
ATOM     26  C   UNL     1       5.330   4.479  16.392  0.00  0.00    +0.000 A 
ATOM     27  C   UNL     1       5.199   5.527  15.492  0.00  0.00    +0.000 A 
ATOM     28  N   UNL     1       6.457   6.076  15.418  0.00  0.00    +0.000 N 
ATOM     29  C   UNL     1       6.875   6.121  16.718  0.00  0.00    +0.000 A 
ATOM     30  C   UNL     1       7.812   6.983  17.317  0.00  0.00    +0.000 A 
ATOM     31  C   UNL     1       8.025   6.834  18.672  0.00  0.00    +0.000 A 
ATOM     32  C   UNL     1       7.395   5.816  19.391  0.00  0.00    +0.000 A 
ATOM     33  C   UNL     1       6.519   4.898  18.750  0.00  0.00    +0.000 A 
ATOM     34  C   UNL     1       6.218   5.068  17.384  0.00  0.00    +0.000 A 
ATOM     35  H   UNL     1       7.116   5.846  14.685  0.00  0.00    +0.000 HD
ENDBRANCH  25  26
ENDBRANCH  22  25
ENDBRANCH  19  20
ENDBRANCH   1  19
TORSDOF 12
ENDMDL
MODEL 5
REMARK VINA RESULT:      -7.0      2.070     11.884
REMARK  Name = 
REMARK  13 active torsions:
REMARK  status: ('A' for Active; 'I' for Inactive)
REMARK    1  A    between atoms: C_1  and  C_2
REMARK    2  A    between atoms: C_2  and  C_3
REMARK    3  A    between atoms: C_3  and  C_4
REMARK    4  A    between atoms: C_4  and  C_5
REMARK    5  A    between atoms: C_5  and  C_6
REMARK    6  A    between atoms: C_6  and  C_7
REMARK    7  A    between atoms: C_7  and  C_8
REMARK    8  A    between atoms: C_11  and  C_12
REMARK    9  A    between atoms: N_14  and  C_15
REMARK   10  A    between atoms: C_15  and  C_16
REMARK   11  A    between atoms: C_16  and  N_17
REMARK   12  A    between atoms: C_19  and  C_20
REMARK   13  A    between atoms: C_20  and  C_21
REMARK                            x       y       z     vdW  Elec       q    Type
REMARK                         _______ _______ _______ _____ _____    ______ ____
ROOT
ATOM      1  C   UNL     1       7.145   8.754  17.432  0.00  0.00    +0.000 C 
ENDROOT
BRANCH   1   4
ATOM      2  C   UNL     1       8.910  10.003  18.616  0.00  0.00    +0.000 C 
ATOM      3  O   UNL     1       9.093   9.069  19.367  0.00  0.00    +0.000 OA
ATOM      4  N   UNL     1       7.942   9.963  17.637  0.00  0.00    +0.000 N 
ATOM      5  H   UNL     1       7.921  10.662  16.921  0.00  0.00    +0.000 HD
BRANCH   2   9
ATOM      6  C   UNL     1      11.423  13.533  18.819  0.00  0.00    +0.000 A 
ATOM      7  C   UNL     1      10.711  13.189  17.655  0.00  0.00    +0.000 A 
ATOM      8  C   UNL     1       9.905  12.055  17.642  0.00  0.00    +0.000 A 
ATOM      9  C   UNL     1       9.775  11.227  18.757  0.00  0.00    +0.000 A 
ATOM     10  C   UNL     1      10.466  11.570  19.932  0.00  0.00    +0.000 A 
ATOM     11  C   UNL     1      11.278  12.719  19.944  0.00  0.00    +0.000 A 
BRANCH   6  12
ATOM     12  C   UNL     1      12.332  14.750  18.835  0.00  0.00    +0.000 C 
BRANCH  12  13
ATOM     13  C   UNL     1      11.826  15.946  19.642  0.00  0.00    +0.000 C 
BRANCH  13  14
ATOM     14  C   UNL     1      10.361  16.285  19.359  0.00  0.00    +0.000 C 
BRANCH  14  15
ATOM     15  C   UNL     1       9.454  15.731  20.462  0.00  0.00    +0.000 C 
BRANCH  15  16
ATOM     16  C   UNL     1       8.194  15.092  19.879  0.00  0.00    +0.000 C 
BRANCH  16  18
ATOM     17  C   UNL     1       6.780  14.835  17.812  0.00  0.00    +0.000 C 
ATOM     18  C   UNL     1       8.103  15.328  18.373  0.00  0.00    +0.000 C 
ENDBRANCH  16  18
ENDBRANCH  15  16
ENDBRANCH  14  15
ENDBRANCH  13  14
ENDBRANCH  12  13
ENDBRANCH   6  12
ENDBRANCH   2   9
ENDBRANCH   1   4
BRANCH   1  19
ATOM     19  C   UNL     1       7.875   7.441  17.738  0.00  0.00    +0.000 C 
BRANCH  19  20
ATOM     20  N   UNL     1       7.155   6.286  17.232  0.00  0.00    +0.000 N 
ATOM     21  C   UNL     1       6.118   5.584  17.790  0.00  0.00    +0.000 A 
ATOM     22  C   UNL     1       5.859   4.572  16.882  0.00  0.00    +0.000 A 
ATOM     23  N   UNL     1       6.702   4.745  15.802  0.00  0.00    +0.000 NA
ATOM     24  N   UNL     1       7.472   5.799  16.021  0.00  0.00    +0.000 NA
BRANCH  22  25
ATOM     25  C   UNL     1       4.735   3.609  16.746  0.00  0.00    +0.000 C 
BRANCH  25  26
ATOM     26  C   UNL     1       3.489   3.647  17.592  0.00  0.00    +0.000 A 
ATOM     27  C   UNL     1       2.253   3.687  16.964  0.00  0.00    +0.000 A 
ATOM     28  N   UNL     1       1.436   4.340  17.855  0.00  0.00    +0.000 N 
ATOM     29  C   UNL     1       1.755   3.788  19.063  0.00  0.00    +0.000 A 
ATOM     30  C   UNL     1       0.966   3.679  20.223  0.00  0.00    +0.000 A 
ATOM     31  C   UNL     1       1.529   3.037  21.307  0.00  0.00    +0.000 A 
ATOM     32  C   UNL     1       2.852   2.592  21.271  0.00  0.00    +0.000 A 
ATOM     33  C   UNL     1       3.662   2.791  20.120  0.00  0.00    +0.000 A 
ATOM     34  C   UNL     1       3.098   3.373  18.967  0.00  0.00    +0.000 A 
ATOM     35  H   UNL     1       1.231   5.329  17.792  0.00  0.00    +0.000 HD
ENDBRANCH  25  26
ENDBRANCH  22  25
ENDBRANCH  19  20
ENDBRANCH   1  19
TORSDOF 12
ENDMDL
MODEL 6
REMARK VINA RESULT:      -7.0      4.973      9.348
REMARK  Name = 
REMARK  13 active torsions:
REMARK  status: ('A' for Active; 'I' for Inactive)
REMARK    1  A    between atoms: C_1  and  C_2
REMARK    2  A    between atoms: C_2  and  C_3
REMARK    3  A    between atoms: C_3  and  C_4
REMARK    4  A    between atoms: C_4  and  C_5
REMARK    5  A    between atoms: C_5  and  C_6
REMARK    6  A    between atoms: C_6  and  C_7
REMARK    7  A    between atoms: C_7  and  C_8
REMARK    8  A    between atoms: C_11  and  C_12
REMARK    9  A    between atoms: N_14  and  C_15
REMARK   10  A    between atoms: C_15  and  C_16
REMARK   11  A    between atoms: C_16  and  N_17
REMARK   12  A    between atoms: C_19  and  C_20
REMARK   13  A    between atoms: C_20  and  C_21
REMARK                            x       y       z     vdW  Elec       q    Type
REMARK                         _______ _______ _______ _____ _____    ______ ____
ROOT
ATOM      1  C   UNL     1       0.920   2.892  20.705  0.00  0.00    +0.000 C 
ENDROOT
BRANCH   1   4
ATOM      2  C   UNL     1       1.803   5.189  20.562  0.00  0.00    +0.000 C 
ATOM      3  O   UNL     1       2.833   4.847  21.103  0.00  0.00    +0.000 OA
ATOM      4  N   UNL     1       0.773   4.303  20.344  0.00  0.00    +0.000 N 
ATOM      5  H   UNL     1       0.011   4.553  19.747  0.00  0.00    +0.000 HD
BRANCH   2   9
ATOM      6  C   UNL     1       1.548   9.272  19.121  0.00  0.00    +0.000 A 
ATOM      7  C   UNL     1       2.073   8.233  18.330  0.00  0.00    +0.000 A 
ATOM      8  C   UNL     1       2.120   6.935  18.831  0.00  0.00    +0.000 A 
ATOM      9  C   UNL     1       1.663   6.619  20.110  0.00  0.00    +0.000 A 
ATOM     10  C   UNL     1       1.120   7.644  20.901  0.00  0.00    +0.000 A 
ATOM     11  C   UNL     1       1.069   8.955  20.392  0.00  0.00    +0.000 A 
BRANCH   6  12
ATOM     12  C   UNL     1       1.520  10.699  18.598  0.00  0.00    +0.000 C 
BRANCH  12  13
ATOM     13  C   UNL     1       1.210  11.780  19.634  0.00  0.00    +0.000 C 
BRANCH  13  14
ATOM     14  C   UNL     1       1.424  13.199  19.103  0.00  0.00    +0.000 C 
BRANCH  14  15
ATOM     15  C   UNL     1       2.798  13.733  19.521  0.00  0.00    +0.000 C 
BRANCH  15  16
ATOM     16  C   UNL     1       2.835  15.261  19.493  0.00  0.00    +0.000 C 
BRANCH  16  18
ATOM     17  C   UNL     1       3.107  16.729  17.466  0.00  0.00    +0.000 C 
ATOM     18  C   UNL     1       2.172  15.804  18.228  0.00  0.00    +0.000 C 
ENDBRANCH  16  18
ENDBRANCH  15  16
ENDBRANCH  14  15
ENDBRANCH  13  14
ENDBRANCH  12  13
ENDBRANCH   6  12
ENDBRANCH   2   9
ENDBRANCH   1   4
BRANCH   1  19
ATOM     19  C   UNL     1       1.216   1.954  19.528  0.00  0.00    +0.000 C 
BRANCH  19  20
ATOM     20  N   UNL     1       2.427   2.331  18.821  0.00  0.00    +0.000 N 
ATOM     21  C   UNL     1       2.582   2.870  17.571  0.00  0.00    +0.000 A 
ATOM     22  C   UNL     1       3.953   2.989  17.415  0.00  0.00    +0.000 A 
ATOM     23  N   UNL     1       4.551   2.575  18.589  0.00  0.00    +0.000 NA
ATOM     24  N   UNL     1       3.612   2.195  19.440  0.00  0.00    +0.000 NA
BRANCH  22  25
ATOM     25  C   UNL     1       4.791   3.698  16.413  0.00  0.00    +0.000 C 
BRANCH  25  26
ATOM     26  C   UNL     1       5.439   5.036  16.655  0.00  0.00    +0.000 A 
ATOM     27  C   UNL     1       4.772   6.186  16.257  0.00  0.00    +0.000 A 
ATOM     28  N   UNL     1       5.773   7.091  15.998  0.00  0.00    +0.000 N 
ATOM     29  C   UNL     1       6.640   6.933  17.041  0.00  0.00    +0.000 A 
ATOM     30  C   UNL     1       7.550   7.859  17.585  0.00  0.00    +0.000 A 
ATOM     31  C   UNL     1       8.292   7.445  18.672  0.00  0.00    +0.000 A 
ATOM     32  C   UNL     1       8.196   6.137  19.152  0.00  0.00    +0.000 A 
ATOM     33  C   UNL     1       7.337   5.189  18.532  0.00  0.00    +0.000 A 
ATOM     34  C   UNL     1       6.507   5.597  17.469  0.00  0.00    +0.000 A 
ATOM     35  H   UNL     1       6.130   7.266  15.067  0.00  0.00    +0.000 HD
ENDBRANCH  25  26
ENDBRANCH  22  25
ENDBRANCH  19  20
ENDBRANCH   1  19
TORSDOF 12
ENDMDL
MODEL 7
REMARK VINA RESULT:      -6.9      4.212     11.934
REMARK  Name = 
REMARK  13 active torsions:
REMARK  status: ('A' for Active; 'I' for Inactive)
REMARK    1  A    between atoms: C_1  and  C_2
REMARK    2  A    between atoms: C_2  and  C_3
REMARK    3  A    between atoms: C_3  and  C_4
REMARK    4  A    between atoms: C_4  and  C_5
REMARK    5  A    between atoms: C_5  and  C_6
REMARK    6  A    between atoms: C_6  and  C_7
REMARK    7  A    between atoms: C_7  and  C_8
REMARK    8  A    between atoms: C_11  and  C_12
REMARK    9  A    between atoms: N_14  and  C_15
REMARK   10  A    between atoms: C_15  and  C_16
REMARK   11  A    between atoms: C_16  and  N_17
REMARK   12  A    between atoms: C_19  and  C_20
REMARK   13  A    between atoms: C_20  and  C_21
REMARK                            x       y       z     vdW  Elec       q    Type
REMARK                         _______ _______ _______ _____ _____    ______ ____
ROOT
ATOM      1  C   UNL     1       0.356  11.918  19.513  0.00  0.00    +0.000 C 
ENDROOT
BRANCH   1   4
ATOM      2  C   UNL     1       2.061  13.686  19.722  0.00  0.00    +0.000 C 
ATOM      3  O   UNL     1       1.275  14.402  20.303  0.00  0.00    +0.000 OA
ATOM      4  N   UNL     1       1.698  12.442  19.257  0.00  0.00    +0.000 N 
ATOM      5  H   UNL     1       2.395  11.799  18.940  0.00  0.00    +0.000 HD
BRANCH   2   9
ATOM      6  C   UNL     1       6.111  15.187  19.319  0.00  0.00    +0.000 A 
ATOM      7  C   UNL     1       5.476  15.078  20.570  0.00  0.00    +0.000 A 
ATOM      8  C   UNL     1       4.180  14.576  20.651  0.00  0.00    +0.000 A 
ATOM      9  C   UNL     1       3.472  14.173  19.520  0.00  0.00    +0.000 A 
ATOM     10  C   UNL     1       4.101  14.258  18.267  0.00  0.00    +0.000 A 
ATOM     11  C   UNL     1       5.412  14.763  18.188  0.00  0.00    +0.000 A 
BRANCH   6  12
ATOM     12  C   UNL     1       7.513  15.764  19.214  0.00  0.00    +0.000 C 
BRANCH  12  13
ATOM     13  C   UNL     1       8.592  15.038  20.016  0.00  0.00    +0.000 C 
BRANCH  13  14
ATOM     14  C   UNL     1       9.829  14.693  19.184  0.00  0.00    +0.000 C 
BRANCH  14  15
ATOM     15  C   UNL     1       9.424  14.070  17.844  0.00  0.00    +0.000 C 
BRANCH  15  16
ATOM     16  C   UNL     1      10.054  12.690  17.658  0.00  0.00    +0.000 C 
BRANCH  16  18
ATOM     17  C   UNL     1       9.706  10.763  19.241  0.00  0.00    +0.000 C 
ATOM     18  C   UNL     1       9.102  11.585  18.114  0.00  0.00    +0.000 C 
ENDBRANCH  16  18
ENDBRANCH  15  16
ENDBRANCH  14  15
ENDBRANCH  13  14
ENDBRANCH  12  13
ENDBRANCH   6  12
ENDBRANCH   2   9
ENDBRANCH   1   4
BRANCH   1  19
ATOM     19  C   UNL     1      -0.057  10.740  18.621  0.00  0.00    +0.000 C 
BRANCH  19  20
ATOM     20  N   UNL     1       0.899   9.648  18.684  0.00  0.00    +0.000 N 
ATOM     21  C   UNL     1       1.650   9.081  17.689  0.00  0.00    +0.000 A 
ATOM     22  C   UNL     1       2.351   8.068  18.321  0.00  0.00    +0.000 A 
ATOM     23  N   UNL     1       2.038   8.110  19.665  0.00  0.00    +0.000 NA
ATOM     24  N   UNL     1       1.168   9.085  19.874  0.00  0.00    +0.000 NA
BRANCH  22  25
ATOM     25  C   UNL     1       3.497   7.223  17.894  0.00  0.00    +0.000 C 
BRANCH  25  26
ATOM     26  C   UNL     1       3.662   5.776  18.277  0.00  0.00    +0.000 A 
ATOM     27  C   UNL     1       4.772   5.401  19.021  0.00  0.00    +0.000 A 
ATOM     28  N   UNL     1       4.997   4.092  18.669  0.00  0.00    +0.000 N 
ATOM     29  C   UNL     1       3.751   3.532  18.665  0.00  0.00    +0.000 A 
ATOM     30  C   UNL     1       3.383   2.188  18.863  0.00  0.00    +0.000 A 
ATOM     31  C   UNL     1       2.035   1.897  18.842  0.00  0.00    +0.000 A 
ATOM     32  C   UNL     1       1.091   2.885  18.555  0.00  0.00    +0.000 A 
ATOM     33  C   UNL     1       1.488   4.220  18.270  0.00  0.00    +0.000 A 
ATOM     34  C   UNL     1       2.850   4.571  18.358  0.00  0.00    +0.000 A 
ATOM     35  H   UNL     1       5.674   3.819  17.968  0.00  0.00    +0.000 HD
ENDBRANCH  25  26
ENDBRANCH  22  25
ENDBRANCH  19  20
ENDBRANCH   1  19
TORSDOF 12
ENDMDL
MODEL 8
REMARK VINA RESULT:      -6.9      7.324     10.136
REMARK  Name = 
REMARK  13 active torsions:
REMARK  status: ('A' for Active; 'I' for Inactive)
REMARK    1  A    between atoms: C_1  and  C_2
REMARK    2  A    between atoms: C_2  and  C_3
REMARK    3  A    between atoms: C_3  and  C_4
REMARK    4  A    between atoms: C_4  and  C_5
REMARK    5  A    between atoms: C_5  and  C_6
REMARK    6  A    between atoms: C_6  and  C_7
REMARK    7  A    between atoms: C_7  and  C_8
REMARK    8  A    between atoms: C_11  and  C_12
REMARK    9  A    between atoms: N_14  and  C_15
REMARK   10  A    between atoms: C_15  and  C_16
REMARK   11  A    between atoms: C_16  and  N_17
REMARK   12  A    between atoms: C_19  and  C_20
REMARK   13  A    between atoms: C_20  and  C_21
REMARK                            x       y       z     vdW  Elec       q    Type
REMARK                         _______ _______ _______ _____ _____    ______ ____
ROOT
ATOM      1  C   UNL     1       1.229   8.218  20.229  0.00  0.00    +0.000 C 
ENDROOT
BRANCH   1   4
ATOM      2  C   UNL     1       2.568   6.264  19.548  0.00  0.00    +0.000 C 
ATOM      3  O   UNL     1       2.301   5.696  20.586  0.00  0.00    +0.000 OA
ATOM      4  N   UNL     1       2.111   7.535  19.283  0.00  0.00    +0.000 N 
ATOM      5  H   UNL     1       2.191   7.917  18.361  0.00  0.00    +0.000 HD
BRANCH   2   9
ATOM      6  C   UNL     1       5.087   4.373  16.566  0.00  0.00    +0.000 A 
ATOM      7  C   UNL     1       5.474   5.551  17.232  0.00  0.00    +0.000 A 
ATOM      8  C   UNL     1       4.638   6.113  18.193  0.00  0.00    +0.000 A 
ATOM      9  C   UNL     1       3.408   5.546  18.525  0.00  0.00    +0.000 A 
ATOM     10  C   UNL     1       3.019   4.359  17.881  0.00  0.00    +0.000 A 
ATOM     11  C   UNL     1       3.867   3.791  16.913  0.00  0.00    +0.000 A 
BRANCH   6  12
ATOM     12  C   UNL     1       5.976   3.768  15.492  0.00  0.00    +0.000 C 
BRANCH  12  13
ATOM     13  C   UNL     1       6.418   4.720  14.381  0.00  0.00    +0.000 C 
BRANCH  13  14
ATOM     14  C   UNL     1       6.359   4.087  12.989  0.00  0.00    +0.000 C 
BRANCH  14  15
ATOM     15  C   UNL     1       4.976   3.483  12.727  0.00  0.00    +0.000 C 
BRANCH  15  16
ATOM     16  C   UNL     1       4.791   3.133  11.250  0.00  0.00    +0.000 C 
BRANCH  16  18
ATOM     17  C   UNL     1       3.080   4.135   9.699  0.00  0.00    +0.000 C 
ATOM     18  C   UNL     1       3.316   3.177  10.855  0.00  0.00    +0.000 C 
ENDBRANCH  16  18
ENDBRANCH  15  16
ENDBRANCH  14  15
ENDBRANCH  13  14
ENDBRANCH  12  13
ENDBRANCH   6  12
ENDBRANCH   2   9
ENDBRANCH   1   4
BRANCH   1  19
ATOM     19  C   UNL     1       1.163   9.742  20.064  0.00  0.00    +0.000 C 
BRANCH  19  20
ATOM     20  N   UNL     1       0.461  10.379  21.163  0.00  0.00    +0.000 N 
ATOM     21  C   UNL     1      -0.361  11.476  21.161  0.00  0.00    +0.000 A 
ATOM     22  C   UNL     1      -0.717  11.642  22.489  0.00  0.00    +0.000 A 
ATOM     23  N   UNL     1      -0.146  10.613  23.213  0.00  0.00    +0.000 NA
ATOM     24  N   UNL     1       0.551   9.845  22.392  0.00  0.00    +0.000 NA
BRANCH  22  25
ATOM     25  C   UNL     1      -1.750  12.479  23.154  0.00  0.00    +0.000 C 
BRANCH  25  26
ATOM     26  C   UNL     1      -2.814  13.246  22.414  0.00  0.00    +0.000 A 
ATOM     27  C   UNL     1      -4.137  12.846  22.536  0.00  0.00    +0.000 A 
ATOM     28  N   UNL     1      -4.724  13.235  21.356  0.00  0.00    +0.000 N 
ATOM     29  C   UNL     1      -4.235  14.492  21.142  0.00  0.00    +0.000 A 
ATOM     30  C   UNL     1      -4.806  15.552  20.414  0.00  0.00    +0.000 A 
ATOM     31  C   UNL     1      -4.108  16.742  20.386  0.00  0.00    +0.000 A 
ATOM     32  C   UNL     1      -2.854  16.854  20.988  0.00  0.00    +0.000 A 
ATOM     33  C   UNL     1      -2.253  15.745  21.644  0.00  0.00    +0.000 A 
ATOM     34  C   UNL     1      -2.969  14.537  21.759  0.00  0.00    +0.000 A 
ATOM     35  H   UNL     1      -4.857  12.607  20.574  0.00  0.00    +0.000 HD
ENDBRANCH  25  26
ENDBRANCH  22  25
ENDBRANCH  19  20
ENDBRANCH   1  19
TORSDOF 12
ENDMDL
MODEL 9
REMARK VINA RESULT:      -6.8      7.628     12.289
REMARK  Name = 
REMARK  13 active torsions:
REMARK  status: ('A' for Active; 'I' for Inactive)
REMARK    1  A    between atoms: C_1  and  C_2
REMARK    2  A    between atoms: C_2  and  C_3
REMARK    3  A    between atoms: C_3  and  C_4
REMARK    4  A    between atoms: C_4  and  C_5
REMARK    5  A    between atoms: C_5  and  C_6
REMARK    6  A    between atoms: C_6  and  C_7
REMARK    7  A    between atoms: C_7  and  C_8
REMARK    8  A    between atoms: C_11  and  C_12
REMARK    9  A    between atoms: N_14  and  C_15
REMARK   10  A    between atoms: C_15  and  C_16
REMARK   11  A    between atoms: C_16  and  N_17
REMARK   12  A    between atoms: C_19  and  C_20
REMARK   13  A    between atoms: C_20  and  C_21
REMARK                            x       y       z     vdW  Elec       q    Type
REMARK                         _______ _______ _______ _____ _____    ______ ____
ROOT
ATOM      1  C   UNL     1       0.428  10.374  22.187  0.00  0.00    +0.000 C 
ENDROOT
BRANCH   1   4
ATOM      2  C   UNL     1      -1.415  11.996  22.405  0.00  0.00    +0.000 C 
ATOM      3  O   UNL     1      -0.836  12.561  23.308  0.00  0.00    +0.000 OA
ATOM      4  N   UNL     1      -0.889  10.878  21.798  0.00  0.00    +0.000 N 
ATOM      5  H   UNL     1      -1.288  10.531  20.948  0.00  0.00    +0.000 HD
BRANCH   2   9
ATOM      6  C   UNL     1      -5.310  13.471  21.193  0.00  0.00    +0.000 A 
ATOM      7  C   UNL     1      -5.075  12.953  22.481  0.00  0.00    +0.000 A 
ATOM      8  C   UNL     1      -3.804  12.505  22.828  0.00  0.00    +0.000 A 
ATOM      9  C   UNL     1      -2.735  12.547  21.934  0.00  0.00    +0.000 A 
ATOM     10  C   UNL     1      -2.952  13.079  20.652  0.00  0.00    +0.000 A 
ATOM     11  C   UNL     1      -4.237  13.535  20.304  0.00  0.00    +0.000 A 
BRANCH   6  12
ATOM     12  C   UNL     1      -6.701  13.933  20.790  0.00  0.00    +0.000 C 
BRANCH  12  13
ATOM     13  C   UNL     1      -7.566  12.893  20.078  0.00  0.00    +0.000 C 
BRANCH  13  14
ATOM     14  C   UNL     1      -7.262  12.783  18.582  0.00  0.00    +0.000 C 
BRANCH  14  15
ATOM     15  C   UNL     1      -6.534  11.471  18.272  0.00  0.00    +0.000 C 
BRANCH  15  16
ATOM     16  C   UNL     1      -5.569  11.633  17.097  0.00  0.00    +0.000 C 
BRANCH  16  18
ATOM     17  C   UNL     1      -3.677  10.078  17.679  0.00  0.00    +0.000 C 
ATOM     18  C   UNL     1      -4.117  11.528  17.560  0.00  0.00    +0.000 C 
ENDBRANCH  16  18
ENDBRANCH  15  16
ENDBRANCH  14  15
ENDBRANCH  13  14
ENDBRANCH  12  13
ENDBRANCH   6  12
ENDBRANCH   2   9
ENDBRANCH   1   4
BRANCH   1  19
ATOM     19  C   UNL     1       0.662   8.887  21.889  0.00  0.00    +0.000 C 
BRANCH  19  20
ATOM     20  N   UNL     1       1.250   8.680  20.578  0.00  0.00    +0.000 N 
ATOM     21  C   UNL     1       2.036   7.654  20.120  0.00  0.00    +0.000 A 
ATOM     22  C   UNL     1       2.325   8.001  18.811  0.00  0.00    +0.000 A 
ATOM     23  N   UNL     1       1.659   9.176  18.526  0.00  0.00    +0.000 NA
ATOM     24  N   UNL     1       0.997   9.568  19.602  0.00  0.00    +0.000 NA
BRANCH  22  25
ATOM     25  C   UNL     1       2.925   7.242  17.682  0.00  0.00    +0.000 C 
BRANCH  25  26
ATOM     26  C   UNL     1       3.225   5.767  17.726  0.00  0.00    +0.000 A 
ATOM     27  C   UNL     1       4.545   5.349  17.643  0.00  0.00    +0.000 A 
ATOM     28  N   UNL     1       4.475   4.099  17.075  0.00  0.00    +0.000 N 
ATOM     29  C   UNL     1       3.436   3.498  17.726  0.00  0.00    +0.000 A 
ATOM     30  C   UNL     1       3.199   2.128  17.940  0.00  0.00    +0.000 A 
ATOM     31  C   UNL     1       2.075   1.792  18.668  0.00  0.00    +0.000 A 
ATOM     32  C   UNL     1       1.177   2.771  19.097  0.00  0.00    +0.000 A 
ATOM     33  C   UNL     1       1.388   4.144  18.794  0.00  0.00    +0.000 A 
ATOM     34  C   UNL     1       2.563   4.532  18.120  0.00  0.00    +0.000 A 
ATOM     35  H   UNL     1       4.612   3.935  16.086  0.00  0.00    +0.000 HD
ENDBRANCH  25  26
ENDBRANCH  22  25
ENDBRANCH  19  20
ENDBRANCH   1  19
TORSDOF 12
ENDMDL
