MODEL 1
REMARK VINA RESULT:      -7.1      0.000      0.000
REMARK  Name = 
REMARK  7 active torsions:
REMARK  status: ('A' for Active; 'I' for Inactive)
REMARK    1  A    between atoms: C_1  and  C_2
REMARK    2  A    between atoms: C_2  and  O_3
REMARK    3  A    between atoms: O_3  and  C_4
REMARK    4  A    between atoms: C_4  and  C_5
REMARK    5  A    between atoms: C_5  and  C_6
REMARK    6  A    between atoms: C_6  and  N_7
REMARK    7  A    between atoms: C_8  and  C_10
REMARK                            x       y       z     vdW  Elec       q    Type
REMARK                         _______ _______ _______ _____ _____    ______ ____
ROOT
ATOM      1  C   UNL     1       6.356   4.673  15.728  0.00  0.00    +0.000 A 
ATOM      2  C   UNL     1       7.117   5.081  16.833  0.00  0.00    +0.000 A 
ATOM      3  C   UNL     1       6.572   5.039  18.120  0.00  0.00    +0.000 A 
ATOM      4 BR   UNL     1       7.648   5.617  19.574  0.00  0.00    +0.000 Br
ATOM      5  C   UNL     1       5.265   4.579  18.322  0.00  0.00    +0.000 A 
ATOM      6  C   UNL     1       4.524   4.133  17.220  0.00  0.00    +0.000 A 
ATOM      7  C   UNL     1       5.054   4.198  15.927  0.00  0.00    +0.000 A 
ATOM      8  O   UNL     1       3.259   3.609  17.327  0.00  0.00    +0.000 OA
ATOM      9  C   UNL     1       2.948   3.254  18.681  0.00  0.00    +0.000 C 
ATOM     10  C   UNL     1       3.343   4.378  19.620  0.00  0.00    +0.000 C 
ATOM     11  O   UNL     1       4.761   4.563  19.600  0.00  0.00    +0.000 OA
ENDROOT
BRANCH   1  13
ATOM     12  N   UNL     1       6.510   3.815  13.440  0.00  0.00    +0.000 N 
ATOM     13  C   UNL     1       6.986   4.710  14.375  0.00  0.00    +0.000 C 
ATOM     14  O   UNL     1       7.865   5.534  14.145  0.00  0.00    +0.000 OA
ATOM     15  H   UNL     1       5.697   3.255  13.651  0.00  0.00    +0.000 HD
BRANCH  12  16
ATOM     16  C   UNL     1       7.002   3.792  12.068  0.00  0.00    +0.000 C 
BRANCH  16  17
ATOM     17  C   UNL     1       6.728   2.456  11.379  0.00  0.00    +0.000 C 
BRANCH  17  18
ATOM     18  C   UNL     1       5.254   2.062  11.460  0.00  0.00    +0.000 C 
BRANCH  18  19
ATOM     19  O   UNL     1       4.434   3.226  11.375  0.00  0.00    +0.000 OA
BRANCH  19  21
ATOM     20  C   UNL     1       2.983   4.300   9.801  0.00  0.00    +0.000 C 
ATOM     21  C   UNL     1       3.298   3.014  10.539  0.00  0.00    +0.000 C 
ENDBRANCH  19  21
ENDBRANCH  18  19
ENDBRANCH  17  18
ENDBRANCH  16  17
ENDBRANCH  12  16
ENDBRANCH   1  13
TORSDOF 6
ENDMDL
MODEL 2
REMARK VINA RESULT:      -6.5      1.932      2.196
REMARK  Name = 
REMARK  7 active torsions:
REMARK  status: ('A' for Active; 'I' for Inactive)
REMARK    1  A    between atoms: C_1  and  C_2
REMARK    2  A    between atoms: C_2  and  O_3
REMARK    3  A    between atoms: O_3  and  C_4
REMARK    4  A    between atoms: C_4  and  C_5
REMARK    5  A    between atoms: C_5  and  C_6
REMARK    6  A    between atoms: C_6  and  N_7
REMARK    7  A    between atoms: C_8  and  C_10
REMARK                            x       y       z     vdW  Elec       q    Type
REMARK                         _______ _______ _______ _____ _____    ______ ____
ROOT
ATOM      1  C   UNL     1       5.126   5.095  16.615  0.00  0.00    +0.000 A 
ATOM      2  C   UNL     1       4.425   6.268  16.929  0.00  0.00    +0.000 A 
ATOM      3  C   UNL     1       3.384   6.241  17.862  0.00  0.00    +0.000 A 
ATOM      4 BR   UNL     1       2.465   7.861  18.234  0.00  0.00    +0.000 Br
ATOM      5  C   UNL     1       3.037   5.046  18.502  0.00  0.00    +0.000 A 
ATOM      6  C   UNL     1       3.768   3.886  18.217  0.00  0.00    +0.000 A 
ATOM      7  C   UNL     1       4.792   3.900  17.265  0.00  0.00    +0.000 A 
ATOM      8  O   UNL     1       3.541   2.682  18.838  0.00  0.00    +0.000 OA
ATOM      9  C   UNL     1       2.747   2.841  20.021  0.00  0.00    +0.000 C 
ATOM     10  C   UNL     1       1.557   3.738  19.736  0.00  0.00    +0.000 C 
ATOM     11  O   UNL     1       2.002   5.057  19.406  0.00  0.00    +0.000 OA
ENDROOT
BRANCH   1  13
ATOM     12  N   UNL     1       6.107   4.447  14.467  0.00  0.00    +0.000 N 
ATOM     13  C   UNL     1       6.246   5.174  15.631  0.00  0.00    +0.000 C 
ATOM     14  O   UNL     1       7.214   5.886  15.879  0.00  0.00    +0.000 OA
ATOM     15  H   UNL     1       5.231   3.988  14.265  0.00  0.00    +0.000 HD
BRANCH  12  16
ATOM     16  C   UNL     1       7.104   4.488  13.405  0.00  0.00    +0.000 C 
BRANCH  16  17
ATOM     17  C   UNL     1       6.716   3.610  12.215  0.00  0.00    +0.000 C 
BRANCH  17  18
ATOM     18  C   UNL     1       5.230   3.256  12.227  0.00  0.00    +0.000 C 
BRANCH  18  19
ATOM     19  O   UNL     1       4.735   3.187  10.891  0.00  0.00    +0.000 OA
BRANCH  19  21
ATOM     20  C   UNL     1       2.941   4.089   9.586  0.00  0.00    +0.000 C 
ATOM     21  C   UNL     1       3.317   3.329  10.843  0.00  0.00    +0.000 C 
ENDBRANCH  19  21
ENDBRANCH  18  19
ENDBRANCH  17  18
ENDBRANCH  16  17
ENDBRANCH  12  16
ENDBRANCH   1  13
TORSDOF 6
ENDMDL
MODEL 3
REMARK VINA RESULT:      -6.5      2.256      2.869
REMARK  Name = 
REMARK  7 active torsions:
REMARK  status: ('A' for Active; 'I' for Inactive)
REMARK    1  A    between atoms: C_1  and  C_2
REMARK    2  A    between atoms: C_2  and  O_3
REMARK    3  A    between atoms: O_3  and  C_4
REMARK    4  A    between atoms: C_4  and  C_5
REMARK    5  A    between atoms: C_5  and  C_6
REMARK    6  A    between atoms: C_6  and  N_7
REMARK    7  A    between atoms: C_8  and  C_10
REMARK                            x       y       z     vdW  Elec       q    Type
REMARK                         _______ _______ _______ _____ _____    ______ ____
ROOT
ATOM      1  C   UNL     1       4.251   5.146  17.360  0.00  0.00    +0.000 A 
ATOM      2  C   UNL     1       3.604   6.275  17.883  0.00  0.00    +0.000 A 
ATOM      3  C   UNL     1       2.815   6.169  19.033  0.00  0.00    +0.000 A 
ATOM      4 BR   UNL     1       1.955   7.732  19.683  0.00  0.00    +0.000 Br
ATOM      5  C   UNL     1       2.672   4.938  19.682  0.00  0.00    +0.000 A 
ATOM      6  C   UNL     1       3.355   3.822  19.181  0.00  0.00    +0.000 A 
ATOM      7  C   UNL     1       4.123   3.916  18.016  0.00  0.00    +0.000 A 
ATOM      8  O   UNL     1       3.324   2.588  19.784  0.00  0.00    +0.000 OA
ATOM      9  C   UNL     1       2.827   2.670  21.126  0.00  0.00    +0.000 C 
ATOM     10  C   UNL     1       1.573   3.523  21.170  0.00  0.00    +0.000 C 
ATOM     11  O   UNL     1       1.881   4.871  20.804  0.00  0.00    +0.000 OA
ENDROOT
BRANCH   1  13
ATOM     12  N   UNL     1       5.671   4.167  15.623  0.00  0.00    +0.000 N 
ATOM     13  C   UNL     1       5.103   5.310  16.145  0.00  0.00    +0.000 C 
ATOM     14  O   UNL     1       5.241   6.426  15.655  0.00  0.00    +0.000 OA
ATOM     15  H   UNL     1       5.412   3.264  15.994  0.00  0.00    +0.000 HD
BRANCH  12  16
ATOM     16  C   UNL     1       6.475   4.187  14.407  0.00  0.00    +0.000 C 
BRANCH  16  17
ATOM     17  C   UNL     1       5.624   4.027  13.149  0.00  0.00    +0.000 C 
BRANCH  17  18
ATOM     18  C   UNL     1       6.107   2.872  12.274  0.00  0.00    +0.000 C 
BRANCH  18  19
ATOM     19  O   UNL     1       5.178   2.638  11.218  0.00  0.00    +0.000 OA
BRANCH  19  21
ATOM     20  C   UNL     1       3.219   3.428  10.089  0.00  0.00    +0.000 C 
ATOM     21  C   UNL     1       3.966   3.365  11.407  0.00  0.00    +0.000 C 
ENDBRANCH  19  21
ENDBRANCH  18  19
ENDBRANCH  17  18
ENDBRANCH  16  17
ENDBRANCH  12  16
ENDBRANCH   1  13
TORSDOF 6
ENDMDL
MODEL 4
REMARK VINA RESULT:      -6.5      3.092      6.414
REMARK  Name = 
REMARK  7 active torsions:
REMARK  status: ('A' for Active; 'I' for Inactive)
REMARK    1  A    between atoms: C_1  and  C_2
REMARK    2  A    between atoms: C_2  and  O_3
REMARK    3  A    between atoms: O_3  and  C_4
REMARK    4  A    between atoms: C_4  and  C_5
REMARK    5  A    between atoms: C_5  and  C_6
REMARK    6  A    between atoms: C_6  and  N_7
REMARK    7  A    between atoms: C_8  and  C_10
REMARK                            x       y       z     vdW  Elec       q    Type
REMARK                         _______ _______ _______ _____ _____    ______ ____
ROOT
ATOM      1  C   UNL     1       4.168   5.822  17.976  0.00  0.00    +0.000 A 
ATOM      2  C   UNL     1       5.231   6.720  18.154  0.00  0.00    +0.000 A 
ATOM      3  C   UNL     1       6.314   6.719  17.269  0.00  0.00    +0.000 A 
ATOM      4 BR   UNL     1       7.727   7.950  17.572  0.00  0.00    +0.000 Br
ATOM      5  C   UNL     1       6.345   5.829  16.189  0.00  0.00    +0.000 A 
ATOM      6  C   UNL     1       5.262   4.963  15.991  0.00  0.00    +0.000 A 
ATOM      7  C   UNL     1       4.189   4.941  16.887  0.00  0.00    +0.000 A 
ATOM      8  O   UNL     1       5.175   4.099  14.927  0.00  0.00    +0.000 OA
ATOM      9  C   UNL     1       6.112   4.436  13.896  0.00  0.00    +0.000 C 
ATOM     10  C   UNL     1       7.479   4.701  14.498  0.00  0.00    +0.000 C 
ATOM     11  O   UNL     1       7.431   5.850  15.347  0.00  0.00    +0.000 OA
ENDROOT
BRANCH   1  13
ATOM     12  N   UNL     1       2.909   4.836  19.829  0.00  0.00    +0.000 N 
ATOM     13  C   UNL     1       3.021   5.875  18.929  0.00  0.00    +0.000 C 
ATOM     14  O   UNL     1       2.254   6.832  18.893  0.00  0.00    +0.000 OA
ATOM     15  H   UNL     1       3.645   4.148  19.894  0.00  0.00    +0.000 HD
BRANCH  12  16
ATOM     16  C   UNL     1       1.867   4.802  20.848  0.00  0.00    +0.000 C 
BRANCH  16  17
ATOM     17  C   UNL     1       1.231   3.418  20.977  0.00  0.00    +0.000 C 
BRANCH  17  18
ATOM     18  C   UNL     1       1.939   2.380  20.109  0.00  0.00    +0.000 C 
BRANCH  18  19
ATOM     19  O   UNL     1       1.341   2.338  18.814  0.00  0.00    +0.000 OA
BRANCH  19  21
ATOM     20  C   UNL     1       3.560   1.532  18.410  0.00  0.00    +0.000 C 
ATOM     21  C   UNL     1       2.309   2.124  17.789  0.00  0.00    +0.000 C 
ENDBRANCH  19  21
ENDBRANCH  18  19
ENDBRANCH  17  18
ENDBRANCH  16  17
ENDBRANCH  12  16
ENDBRANCH   1  13
TORSDOF 6
ENDMDL
MODEL 5
REMARK VINA RESULT:      -6.4      2.792      6.639
REMARK  Name = 
REMARK  7 active torsions:
REMARK  status: ('A' for Active; 'I' for Inactive)
REMARK    1  A    between atoms: C_1  and  C_2
REMARK    2  A    between atoms: C_2  and  O_3
REMARK    3  A    between atoms: O_3  and  C_4
REMARK    4  A    between atoms: C_4  and  C_5
REMARK    5  A    between atoms: C_5  and  C_6
REMARK    6  A    between atoms: C_6  and  N_7
REMARK    7  A    between atoms: C_8  and  C_10
REMARK                            x       y       z     vdW  Elec       q    Type
REMARK                         _______ _______ _______ _____ _____    ______ ____
ROOT
ATOM      1  C   UNL     1       5.119   3.782  18.143  0.00  0.00    +0.000 A 
ATOM      2  C   UNL     1       5.854   4.938  18.445  0.00  0.00    +0.000 A 
ATOM      3  C   UNL     1       6.590   5.587  17.449  0.00  0.00    +0.000 A 
ATOM      4 BR   UNL     1       7.576   7.139  17.924  0.00  0.00    +0.000 Br
ATOM      5  C   UNL     1       6.593   5.099  16.137  0.00  0.00    +0.000 A 
ATOM      6  C   UNL     1       5.822   3.970  15.832  0.00  0.00    +0.000 A 
ATOM      7  C   UNL     1       5.105   3.300  16.829  0.00  0.00    +0.000 A 
ATOM      8  O   UNL     1       5.713   3.454  14.563  0.00  0.00    +0.000 OA
ATOM      9  C   UNL     1       6.171   4.386  13.575  0.00  0.00    +0.000 C 
ATOM     10  C   UNL     1       7.499   4.986  13.996  0.00  0.00    +0.000 C 
ATOM     11  O   UNL     1       7.336   5.758  15.188  0.00  0.00    +0.000 OA
ENDROOT
BRANCH   1  13
ATOM     12  N   UNL     1       2.953   3.203  19.128  0.00  0.00    +0.000 N 
ATOM     13  C   UNL     1       4.327   3.136  19.231  0.00  0.00    +0.000 C 
ATOM     14  O   UNL     1       4.916   2.561  20.141  0.00  0.00    +0.000 OA
ATOM     15  H   UNL     1       2.532   3.574  18.289  0.00  0.00    +0.000 HD
BRANCH  12  16
ATOM     16  C   UNL     1       2.071   2.562  20.095  0.00  0.00    +0.000 C 
BRANCH  16  17
ATOM     17  C   UNL     1       1.479   3.560  21.088  0.00  0.00    +0.000 C 
BRANCH  17  18
ATOM     18  C   UNL     1       1.227   4.924  20.446  0.00  0.00    +0.000 C 
BRANCH  18  19
ATOM     19  O   UNL     1       2.441   5.670  20.397  0.00  0.00    +0.000 OA
BRANCH  19  21
ATOM     20  C   UNL     1       2.724   6.856  18.336  0.00  0.00    +0.000 C 
ATOM     21  C   UNL     1       2.258   6.941  19.776  0.00  0.00    +0.000 C 
ENDBRANCH  19  21
ENDBRANCH  18  19
ENDBRANCH  17  18
ENDBRANCH  16  17
ENDBRANCH  12  16
ENDBRANCH   1  13
TORSDOF 6
ENDMDL
MODEL 6
REMARK VINA RESULT:      -6.4      2.236      2.504
REMARK  Name = 
REMARK  7 active torsions:
REMARK  status: ('A' for Active; 'I' for Inactive)
REMARK    1  A    between atoms: C_1  and  C_2
REMARK    2  A    between atoms: C_2  and  O_3
REMARK    3  A    between atoms: O_3  and  C_4
REMARK    4  A    between atoms: C_4  and  C_5
REMARK    5  A    between atoms: C_5  and  C_6
REMARK    6  A    between atoms: C_6  and  N_7
REMARK    7  A    between atoms: C_8  and  C_10
REMARK                            x       y       z     vdW  Elec       q    Type
REMARK                         _______ _______ _______ _____ _____    ______ ____
ROOT
ATOM      1  C   UNL     1       5.347   5.231  16.338  0.00  0.00    +0.000 A 
ATOM      2  C   UNL     1       4.860   4.110  17.026  0.00  0.00    +0.000 A 
ATOM      3  C   UNL     1       3.896   4.261  18.029  0.00  0.00    +0.000 A 
ATOM      4 BR   UNL     1       3.286   2.707  18.933  0.00  0.00    +0.000 Br
ATOM      5  C   UNL     1       3.399   5.529  18.349  0.00  0.00    +0.000 A 
ATOM      6  C   UNL     1       3.857   6.640  17.629  0.00  0.00    +0.000 A 
ATOM      7  C   UNL     1       4.841   6.499  16.645  0.00  0.00    +0.000 A 
ATOM      8  O   UNL     1       3.385   7.914  17.830  0.00  0.00    +0.000 OA
ATOM      9  C   UNL     1       2.160   7.910  18.576  0.00  0.00    +0.000 C 
ATOM     10  C   UNL     1       2.281   6.991  19.776  0.00  0.00    +0.000 C 
ATOM     11  O   UNL     1       2.460   5.638  19.346  0.00  0.00    +0.000 OA
ENDROOT
BRANCH   1  13
ATOM     12  N   UNL     1       5.985   4.214  14.204  0.00  0.00    +0.000 N 
ATOM     13  C   UNL     1       6.357   5.021  15.259  0.00  0.00    +0.000 C 
ATOM     14  O   UNL     1       7.445   5.583  15.337  0.00  0.00    +0.000 OA
ATOM     15  H   UNL     1       5.032   3.889  14.134  0.00  0.00    +0.000 HD
BRANCH  12  16
ATOM     16  C   UNL     1       6.860   3.979  13.062  0.00  0.00    +0.000 C 
BRANCH  16  17
ATOM     17  C   UNL     1       6.216   3.065  12.021  0.00  0.00    +0.000 C 
BRANCH  17  18
ATOM     18  C   UNL     1       4.713   3.308  11.898  0.00  0.00    +0.000 C 
BRANCH  18  19
ATOM     19  O   UNL     1       4.263   2.934  10.597  0.00  0.00    +0.000 OA
BRANCH  19  21
ATOM     20  C   UNL     1       2.847   4.434   9.381  0.00  0.00    +0.000 C 
ATOM     21  C   UNL     1       2.901   3.296  10.381  0.00  0.00    +0.000 C 
ENDBRANCH  19  21
ENDBRANCH  18  19
ENDBRANCH  17  18
ENDBRANCH  16  17
ENDBRANCH  12  16
ENDBRANCH   1  13
TORSDOF 6
ENDMDL
MODEL 7
REMARK VINA RESULT:      -6.4      5.239      8.912
REMARK  Name = 
REMARK  7 active torsions:
REMARK  status: ('A' for Active; 'I' for Inactive)
REMARK    1  A    between atoms: C_1  and  C_2
REMARK    2  A    between atoms: C_2  and  O_3
REMARK    3  A    between atoms: O_3  and  C_4
REMARK    4  A    between atoms: C_4  and  C_5
REMARK    5  A    between atoms: C_5  and  C_6
REMARK    6  A    between atoms: C_6  and  N_7
REMARK    7  A    between atoms: C_8  and  C_10
REMARK                            x       y       z     vdW  Elec       q    Type
REMARK                         _______ _______ _______ _____ _____    ______ ____
ROOT
ATOM      1  C   UNL     1       2.942   6.941  17.917  0.00  0.00    +0.000 A 
ATOM      2  C   UNL     1       2.460   5.635  18.089  0.00  0.00    +0.000 A 
ATOM      3  C   UNL     1       3.189   4.544  17.604  0.00  0.00    +0.000 A 
ATOM      4 BR   UNL     1       2.477   2.802  17.856  0.00  0.00    +0.000 Br
ATOM      5  C   UNL     1       4.411   4.742  16.952  0.00  0.00    +0.000 A 
ATOM      6  C   UNL     1       4.908   6.045  16.821  0.00  0.00    +0.000 A 
ATOM      7  C   UNL     1       4.172   7.142  17.280  0.00  0.00    +0.000 A 
ATOM      8  O   UNL     1       6.125   6.333  16.251  0.00  0.00    +0.000 OA
ATOM      9  C   UNL     1       6.946   5.162  16.144  0.00  0.00    +0.000 C 
ATOM     10  C   UNL     1       6.141   4.008  15.577  0.00  0.00    +0.000 C 
ATOM     11  O   UNL     1       5.093   3.646  16.480  0.00  0.00    +0.000 OA
ENDROOT
BRANCH   1  13
ATOM     12  N   UNL     1       1.844   8.026  19.818  0.00  0.00    +0.000 N 
ATOM     13  C   UNL     1       2.144   8.074  18.472  0.00  0.00    +0.000 C 
ATOM     14  O   UNL     1       1.815   8.996  17.733  0.00  0.00    +0.000 OA
ATOM     15  H   UNL     1       2.256   7.309  20.397  0.00  0.00    +0.000 HD
BRANCH  12  16
ATOM     16  C   UNL     1       1.122   9.099  20.490  0.00  0.00    +0.000 C 
BRANCH  16  17
ATOM     17  C   UNL     1       1.111   8.925  22.008  0.00  0.00    +0.000 C 
BRANCH  17  18
ATOM     18  C   UNL     1      -0.259   9.236  22.609  0.00  0.00    +0.000 C 
BRANCH  18  19
ATOM     19  O   UNL     1      -0.207  10.466  23.329  0.00  0.00    +0.000 OA
BRANCH  19  21
ATOM     20  C   UNL     1      -1.224  11.842  21.654  0.00  0.00    +0.000 C 
ATOM     21  C   UNL     1      -1.341  11.287  23.060  0.00  0.00    +0.000 C 
ENDBRANCH  19  21
ENDBRANCH  18  19
ENDBRANCH  17  18
ENDBRANCH  16  17
ENDBRANCH  12  16
ENDBRANCH   1  13
TORSDOF 6
ENDMDL
MODEL 8
REMARK VINA RESULT:      -6.3      2.932      6.546
REMARK  Name = 
REMARK  7 active torsions:
REMARK  status: ('A' for Active; 'I' for Inactive)
REMARK    1  A    between atoms: C_1  and  C_2
REMARK    2  A    between atoms: C_2  and  O_3
REMARK    3  A    between atoms: O_3  and  C_4
REMARK    4  A    between atoms: C_4  and  C_5
REMARK    5  A    between atoms: C_5  and  C_6
REMARK    6  A    between atoms: C_6  and  N_7
REMARK    7  A    between atoms: C_8  and  C_10
REMARK                            x       y       z     vdW  Elec       q    Type
REMARK                         _______ _______ _______ _____ _____    ______ ____
ROOT
ATOM      1  C   UNL     1       5.259   4.616  18.367  0.00  0.00    +0.000 A 
ATOM      2  C   UNL     1       6.001   5.805  18.415  0.00  0.00    +0.000 A 
ATOM      3  C   UNL     1       6.752   6.215  17.309  0.00  0.00    +0.000 A 
ATOM      4 BR   UNL     1       7.745   7.828  17.443  0.00  0.00    +0.000 Br
ATOM      5  C   UNL     1       6.764   5.450  16.138  0.00  0.00    +0.000 A 
ATOM      6  C   UNL     1       5.988   4.285  16.079  0.00  0.00    +0.000 A 
ATOM      7  C   UNL     1       5.256   3.856  17.191  0.00  0.00    +0.000 A 
ATOM      8  O   UNL     1       5.888   3.503  14.954  0.00  0.00    +0.000 OA
ATOM      9  C   UNL     1       6.363   4.192  13.790  0.00  0.00    +0.000 C 
ATOM     10  C   UNL     1       7.692   4.863  14.084  0.00  0.00    +0.000 C 
ATOM     11  O   UNL     1       7.523   5.880  15.076  0.00  0.00    +0.000 OA
ENDROOT
BRANCH   1  13
ATOM     12  N   UNL     1       3.495   5.127  19.985  0.00  0.00    +0.000 N 
ATOM     13  C   UNL     1       4.452   4.229  19.561  0.00  0.00    +0.000 C 
ATOM     14  O   UNL     1       4.649   3.141  20.092  0.00  0.00    +0.000 OA
ATOM     15  H   UNL     1       3.293   5.944  19.427  0.00  0.00    +0.000 HD
BRANCH  12  16
ATOM     16  C   UNL     1       2.604   4.841  21.103  0.00  0.00    +0.000 C 
BRANCH  16  17
ATOM     17  C   UNL     1       1.246   4.317  20.639  0.00  0.00    +0.000 C 
BRANCH  17  18
ATOM     18  C   UNL     1       1.052   2.843  20.988  0.00  0.00    +0.000 C 
BRANCH  18  19
ATOM     19  O   UNL     1       1.663   2.022  19.995  0.00  0.00    +0.000 OA
BRANCH  19  21
ATOM     20  C   UNL     1       2.227   2.166  17.672  0.00  0.00    +0.000 C 
ATOM     21  C   UNL     1       1.117   2.260  18.700  0.00  0.00    +0.000 C 
ENDBRANCH  19  21
ENDBRANCH  18  19
ENDBRANCH  17  18
ENDBRANCH  16  17
ENDBRANCH  12  16
ENDBRANCH   1  13
TORSDOF 6
ENDMDL
MODEL 9
REMARK VINA RESULT:      -6.3      3.794      6.991
REMARK  Name = 
REMARK  7 active torsions:
REMARK  status: ('A' for Active; 'I' for Inactive)
REMARK    1  A    between atoms: C_1  and  C_2
REMARK    2  A    between atoms: C_2  and  O_3
REMARK    3  A    between atoms: O_3  and  C_4
REMARK    4  A    between atoms: C_4  and  C_5
REMARK    5  A    between atoms: C_5  and  C_6
REMARK    6  A    between atoms: C_6  and  N_7
REMARK    7  A    between atoms: C_8  and  C_10
REMARK                            x       y       z     vdW  Elec       q    Type
REMARK                         _______ _______ _______ _____ _____    ______ ____
ROOT
ATOM      1  C   UNL     1       4.280   3.942  17.519  0.00  0.00    +0.000 A 
ATOM      2  C   UNL     1       4.748   3.887  16.198  0.00  0.00    +0.000 A 
ATOM      3  C   UNL     1       5.843   4.662  15.804  0.00  0.00    +0.000 A 
ATOM      4 BR   UNL     1       6.421   4.553  13.998  0.00  0.00    +0.000 Br
ATOM      5  C   UNL     1       6.491   5.494  16.724  0.00  0.00    +0.000 A 
ATOM      6  C   UNL     1       6.046   5.513  18.052  0.00  0.00    +0.000 A 
ATOM      7  C   UNL     1       4.935   4.760  18.447  0.00  0.00    +0.000 A 
ATOM      8  O   UNL     1       6.655   6.250  19.039  0.00  0.00    +0.000 OA
ATOM      9  C   UNL     1       7.960   6.688  18.639  0.00  0.00    +0.000 C 
ATOM     10  C   UNL     1       7.912   7.266  17.237  0.00  0.00    +0.000 C 
ATOM     11  O   UNL     1       7.557   6.248  16.297  0.00  0.00    +0.000 OA
ENDROOT
BRANCH   1  13
ATOM     12  N   UNL     1       2.935   2.852  19.250  0.00  0.00    +0.000 N 
ATOM     13  C   UNL     1       3.124   3.078  17.903  0.00  0.00    +0.000 C 
ATOM     14  O   UNL     1       2.389   2.634  17.026  0.00  0.00    +0.000 OA
ATOM     15  H   UNL     1       3.494   3.353  19.925  0.00  0.00    +0.000 HD
BRANCH  12  16
ATOM     16  C   UNL     1       1.810   2.075  19.755  0.00  0.00    +0.000 C 
BRANCH  16  17
ATOM     17  C   UNL     1       1.252   2.646  21.058  0.00  0.00    +0.000 C 
BRANCH  17  18
ATOM     18  C   UNL     1       1.882   3.993  21.408  0.00  0.00    +0.000 C 
BRANCH  18  19
ATOM     19  O   UNL     1       1.209   5.040  20.712  0.00  0.00    +0.000 OA
BRANCH  19  21
ATOM     20  C   UNL     1       1.475   7.420  20.749  0.00  0.00    +0.000 C 
ATOM     21  C   UNL     1       2.099   6.096  20.354  0.00  0.00    +0.000 C 
ENDBRANCH  19  21
ENDBRANCH  18  19
ENDBRANCH  17  18
ENDBRANCH  16  17
ENDBRANCH  12  16
ENDBRANCH   1  13
TORSDOF 6
ENDMDL
