MODEL 1
REMARK VINA RESULT:      -7.4      0.000      0.000
REMARK  Name = 
REMARK  6 active torsions:
REMARK  status: ('A' for Active; 'I' for Inactive)
REMARK    1  A    between atoms: C_1  and  C_2
REMARK    2  A    between atoms: N_5  and  C_6
REMARK    3  A    between atoms: C_6  and  C_7
REMARK    4  A    between atoms: C_7  and  C_8
REMARK    5  A    between atoms: C_7  and  C_9
REMARK    6  A    between atoms: C_7  and  C_10
REMARK                            x       y       z     vdW  Elec       q    Type
REMARK                         _______ _______ _______ _____ _____    ______ ____
ROOT
ATOM      1  C   UNL     1       7.825   5.661  19.681  0.00  0.00    +0.000 C 
ATOM      2  C   UNL     1       7.117   5.188  18.447  0.00  0.00    +0.000 A 
ATOM      3  N   UNL     1       5.927   4.567  18.626  0.00  0.00    +0.000 NA
ATOM      4  C   UNL     1       5.225   4.147  17.547  0.00  0.00    +0.000 A 
ATOM      5  N   UNL     1       4.022   3.479  17.680  0.00  0.00    +0.000 N 
ATOM      6  C   UNL     1       5.780   4.374  16.276  0.00  0.00    +0.000 A 
ATOM      7  C   UNL     1       5.411   4.093  14.927  0.00  0.00    +0.000 A 
ATOM      8  C   UNL     1       6.430   4.546  14.114  0.00  0.00    +0.000 A 
ATOM      9  N   UNL     1       7.399   5.083  14.924  0.00  0.00    +0.000 N 
ATOM     10  C   UNL     1       7.015   4.994  16.233  0.00  0.00    +0.000 A 
ATOM     11  N   UNL     1       7.734   5.429  17.273  0.00  0.00    +0.000 NA
ATOM     12  H   UNL     1       3.390   3.647  16.908  0.00  0.00    +0.000 HD
ATOM     13  H   UNL     1       8.279   5.480  14.624  0.00  0.00    +0.000 HD
ENDROOT
BRANCH   5  14
ATOM     14  C   UNL     1       3.423   3.273  18.985  0.00  0.00    +0.000 C 
BRANCH  14  15
ATOM     15  C   UNL     1       2.123   4.117  19.111  0.00  0.00    +0.000 C 
ATOM     16  C   UNL     1       2.447   5.509  19.687  0.00  0.00    +0.000 C 
ATOM     17  C   UNL     1       1.505   4.297  17.714  0.00  0.00    +0.000 C 
ATOM     18  C   UNL     1       1.089   3.419  20.013  0.00  0.00    +0.000 C 
ENDBRANCH  14  15
ENDBRANCH   5  14
TORSDOF 2
ENDMDL
MODEL 2
REMARK VINA RESULT:      -7.4      0.518      1.284
REMARK  Name = 
REMARK  6 active torsions:
REMARK  status: ('A' for Active; 'I' for Inactive)
REMARK    1  A    between atoms: C_1  and  C_2
REMARK    2  A    between atoms: N_5  and  C_6
REMARK    3  A    between atoms: C_6  and  C_7
REMARK    4  A    between atoms: C_7  and  C_8
REMARK    5  A    between atoms: C_7  and  C_9
REMARK    6  A    between atoms: C_7  and  C_10
REMARK                            x       y       z     vdW  Elec       q    Type
REMARK                         _______ _______ _______ _____ _____    ______ ____
ROOT
ATOM      1  C   UNL     1       7.921   5.600  19.632  0.00  0.00    +0.000 C 
ATOM      2  C   UNL     1       7.187   5.150  18.405  0.00  0.00    +0.000 A 
ATOM      3  N   UNL     1       5.986   4.555  18.595  0.00  0.00    +0.000 NA
ATOM      4  C   UNL     1       5.263   4.156  17.523  0.00  0.00    +0.000 A 
ATOM      5  N   UNL     1       4.047   3.514  17.667  0.00  0.00    +0.000 N 
ATOM      6  C   UNL     1       5.806   4.379  16.246  0.00  0.00    +0.000 A 
ATOM      7  C   UNL     1       5.415   4.114  14.901  0.00  0.00    +0.000 A 
ATOM      8  C   UNL     1       6.433   4.549  14.078  0.00  0.00    +0.000 A 
ATOM      9  N   UNL     1       7.423   5.060  14.878  0.00  0.00    +0.000 N 
ATOM     10  C   UNL     1       7.054   4.972  16.191  0.00  0.00    +0.000 A 
ATOM     11  N   UNL     1       7.796   5.385  17.225  0.00  0.00    +0.000 NA
ATOM     12  H   UNL     1       3.409   3.700  16.904  0.00  0.00    +0.000 HD
ATOM     13  H   UNL     1       8.308   5.440  14.569  0.00  0.00    +0.000 HD
ENDROOT
BRANCH   5  14
ATOM     14  C   UNL     1       3.460   3.313  18.978  0.00  0.00    +0.000 C 
BRANCH  14  15
ATOM     15  C   UNL     1       1.930   3.586  18.921  0.00  0.00    +0.000 C 
ATOM     16  C   UNL     1       1.159   2.262  18.759  0.00  0.00    +0.000 C 
ATOM     17  C   UNL     1       1.491   4.251  20.238  0.00  0.00    +0.000 C 
ATOM     18  C   UNL     1       1.573   4.530  17.759  0.00  0.00    +0.000 C 
ENDBRANCH  14  15
ENDBRANCH   5  14
TORSDOF 2
ENDMDL
MODEL 3
REMARK VINA RESULT:      -7.0      1.090      1.305
REMARK  Name = 
REMARK  6 active torsions:
REMARK  status: ('A' for Active; 'I' for Inactive)
REMARK    1  A    between atoms: C_1  and  C_2
REMARK    2  A    between atoms: N_5  and  C_6
REMARK    3  A    between atoms: C_6  and  C_7
REMARK    4  A    between atoms: C_7  and  C_8
REMARK    5  A    between atoms: C_7  and  C_9
REMARK    6  A    between atoms: C_7  and  C_10
REMARK                            x       y       z     vdW  Elec       q    Type
REMARK                         _______ _______ _______ _____ _____    ______ ____
ROOT
ATOM      1  C   UNL     1       7.827   7.039  18.311  0.00  0.00    +0.000 C 
ATOM      2  C   UNL     1       7.175   6.070  17.372  0.00  0.00    +0.000 A 
ATOM      3  N   UNL     1       6.227   5.257  17.894  0.00  0.00    +0.000 NA
ATOM      4  C   UNL     1       5.580   4.383  17.087  0.00  0.00    +0.000 A 
ATOM      5  N   UNL     1       4.628   3.510  17.580  0.00  0.00    +0.000 N 
ATOM      6  C   UNL     1       5.938   4.358  15.728  0.00  0.00    +0.000 A 
ATOM      7  C   UNL     1       5.547   3.616  14.575  0.00  0.00    +0.000 A 
ATOM      8  C   UNL     1       6.324   4.046  13.520  0.00  0.00    +0.000 A 
ATOM      9  N   UNL     1       7.171   5.015  13.997  0.00  0.00    +0.000 N 
ATOM     10  C   UNL     1       6.941   5.220  15.329  0.00  0.00    +0.000 A 
ATOM     11  N   UNL     1       7.597   6.102  16.091  0.00  0.00    +0.000 NA
ATOM     12  H   UNL     1       3.910   3.285  16.903  0.00  0.00    +0.000 HD
ATOM     13  H   UNL     1       7.875   5.510  13.466  0.00  0.00    +0.000 HD
ENDROOT
BRANCH   5  14
ATOM     14  C   UNL     1       4.226   3.553  18.972  0.00  0.00    +0.000 C 
BRANCH  14  15
ATOM     15  C   UNL     1       2.675   3.527  19.077  0.00  0.00    +0.000 C 
ATOM     16  C   UNL     1       2.050   4.359  17.940  0.00  0.00    +0.000 C 
ATOM     17  C   UNL     1       2.188   2.074  18.945  0.00  0.00    +0.000 C 
ATOM     18  C   UNL     1       2.197   4.078  20.433  0.00  0.00    +0.000 C 
ENDBRANCH  14  15
ENDBRANCH   5  14
TORSDOF 2
ENDMDL
MODEL 4
REMARK VINA RESULT:      -7.0      0.787      1.304
REMARK  Name = 
REMARK  6 active torsions:
REMARK  status: ('A' for Active; 'I' for Inactive)
REMARK    1  A    between atoms: C_1  and  C_2
REMARK    2  A    between atoms: N_5  and  C_6
REMARK    3  A    between atoms: C_6  and  C_7
REMARK    4  A    between atoms: C_7  and  C_8
REMARK    5  A    between atoms: C_7  and  C_9
REMARK    6  A    between atoms: C_7  and  C_10
REMARK                            x       y       z     vdW  Elec       q    Type
REMARK                         _______ _______ _______ _____ _____    ______ ____
ROOT
ATOM      1  C   UNL     1       7.663   5.704  19.632  0.00  0.00    +0.000 C 
ATOM      2  C   UNL     1       6.943   5.318  18.375  0.00  0.00    +0.000 A 
ATOM      3  N   UNL     1       5.609   5.110  18.475  0.00  0.00    +0.000 NA
ATOM      4  C   UNL     1       4.900   4.791  17.368  0.00  0.00    +0.000 A 
ATOM      5  N   UNL     1       3.542   4.537  17.424  0.00  0.00    +0.000 N 
ATOM      6  C   UNL     1       5.596   4.683  16.152  0.00  0.00    +0.000 A 
ATOM      7  C   UNL     1       5.266   4.363  14.802  0.00  0.00    +0.000 A 
ATOM      8  C   UNL     1       6.436   4.385  14.071  0.00  0.00    +0.000 A 
ATOM      9  N   UNL     1       7.457   4.702  14.932  0.00  0.00    +0.000 N 
ATOM     10  C   UNL     1       6.962   4.893  16.191  0.00  0.00    +0.000 A 
ATOM     11  N   UNL     1       7.696   5.217  17.262  0.00  0.00    +0.000 NA
ATOM     12  H   UNL     1       3.056   4.791  16.574  0.00  0.00    +0.000 HD
ATOM     13  H   UNL     1       8.437   4.776  14.697  0.00  0.00    +0.000 HD
ENDROOT
BRANCH   5  14
ATOM     14  C   UNL     1       2.807   4.682  18.666  0.00  0.00    +0.000 C 
BRANCH  14  15
ATOM     15  C   UNL     1       2.349   3.287  19.177  0.00  0.00    +0.000 C 
ATOM     16  C   UNL     1       3.371   2.728  20.186  0.00  0.00    +0.000 C 
ATOM     17  C   UNL     1       0.991   3.433  19.886  0.00  0.00    +0.000 C 
ATOM     18  C   UNL     1       2.184   2.292  18.014  0.00  0.00    +0.000 C 
ENDBRANCH  14  15
ENDBRANCH   5  14
TORSDOF 2
ENDMDL
MODEL 5
REMARK VINA RESULT:      -7.0      0.780      1.401
REMARK  Name = 
REMARK  6 active torsions:
REMARK  status: ('A' for Active; 'I' for Inactive)
REMARK    1  A    between atoms: C_1  and  C_2
REMARK    2  A    between atoms: N_5  and  C_6
REMARK    3  A    between atoms: C_6  and  C_7
REMARK    4  A    between atoms: C_7  and  C_8
REMARK    5  A    between atoms: C_7  and  C_9
REMARK    6  A    between atoms: C_7  and  C_10
REMARK                            x       y       z     vdW  Elec       q    Type
REMARK                         _______ _______ _______ _____ _____    ______ ____
ROOT
ATOM      1  C   UNL     1       7.702   5.741  19.557  0.00  0.00    +0.000 C 
ATOM      2  C   UNL     1       6.969   5.339  18.313  0.00  0.00    +0.000 A 
ATOM      3  N   UNL     1       5.637   5.131  18.430  0.00  0.00    +0.000 NA
ATOM      4  C   UNL     1       4.916   4.797  17.334  0.00  0.00    +0.000 A 
ATOM      5  N   UNL     1       3.559   4.542  17.408  0.00  0.00    +0.000 N 
ATOM      6  C   UNL     1       5.599   4.675  16.112  0.00  0.00    +0.000 A 
ATOM      7  C   UNL     1       5.256   4.338  14.770  0.00  0.00    +0.000 A 
ATOM      8  C   UNL     1       6.417   4.352  14.026  0.00  0.00    +0.000 A 
ATOM      9  N   UNL     1       7.447   4.681  14.872  0.00  0.00    +0.000 N 
ATOM     10  C   UNL     1       6.965   4.887  16.134  0.00  0.00    +0.000 A 
ATOM     11  N   UNL     1       7.710   5.225  17.193  0.00  0.00    +0.000 NA
ATOM     12  H   UNL     1       3.064   4.784  16.559  0.00  0.00    +0.000 HD
ATOM     13  H   UNL     1       8.425   4.754  14.626  0.00  0.00    +0.000 HD
ENDROOT
BRANCH   5  14
ATOM     14  C   UNL     1       2.837   4.701  18.656  0.00  0.00    +0.000 C 
BRANCH  14  15
ATOM     15  C   UNL     1       2.372   3.313  19.180  0.00  0.00    +0.000 C 
ATOM     16  C   UNL     1       2.291   2.305  18.017  0.00  0.00    +0.000 C 
ATOM     17  C   UNL     1       3.396   2.796  20.206  0.00  0.00    +0.000 C 
ATOM     18  C   UNL     1       0.999   3.407  19.870  0.00  0.00    +0.000 C 
ENDBRANCH  14  15
ENDBRANCH   5  14
TORSDOF 2
ENDMDL
MODEL 6
REMARK VINA RESULT:      -6.8      1.138      2.883
REMARK  Name = 
REMARK  6 active torsions:
REMARK  status: ('A' for Active; 'I' for Inactive)
REMARK    1  A    between atoms: C_1  and  C_2
REMARK    2  A    between atoms: N_5  and  C_6
REMARK    3  A    between atoms: C_6  and  C_7
REMARK    4  A    between atoms: C_7  and  C_8
REMARK    5  A    between atoms: C_7  and  C_9
REMARK    6  A    between atoms: C_7  and  C_10
REMARK                            x       y       z     vdW  Elec       q    Type
REMARK                         _______ _______ _______ _____ _____    ______ ____
ROOT
ATOM      1  C   UNL     1       5.443   4.008  13.702  0.00  0.00    +0.000 C 
ATOM      2  C   UNL     1       5.738   4.500  15.087  0.00  0.00    +0.000 A 
ATOM      3  N   UNL     1       5.014   3.958  16.094  0.00  0.00    +0.000 NA
ATOM      4  C   UNL     1       5.259   4.339  17.370  0.00  0.00    +0.000 A 
ATOM      5  N   UNL     1       4.524   3.838  18.430  0.00  0.00    +0.000 N 
ATOM      6  C   UNL     1       6.263   5.298  17.587  0.00  0.00    +0.000 A 
ATOM      7  C   UNL     1       6.815   5.973  18.715  0.00  0.00    +0.000 A 
ATOM      8  C   UNL     1       7.770   6.852  18.248  0.00  0.00    +0.000 A 
ATOM      9  N   UNL     1       7.808   6.735  16.881  0.00  0.00    +0.000 N 
ATOM     10  C   UNL     1       6.909   5.792  16.469  0.00  0.00    +0.000 A 
ATOM     11  N   UNL     1       6.701   5.437  15.196  0.00  0.00    +0.000 NA
ATOM     12  H   UNL     1       5.056   3.786  19.289  0.00  0.00    +0.000 HD
ATOM     13  H   UNL     1       8.396   7.263  16.250  0.00  0.00    +0.000 HD
ENDROOT
BRANCH   5  14
ATOM     14  C   UNL     1       3.512   2.821  18.221  0.00  0.00    +0.000 C 
BRANCH  14  15
ATOM     15  C   UNL     1       2.126   3.348  18.690  0.00  0.00    +0.000 C 
ATOM     16  C   UNL     1       2.256   4.036  20.063  0.00  0.00    +0.000 C 
ATOM     17  C   UNL     1       1.612   4.380  17.672  0.00  0.00    +0.000 C 
ATOM     18  C   UNL     1       1.098   2.207  18.787  0.00  0.00    +0.000 C 
ENDBRANCH  14  15
ENDBRANCH   5  14
TORSDOF 2
ENDMDL
MODEL 7
REMARK VINA RESULT:      -6.8      1.146      2.964
REMARK  Name = 
REMARK  6 active torsions:
REMARK  status: ('A' for Active; 'I' for Inactive)
REMARK    1  A    between atoms: C_1  and  C_2
REMARK    2  A    between atoms: N_5  and  C_6
REMARK    3  A    between atoms: C_6  and  C_7
REMARK    4  A    between atoms: C_7  and  C_8
REMARK    5  A    between atoms: C_7  and  C_9
REMARK    6  A    between atoms: C_7  and  C_10
REMARK                            x       y       z     vdW  Elec       q    Type
REMARK                         _______ _______ _______ _____ _____    ______ ____
ROOT
ATOM      1  C   UNL     1       5.549   3.902  13.688  0.00  0.00    +0.000 C 
ATOM      2  C   UNL     1       5.808   4.441  15.062  0.00  0.00    +0.000 A 
ATOM      3  N   UNL     1       5.058   3.934  16.069  0.00  0.00    +0.000 NA
ATOM      4  C   UNL     1       5.269   4.359  17.336  0.00  0.00    +0.000 A 
ATOM      5  N   UNL     1       4.508   3.895  18.393  0.00  0.00    +0.000 N 
ATOM      6  C   UNL     1       6.267   5.326  17.546  0.00  0.00    +0.000 A 
ATOM      7  C   UNL     1       6.790   6.040  18.664  0.00  0.00    +0.000 A 
ATOM      8  C   UNL     1       7.757   6.903  18.192  0.00  0.00    +0.000 A 
ATOM      9  N   UNL     1       7.831   6.739  16.831  0.00  0.00    +0.000 N 
ATOM     10  C   UNL     1       6.942   5.782  16.429  0.00  0.00    +0.000 A 
ATOM     11  N   UNL     1       6.768   5.382  15.164  0.00  0.00    +0.000 NA
ATOM     12  H   UNL     1       5.017   3.872  19.267  0.00  0.00    +0.000 HD
ATOM     13  H   UNL     1       8.435   7.246  16.198  0.00  0.00    +0.000 HD
ENDROOT
BRANCH   5  14
ATOM     14  C   UNL     1       3.501   2.870  18.194  0.00  0.00    +0.000 C 
BRANCH  14  15
ATOM     15  C   UNL     1       2.113   3.392  18.663  0.00  0.00    +0.000 C 
ATOM     16  C   UNL     1       1.554   4.406  17.646  0.00  0.00    +0.000 C 
ATOM     17  C   UNL     1       1.139   2.206  18.759  0.00  0.00    +0.000 C 
ATOM     18  C   UNL     1       2.205   4.058  20.048  0.00  0.00    +0.000 C 
ENDBRANCH  14  15
ENDBRANCH   5  14
TORSDOF 2
ENDMDL
MODEL 8
REMARK VINA RESULT:      -6.8      1.304      1.322
REMARK  Name = 
REMARK  6 active torsions:
REMARK  status: ('A' for Active; 'I' for Inactive)
REMARK    1  A    between atoms: C_1  and  C_2
REMARK    2  A    between atoms: N_5  and  C_6
REMARK    3  A    between atoms: C_6  and  C_7
REMARK    4  A    between atoms: C_7  and  C_8
REMARK    5  A    between atoms: C_7  and  C_9
REMARK    6  A    between atoms: C_7  and  C_10
REMARK                            x       y       z     vdW  Elec       q    Type
REMARK                         _______ _______ _______ _____ _____    ______ ____
ROOT
ATOM      1  C   UNL     1       8.016   7.859  18.221  0.00  0.00    +0.000 C 
ATOM      2  C   UNL     1       7.283   6.774  17.492  0.00  0.00    +0.000 A 
ATOM      3  N   UNL     1       6.239   6.202  18.136  0.00  0.00    +0.000 NA
ATOM      4  C   UNL     1       5.519   5.238  17.515  0.00  0.00    +0.000 A 
ATOM      5  N   UNL     1       4.465   4.602  18.144  0.00  0.00    +0.000 N 
ATOM      6  C   UNL     1       5.903   4.869  16.215  0.00  0.00    +0.000 A 
ATOM      7  C   UNL     1       5.460   3.929  15.239  0.00  0.00    +0.000 A 
ATOM      8  C   UNL     1       6.304   4.027  14.152  0.00  0.00    +0.000 A 
ATOM      9  N   UNL     1       7.241   4.988  14.440  0.00  0.00    +0.000 N 
ATOM     10  C   UNL     1       7.004   5.512  15.681  0.00  0.00    +0.000 A 
ATOM     11  N   UNL     1       7.736   6.471  16.258  0.00  0.00    +0.000 NA
ATOM     12  H   UNL     1       3.743   4.304  17.501  0.00  0.00    +0.000 HD
ATOM     13  H   UNL     1       8.007   5.275  13.847  0.00  0.00    +0.000 HD
ENDROOT
BRANCH   5  14
ATOM     14  C   UNL     1       4.038   5.000  19.471  0.00  0.00    +0.000 C 
BRANCH  14  15
ATOM     15  C   UNL     1       2.548   4.614  19.687  0.00  0.00    +0.000 C 
ATOM     16  C   UNL     1       1.824   5.711  20.492  0.00  0.00    +0.000 C 
ATOM     17  C   UNL     1       1.861   4.478  18.317  0.00  0.00    +0.000 C 
ATOM     18  C   UNL     1       2.420   3.270  20.429  0.00  0.00    +0.000 C 
ENDBRANCH  14  15
ENDBRANCH   5  14
TORSDOF 2
ENDMDL
MODEL 9
REMARK VINA RESULT:      -6.7      1.240      1.603
REMARK  Name = 
REMARK  6 active torsions:
REMARK  status: ('A' for Active; 'I' for Inactive)
REMARK    1  A    between atoms: C_1  and  C_2
REMARK    2  A    between atoms: N_5  and  C_6
REMARK    3  A    between atoms: C_6  and  C_7
REMARK    4  A    between atoms: C_7  and  C_8
REMARK    5  A    between atoms: C_7  and  C_9
REMARK    6  A    between atoms: C_7  and  C_10
REMARK                            x       y       z     vdW  Elec       q    Type
REMARK                         _______ _______ _______ _____ _____    ______ ____
ROOT
ATOM      1  C   UNL     1       7.897   7.619  18.180  0.00  0.00    +0.000 C 
ATOM      2  C   UNL     1       7.151   6.587  17.389  0.00  0.00    +0.000 A 
ATOM      3  N   UNL     1       6.082   6.013  17.989  0.00  0.00    +0.000 NA
ATOM      4  C   UNL     1       5.350   5.097  17.312  0.00  0.00    +0.000 A 
ATOM      5  N   UNL     1       4.269   4.459  17.893  0.00  0.00    +0.000 N 
ATOM      6  C   UNL     1       5.747   4.778  16.003  0.00  0.00    +0.000 A 
ATOM      7  C   UNL     1       5.299   3.895  14.977  0.00  0.00    +0.000 A 
ATOM      8  C   UNL     1       6.164   4.021  13.910  0.00  0.00    +0.000 A 
ATOM      9  N   UNL     1       7.119   4.944  14.258  0.00  0.00    +0.000 N 
ATOM     10  C   UNL     1       6.874   5.416  15.517  0.00  0.00    +0.000 A 
ATOM     11  N   UNL     1       7.618   6.330  16.151  0.00  0.00    +0.000 NA
ATOM     12  H   UNL     1       3.551   4.210  17.225  0.00  0.00    +0.000 HD
ATOM     13  H   UNL     1       7.903   5.238  13.692  0.00  0.00    +0.000 HD
ENDROOT
BRANCH   5  14
ATOM     14  C   UNL     1       3.828   4.807  19.230  0.00  0.00    +0.000 C 
BRANCH  14  15
ATOM     15  C   UNL     1       2.446   4.157  19.519  0.00  0.00    +0.000 C 
ATOM     16  C   UNL     1       2.633   2.726  20.060  0.00  0.00    +0.000 C 
ATOM     17  C   UNL     1       1.712   4.991  20.583  0.00  0.00    +0.000 C 
ATOM     18  C   UNL     1       1.573   4.113  18.251  0.00  0.00    +0.000 C 
ENDBRANCH  14  15
ENDBRANCH   5  14
TORSDOF 2
ENDMDL
