MODEL 1
REMARK VINA RESULT:      -8.2      0.000      0.000
REMARK  Name = 
REMARK  6 active torsions:
REMARK  status: ('A' for Active; 'I' for Inactive)
REMARK    1  A    between atoms: C_2  and  C_27
REMARK    2  A    between atoms: N_3  and  C_4
REMARK    3  A    between atoms: C_7  and  C_8
REMARK    4  A    between atoms: C_8  and  C_9
REMARK    5  A    between atoms: C_9  and  N_10
REMARK    6  A    between atoms: N_13  and  C_14
REMARK                            x       y       z     vdW  Elec       q    Type
REMARK                         _______ _______ _______ _____ _____    ______ ____
ROOT
ATOM      1  C   UNL     1       0.258   9.655  20.927  0.00  0.00    +0.000 C 
ENDROOT
BRANCH   1   5
ATOM      2  C   UNL     1       2.547   6.901  18.412  0.00  0.00    +0.000 C 
ATOM      3  C   UNL     1       2.506   6.634  19.919  0.00  0.00    +0.000 C 
ATOM      4  C   UNL     1       1.367   7.390  20.595  0.00  0.00    +0.000 C 
ATOM      5  C   UNL     1       1.426   8.893  20.286  0.00  0.00    +0.000 C 
ATOM      6  C   UNL     1       1.426   9.136  18.772  0.00  0.00    +0.000 C 
ATOM      7  C   UNL     1       2.577   8.398  18.102  0.00  0.00    +0.000 C 
BRANCH   2  10
ATOM      8  O   UNL     1       2.777   4.173  17.676  0.00  0.00    +0.000 OA
ATOM      9  C   UNL     1       3.730   4.922  17.499  0.00  0.00    +0.000 C 
ATOM     10  N   UNL     1       3.708   6.264  17.813  0.00  0.00    +0.000 N 
ATOM     11  H   UNL     1       4.585   6.768  17.841  0.00  0.00    +0.000 HD
BRANCH   9  12
ATOM     12  C   UNL     1       5.064   4.463  16.929  0.00  0.00    +0.000 C 
ATOM     13  C   UNL     1       6.221   4.809  17.874  0.00  0.00    +0.000 C 
ATOM     14  C   UNL     1       7.549   4.409  17.249  0.00  0.00    +0.000 C 
ATOM     15  O   UNL     1       7.718   5.023  15.973  0.00  0.00    +0.000 OA
ATOM     16  C   UNL     1       6.698   4.652  15.047  0.00  0.00    +0.000 C 
ATOM     17  C   UNL     1       5.330   5.083  15.554  0.00  0.00    +0.000 C 
ENDBRANCH   9  12
ENDBRANCH   2  10
ENDBRANCH   1   5
BRANCH   1  18
ATOM     18  C   UNL     1      -0.564  10.474  19.928  0.00  0.00    +0.000 C 
BRANCH  18  19
ATOM     19  N   UNL     1      -1.234  11.641  20.533  0.00  0.00    +0.000 NA
ATOM     20  C   UNL     1      -0.305  12.508  21.299  0.00  0.00    +0.000 C 
ATOM     21  C   UNL     1       0.836  13.102  20.454  0.00  0.00    +0.000 C 
ATOM     22  N   UNL     1       0.334  13.738  19.231  0.00  0.00    +0.000 N 
ATOM     23  C   UNL     1      -0.805  13.142  18.524  0.00  0.00    +0.000 C 
ATOM     24  C   UNL     1      -1.828  12.491  19.479  0.00  0.00    +0.000 C 
BRANCH  22  25
ATOM     25  C   UNL     1       0.644  15.062  18.998  0.00  0.00    +0.000 A 
ATOM     26  N   UNL     1      -0.290  16.025  19.251  0.00  0.00    +0.000 NA
ATOM     27  C   UNL     1      -0.027  17.330  19.012  0.00  0.00    +0.000 A 
ATOM     28  C   UNL     1       1.163  17.822  18.519  0.00  0.00    +0.000 A 
ATOM     29  C   UNL     1       2.112  16.841  18.297  0.00  0.00    +0.000 A 
ATOM     30  O   UNL     1       3.374  17.059  17.832  0.00  0.00    +0.000 OA
ATOM     31  C   UNL     1       3.994  15.851  17.781  0.00  0.00    +0.000 A 
ATOM     32  C   UNL     1       3.151  14.856  18.211  0.00  0.00    +0.000 A 
ATOM     33  C   UNL     1       1.906  15.487  18.524  0.00  0.00    +0.000 A 
ENDBRANCH  22  25
ENDBRANCH  18  19
ENDBRANCH   1  18
TORSDOF 6
ENDMDL
MODEL 2
REMARK VINA RESULT:      -8.0      5.867     11.164
REMARK  Name = 
REMARK  6 active torsions:
REMARK  status: ('A' for Active; 'I' for Inactive)
REMARK    1  A    between atoms: C_2  and  C_27
REMARK    2  A    between atoms: N_3  and  C_4
REMARK    3  A    between atoms: C_7  and  C_8
REMARK    4  A    between atoms: C_8  and  C_9
REMARK    5  A    between atoms: C_9  and  N_10
REMARK    6  A    between atoms: N_13  and  C_14
REMARK                            x       y       z     vdW  Elec       q    Type
REMARK                         _______ _______ _______ _____ _____    ______ ____
ROOT
ATOM      1  C   UNL     1       8.266   8.219  18.251  0.00  0.00    +0.000 C 
ENDROOT
BRANCH   1   5
ATOM      2  C   UNL     1       9.064  12.467  18.935  0.00  0.00    +0.000 C 
ATOM      3  C   UNL     1       8.479  12.053  17.582  0.00  0.00    +0.000 C 
ATOM      4  C   UNL     1       7.873  10.655  17.633  0.00  0.00    +0.000 C 
ATOM      5  C   UNL     1       8.882   9.622  18.156  0.00  0.00    +0.000 C 
ATOM      6  C   UNL     1       9.422  10.038  19.529  0.00  0.00    +0.000 C 
ATOM      7  C   UNL     1      10.047  11.425  19.470  0.00  0.00    +0.000 C 
BRANCH   2  10
ATOM      8  O   UNL     1       8.029  14.981  19.741  0.00  0.00    +0.000 OA
ATOM      9  C   UNL     1       9.146  14.927  19.239  0.00  0.00    +0.000 C 
ATOM     10  N   UNL     1       9.736  13.751  18.830  0.00  0.00    +0.000 N 
ATOM     11  H   UNL     1      10.556  13.802  18.238  0.00  0.00    +0.000 HD
BRANCH   9  12
ATOM     12  C   UNL     1      10.013  16.151  18.987  0.00  0.00    +0.000 C 
ATOM     13  C   UNL     1       9.298  17.162  18.082  0.00  0.00    +0.000 C 
ATOM     14  C   UNL     1      10.213  18.341  17.784  0.00  0.00    +0.000 C 
ATOM     15  O   UNL     1      11.440  17.901  17.205  0.00  0.00    +0.000 OA
ATOM     16  C   UNL     1      12.166  17.022  18.063  0.00  0.00    +0.000 C 
ATOM     17  C   UNL     1      11.355  15.769  18.359  0.00  0.00    +0.000 C 
ENDBRANCH   9  12
ENDBRANCH   2  10
ENDBRANCH   1   5
BRANCH   1  18
ATOM     18  C   UNL     1       6.955   8.070  17.471  0.00  0.00    +0.000 C 
BRANCH  18  19
ATOM     19  N   UNL     1       6.709   6.698  16.989  0.00  0.00    +0.000 NA
ATOM     20  C   UNL     1       6.805   5.682  18.066  0.00  0.00    +0.000 C 
ATOM     21  C   UNL     1       5.796   5.886  19.210  0.00  0.00    +0.000 C 
ATOM     22  N   UNL     1       4.430   6.061  18.707  0.00  0.00    +0.000 N 
ATOM     23  C   UNL     1       4.210   6.801  17.458  0.00  0.00    +0.000 C 
ATOM     24  C   UNL     1       5.344   6.591  16.431  0.00  0.00    +0.000 C 
BRANCH  22  25
ATOM     25  C   UNL     1       3.443   5.209  19.157  0.00  0.00    +0.000 A 
ATOM     26  N   UNL     1       2.504   5.672  20.033  0.00  0.00    +0.000 NA
ATOM     27  C   UNL     1       1.535   4.857  20.512  0.00  0.00    +0.000 A 
ATOM     28  C   UNL     1       1.381   3.528  20.177  0.00  0.00    +0.000 A 
ATOM     29  C   UNL     1       2.318   3.079  19.264  0.00  0.00    +0.000 A 
ATOM     30  O   UNL     1       2.377   1.817  18.755  0.00  0.00    +0.000 OA
ATOM     31  C   UNL     1       3.414   1.790  17.878  0.00  0.00    +0.000 A 
ATOM     32  C   UNL     1       4.023   3.019  17.809  0.00  0.00    +0.000 A 
ATOM     33  C   UNL     1       3.333   3.864  18.735  0.00  0.00    +0.000 A 
ENDBRANCH  22  25
ENDBRANCH  18  19
ENDBRANCH   1  18
TORSDOF 6
ENDMDL
MODEL 3
REMARK VINA RESULT:      -7.8      3.041      4.519
REMARK  Name = 
REMARK  6 active torsions:
REMARK  status: ('A' for Active; 'I' for Inactive)
REMARK    1  A    between atoms: C_2  and  C_27
REMARK    2  A    between atoms: N_3  and  C_4
REMARK    3  A    between atoms: C_7  and  C_8
REMARK    4  A    between atoms: C_8  and  C_9
REMARK    5  A    between atoms: C_9  and  N_10
REMARK    6  A    between atoms: N_13  and  C_14
REMARK                            x       y       z     vdW  Elec       q    Type
REMARK                         _______ _______ _______ _____ _____    ______ ____
ROOT
ATOM      1  C   UNL     1       0.282   9.792  20.698  0.00  0.00    +0.000 C 
ENDROOT
BRANCH   1   5
ATOM      2  C   UNL     1       2.565   6.914  18.321  0.00  0.00    +0.000 C 
ATOM      3  C   UNL     1       2.568   6.753  19.843  0.00  0.00    +0.000 C 
ATOM      4  C   UNL     1       1.430   7.532  20.495  0.00  0.00    +0.000 C 
ATOM      5  C   UNL     1       1.449   9.010  20.080  0.00  0.00    +0.000 C 
ATOM      6  C   UNL     1       1.405   9.146  18.554  0.00  0.00    +0.000 C 
ATOM      7  C   UNL     1       2.554   8.386  17.906  0.00  0.00    +0.000 C 
BRANCH   2  10
ATOM      8  O   UNL     1       2.741   4.199  17.523  0.00  0.00    +0.000 OA
ATOM      9  C   UNL     1       3.718   4.926  17.389  0.00  0.00    +0.000 C 
ATOM     10  N   UNL     1       3.724   6.260  17.737  0.00  0.00    +0.000 N 
ATOM     11  H   UNL     1       4.613   6.739  17.800  0.00  0.00    +0.000 HD
BRANCH   9  12
ATOM     12  C   UNL     1       5.054   4.444  16.843  0.00  0.00    +0.000 C 
ATOM     13  C   UNL     1       6.217   4.912  17.727  0.00  0.00    +0.000 C 
ATOM     14  C   UNL     1       7.545   4.483  17.119  0.00  0.00    +0.000 C 
ATOM     15  O   UNL     1       7.677   4.969  15.785  0.00  0.00    +0.000 OA
ATOM     16  C   UNL     1       6.651   4.481  14.921  0.00  0.00    +0.000 C 
ATOM     17  C   UNL     1       5.281   4.928  15.409  0.00  0.00    +0.000 C 
ENDBRANCH   9  12
ENDBRANCH   2  10
ENDBRANCH   1   5
BRANCH   1  18
ATOM     18  C   UNL     1      -0.315  10.847  19.763  0.00  0.00    +0.000 C 
BRANCH  18  19
ATOM     19  N   UNL     1      -0.198  12.225  20.277  0.00  0.00    +0.000 NA
ATOM     20  C   UNL     1      -1.253  13.128  19.754  0.00  0.00    +0.000 C 
ATOM     21  C   UNL     1      -2.684  12.692  20.114  0.00  0.00    +0.000 C 
ATOM     22  N   UNL     1      -2.825  12.414  21.547  0.00  0.00    +0.000 N 
ATOM     23  C   UNL     1      -1.714  11.788  22.273  0.00  0.00    +0.000 C 
ATOM     24  C   UNL     1      -0.331  12.232  21.749  0.00  0.00    +0.000 C 
BRANCH  22  25
ATOM     25  C   UNL     1      -3.788  13.097  22.263  0.00  0.00    +0.000 A 
ATOM     26  N   UNL     1      -5.003  12.514  22.479  0.00  0.00    +0.000 NA
ATOM     27  C   UNL     1      -5.976  13.164  23.158  0.00  0.00    +0.000 A 
ATOM     28  C   UNL     1      -5.858  14.428  23.698  0.00  0.00    +0.000 A 
ATOM     29  C   UNL     1      -4.612  14.994  23.500  0.00  0.00    +0.000 A 
ATOM     30  O   UNL     1      -4.227  16.223  23.947  0.00  0.00    +0.000 OA
ATOM     31  C   UNL     1      -2.933  16.394  23.575  0.00  0.00    +0.000 A 
ATOM     32  C   UNL     1      -2.473  15.291  22.897  0.00  0.00    +0.000 A 
ATOM     33  C   UNL     1      -3.573  14.380  22.816  0.00  0.00    +0.000 A 
ENDBRANCH  22  25
ENDBRANCH  18  19
ENDBRANCH   1  18
TORSDOF 6
ENDMDL
MODEL 4
REMARK VINA RESULT:      -7.8      4.021      5.887
REMARK  Name = 
REMARK  6 active torsions:
REMARK  status: ('A' for Active; 'I' for Inactive)
REMARK    1  A    between atoms: C_2  and  C_27
REMARK    2  A    between atoms: N_3  and  C_4
REMARK    3  A    between atoms: C_7  and  C_8
REMARK    4  A    between atoms: C_8  and  C_9
REMARK    5  A    between atoms: C_9  and  N_10
REMARK    6  A    between atoms: N_13  and  C_14
REMARK                            x       y       z     vdW  Elec       q    Type
REMARK                         _______ _______ _______ _____ _____    ______ ____
ROOT
ATOM      1  C   UNL     1      -0.142  11.346  19.770  0.00  0.00    +0.000 C 
ENDROOT
BRANCH   1   5
ATOM      2  C   UNL     1       2.253   7.717  19.279  0.00  0.00    +0.000 C 
ATOM      3  C   UNL     1       1.655   8.360  18.025  0.00  0.00    +0.000 C 
ATOM      4  C   UNL     1       1.220   9.799  18.281  0.00  0.00    +0.000 C 
ATOM      5  C   UNL     1       0.265   9.895  19.479  0.00  0.00    +0.000 C 
ATOM      6  C   UNL     1       0.903   9.281  20.731  0.00  0.00    +0.000 C 
ATOM      7  C   UNL     1       1.315   7.838  20.480  0.00  0.00    +0.000 C 
BRANCH   2  10
ATOM      8  O   UNL     1       4.420   6.688  17.767  0.00  0.00    +0.000 OA
ATOM      9  C   UNL     1       3.625   5.909  18.279  0.00  0.00    +0.000 C 
ATOM     10  N   UNL     1       2.550   6.315  19.041  0.00  0.00    +0.000 N 
ATOM     11  H   UNL     1       1.825   5.641  19.250  0.00  0.00    +0.000 HD
BRANCH   9  12
ATOM     12  C   UNL     1       3.712   4.398  18.123  0.00  0.00    +0.000 C 
ATOM     13  C   UNL     1       2.383   3.813  17.630  0.00  0.00    +0.000 C 
ATOM     14  C   UNL     1       2.472   2.296  17.555  0.00  0.00    +0.000 C 
ATOM     15  O   UNL     1       2.847   1.743  18.815  0.00  0.00    +0.000 OA
ATOM     16  C   UNL     1       4.121   2.210  19.259  0.00  0.00    +0.000 C 
ATOM     17  C   UNL     1       4.107   3.720  19.438  0.00  0.00    +0.000 C 
ENDBRANCH   9  12
ENDBRANCH   2  10
ENDBRANCH   1   5
BRANCH   1  18
ATOM     18  C   UNL     1      -0.611  11.576  21.210  0.00  0.00    +0.000 C 
BRANCH  18  19
ATOM     19  N   UNL     1      -0.894  12.990  21.519  0.00  0.00    +0.000 NA
ATOM     20  C   UNL     1      -2.048  13.528  20.757  0.00  0.00    +0.000 C 
ATOM     21  C   UNL     1      -3.372  12.792  21.027  0.00  0.00    +0.000 C 
ATOM     22  N   UNL     1      -3.642  12.663  22.463  0.00  0.00    +0.000 N 
ATOM     23  C   UNL     1      -2.527  12.430  23.389  0.00  0.00    +0.000 C 
ATOM     24  C   UNL     1      -1.228  13.142  22.951  0.00  0.00    +0.000 C 
BRANCH  22  25
ATOM     25  C   UNL     1      -4.828  13.162  22.962  0.00  0.00    +0.000 A 
ATOM     26  N   UNL     1      -5.866  12.310  23.206  0.00  0.00    +0.000 NA
ATOM     27  C   UNL     1      -7.049  12.769  23.674  0.00  0.00    +0.000 A 
ATOM     28  C   UNL     1      -7.330  14.089  23.960  0.00  0.00    +0.000 A 
ATOM     29  C   UNL     1      -6.261  14.937  23.741  0.00  0.00    +0.000 A 
ATOM     30  O   UNL     1      -6.266  16.282  23.962  0.00  0.00    +0.000 OA
ATOM     31  C   UNL     1      -5.026  16.741  23.653  0.00  0.00    +0.000 A 
ATOM     32  C   UNL     1      -4.217  15.711  23.239  0.00  0.00    +0.000 A 
ATOM     33  C   UNL     1      -5.023  14.530  23.264  0.00  0.00    +0.000 A 
ENDBRANCH  22  25
ENDBRANCH  18  19
ENDBRANCH   1  18
TORSDOF 6
ENDMDL
MODEL 5
REMARK VINA RESULT:      -7.7      5.964     11.444
REMARK  Name = 
REMARK  6 active torsions:
REMARK  status: ('A' for Active; 'I' for Inactive)
REMARK    1  A    between atoms: C_2  and  C_27
REMARK    2  A    between atoms: N_3  and  C_4
REMARK    3  A    between atoms: C_7  and  C_8
REMARK    4  A    between atoms: C_8  and  C_9
REMARK    5  A    between atoms: C_9  and  N_10
REMARK    6  A    between atoms: N_13  and  C_14
REMARK                            x       y       z     vdW  Elec       q    Type
REMARK                         _______ _______ _______ _____ _____    ______ ____
ROOT
ATOM      1  C   UNL     1       8.506   8.096  18.537  0.00  0.00    +0.000 C 
ENDROOT
BRANCH   1   5
ATOM      2  C   UNL     1       9.543  12.340  18.285  0.00  0.00    +0.000 C 
ATOM      3  C   UNL     1       9.850  11.600  19.589  0.00  0.00    +0.000 C 
ATOM      4  C   UNL     1       9.834  10.087  19.397  0.00  0.00    +0.000 C 
ATOM      5  C   UNL     1       8.513   9.613  18.773  0.00  0.00    +0.000 C 
ATOM      6  C   UNL     1       8.248  10.338  17.449  0.00  0.00    +0.000 C 
ATOM      7  C   UNL     1       8.243  11.848  17.647  0.00  0.00    +0.000 C 
BRANCH   2  10
ATOM      8  O   UNL     1      11.680  14.200  18.207  0.00  0.00    +0.000 OA
ATOM      9  C   UNL     1      10.552  14.598  18.471  0.00  0.00    +0.000 C 
ATOM     10  N   UNL     1       9.450  13.771  18.519  0.00  0.00    +0.000 N 
ATOM     11  H   UNL     1       8.602  14.121  18.947  0.00  0.00    +0.000 HD
BRANCH   9  12
ATOM     12  C   UNL     1      10.227  16.048  18.799  0.00  0.00    +0.000 C 
ATOM     13  C   UNL     1      11.392  16.727  19.527  0.00  0.00    +0.000 C 
ATOM     14  C   UNL     1      11.015  18.151  19.910  0.00  0.00    +0.000 C 
ATOM     15  O   UNL     1       9.827  18.170  20.698  0.00  0.00    +0.000 OA
ATOM     16  C   UNL     1       8.705  17.616  20.011  0.00  0.00    +0.000 C 
ATOM     17  C   UNL     1       8.961  16.160  19.652  0.00  0.00    +0.000 C 
ENDBRANCH   9  12
ENDBRANCH   2  10
ENDBRANCH   1   5
BRANCH   1  18
ATOM     18  C   UNL     1       7.515   7.647  17.459  0.00  0.00    +0.000 C 
BRANCH  18  19
ATOM     19  N   UNL     1       7.636   6.220  17.104  0.00  0.00    +0.000 NA
ATOM     20  C   UNL     1       7.504   5.321  18.277  0.00  0.00    +0.000 C 
ATOM     21  C   UNL     1       6.152   5.434  19.002  0.00  0.00    +0.000 C 
ATOM     22  N   UNL     1       5.024   5.332  18.072  0.00  0.00    +0.000 N 
ATOM     23  C   UNL     1       5.136   5.926  16.734  0.00  0.00    +0.000 C 
ATOM     24  C   UNL     1       6.567   5.837  16.159  0.00  0.00    +0.000 C 
BRANCH  22  25
ATOM     25  C   UNL     1       4.070   4.359  18.289  0.00  0.00    +0.000 A 
ATOM     26  N   UNL     1       4.174   3.161  17.644  0.00  0.00    +0.000 NA
ATOM     27  C   UNL     1       3.245   2.193  17.817  0.00  0.00    +0.000 A 
ATOM     28  C   UNL     1       2.140   2.292  18.637  0.00  0.00    +0.000 A 
ATOM     29  C   UNL     1       2.064   3.497  19.310  0.00  0.00    +0.000 A 
ATOM     30  O   UNL     1       1.086   3.843  20.194  0.00  0.00    +0.000 OA
ATOM     31  C   UNL     1       1.386   5.086  20.653  0.00  0.00    +0.000 A 
ATOM     32  C   UNL     1       2.546   5.547  20.081  0.00  0.00    +0.000 A 
ATOM     33  C   UNL     1       2.984   4.528  19.178  0.00  0.00    +0.000 A 
ENDBRANCH  22  25
ENDBRANCH  18  19
ENDBRANCH   1  18
TORSDOF 6
ENDMDL
MODEL 6
REMARK VINA RESULT:      -7.7      6.045      7.800
REMARK  Name = 
REMARK  6 active torsions:
REMARK  status: ('A' for Active; 'I' for Inactive)
REMARK    1  A    between atoms: C_2  and  C_27
REMARK    2  A    between atoms: N_3  and  C_4
REMARK    3  A    between atoms: C_7  and  C_8
REMARK    4  A    between atoms: C_8  and  C_9
REMARK    5  A    between atoms: C_9  and  N_10
REMARK    6  A    between atoms: N_13  and  C_14
REMARK                            x       y       z     vdW  Elec       q    Type
REMARK                         _______ _______ _______ _____ _____    ______ ____
ROOT
ATOM      1  C   UNL     1       8.486   8.784  17.532  0.00  0.00    +0.000 C 
ENDROOT
BRANCH   1   5
ATOM      2  C   UNL     1       5.895   5.303  18.094  0.00  0.00    +0.000 C 
ATOM      3  C   UNL     1       5.294   6.550  17.441  0.00  0.00    +0.000 C 
ATOM      4  C   UNL     1       6.374   7.499  16.934  0.00  0.00    +0.000 C 
ATOM      5  C   UNL     1       7.371   7.863  18.045  0.00  0.00    +0.000 C 
ATOM      6  C   UNL     1       7.989   6.600  18.655  0.00  0.00    +0.000 C 
ATOM      7  C   UNL     1       6.909   5.665  19.180  0.00  0.00    +0.000 C 
BRANCH   2  10
ATOM      8  O   UNL     1       4.504   3.203  16.794  0.00  0.00    +0.000 OA
ATOM      9  C   UNL     1       4.220   3.480  17.954  0.00  0.00    +0.000 C 
ATOM     10  N   UNL     1       4.850   4.474  18.670  0.00  0.00    +0.000 N 
ATOM     11  H   UNL     1       4.428   4.788  19.535  0.00  0.00    +0.000 HD
BRANCH   9  12
ATOM     12  C   UNL     1       3.125   2.776  18.741  0.00  0.00    +0.000 C 
ATOM     13  C   UNL     1       1.737   3.098  18.174  0.00  0.00    +0.000 C 
ATOM     14  C   UNL     1       0.657   2.444  19.024  0.00  0.00    +0.000 C 
ATOM     15  O   UNL     1       0.768   2.846  20.387  0.00  0.00    +0.000 OA
ATOM     16  C   UNL     1       2.022   2.484  20.965  0.00  0.00    +0.000 C 
ATOM     17  C   UNL     1       3.167   3.156  20.224  0.00  0.00    +0.000 C 
ENDBRANCH   9  12
ENDBRANCH   2  10
ENDBRANCH   1   5
BRANCH   1  18
ATOM     18  C   UNL     1       8.564  10.125  18.268  0.00  0.00    +0.000 C 
BRANCH  18  19
ATOM     19  N   UNL     1       9.924  10.468  18.726  0.00  0.00    +0.000 NA
ATOM     20  C   UNL     1      10.606  11.436  17.832  0.00  0.00    +0.000 C 
ATOM     21  C   UNL     1       9.880  12.787  17.703  0.00  0.00    +0.000 C 
ATOM     22  N   UNL     1       9.545  13.353  19.014  0.00  0.00    +0.000 N 
ATOM     23  C   UNL     1       9.140  12.458  20.104  0.00  0.00    +0.000 C 
ATOM     24  C   UNL     1       9.868  11.097  20.062  0.00  0.00    +0.000 C 
BRANCH  22  25
ATOM     25  C   UNL     1      10.000  14.618  19.326  0.00  0.00    +0.000 A 
ATOM     26  N   UNL     1      11.225  14.766  19.909  0.00  0.00    +0.000 NA
ATOM     27  C   UNL     1      11.692  15.990  20.248  0.00  0.00    +0.000 A 
ATOM     28  C   UNL     1      11.024  17.178  20.043  0.00  0.00    +0.000 A 
ATOM     29  C   UNL     1       9.798  17.018  19.422  0.00  0.00    +0.000 A 
ATOM     30  O   UNL     1       8.948  18.030  19.088  0.00  0.00    +0.000 OA
ATOM     31  C   UNL     1       7.877  17.463  18.476  0.00  0.00    +0.000 A 
ATOM     32  C   UNL     1       8.024  16.099  18.405  0.00  0.00    +0.000 A 
ATOM     33  C   UNL     1       9.264  15.793  19.048  0.00  0.00    +0.000 A 
ENDBRANCH  22  25
ENDBRANCH  18  19
ENDBRANCH   1  18
TORSDOF 6
ENDMDL
MODEL 7
REMARK VINA RESULT:      -7.7      3.873      5.414
REMARK  Name = 
REMARK  6 active torsions:
REMARK  status: ('A' for Active; 'I' for Inactive)
REMARK    1  A    between atoms: C_2  and  C_27
REMARK    2  A    between atoms: N_3  and  C_4
REMARK    3  A    between atoms: C_7  and  C_8
REMARK    4  A    between atoms: C_8  and  C_9
REMARK    5  A    between atoms: C_9  and  N_10
REMARK    6  A    between atoms: N_13  and  C_14
REMARK                            x       y       z     vdW  Elec       q    Type
REMARK                         _______ _______ _______ _____ _____    ______ ____
ROOT
ATOM      1  C   UNL     1      -0.604  10.798  20.134  0.00  0.00    +0.000 C 
ENDROOT
BRANCH   1   5
ATOM      2  C   UNL     1       2.050   7.713  18.525  0.00  0.00    +0.000 C 
ATOM      3  C   UNL     1       1.960   7.864  20.046  0.00  0.00    +0.000 C 
ATOM      4  C   UNL     1       0.724   8.654  20.462  0.00  0.00    +0.000 C 
ATOM      5  C   UNL     1       0.659  10.014  19.752  0.00  0.00    +0.000 C 
ATOM      6  C   UNL     1       0.710   9.835  18.231  0.00  0.00    +0.000 C 
ATOM      7  C   UNL     1       1.956   9.065  17.815  0.00  0.00    +0.000 C 
BRANCH   2  10
ATOM      8  O   UNL     1       2.375   4.979  17.848  0.00  0.00    +0.000 OA
ATOM      9  C   UNL     1       3.355   5.716  17.847  0.00  0.00    +0.000 C 
ATOM     10  N   UNL     1       3.292   7.060  18.149  0.00  0.00    +0.000 N 
ATOM     11  H   UNL     1       4.155   7.553  18.336  0.00  0.00    +0.000 HD
BRANCH   9  12
ATOM     12  C   UNL     1       4.764   5.239  17.532  0.00  0.00    +0.000 C 
ATOM     13  C   UNL     1       5.750   5.653  18.631  0.00  0.00    +0.000 C 
ATOM     14  C   UNL     1       7.163   5.231  18.256  0.00  0.00    +0.000 C 
ATOM     15  O   UNL     1       7.539   5.769  16.990  0.00  0.00    +0.000 OA
ATOM     16  C   UNL     1       6.684   5.333  15.934  0.00  0.00    +0.000 C 
ATOM     17  C   UNL     1       5.251   5.778  16.184  0.00  0.00    +0.000 C 
ENDBRANCH   9  12
ENDBRANCH   2  10
ENDBRANCH   1   5
BRANCH   1  18
ATOM     18  C   UNL     1      -0.589  11.323  21.573  0.00  0.00    +0.000 C 
BRANCH  18  19
ATOM     19  N   UNL     1      -0.879  12.766  21.677  0.00  0.00    +0.000 NA
ATOM     20  C   UNL     1      -2.045  13.181  20.859  0.00  0.00    +0.000 C 
ATOM     21  C   UNL     1      -3.361  12.485  21.248  0.00  0.00    +0.000 C 
ATOM     22  N   UNL     1      -3.614  12.565  22.690  0.00  0.00    +0.000 N 
ATOM     23  C   UNL     1      -2.487  12.475  23.627  0.00  0.00    +0.000 C 
ATOM     24  C   UNL     1      -1.199  13.123  23.075  0.00  0.00    +0.000 C 
BRANCH  22  25
ATOM     25  C   UNL     1      -4.798  13.125  23.126  0.00  0.00    +0.000 A 
ATOM     26  N   UNL     1      -5.868  12.318  23.382  0.00  0.00    +0.000 NA
ATOM     27  C   UNL     1      -7.050  12.837  23.789  0.00  0.00    +0.000 A 
ATOM     28  C   UNL     1      -7.298  14.178  23.996  0.00  0.00    +0.000 A 
ATOM     29  C   UNL     1      -6.197  14.981  23.765  0.00  0.00    +0.000 A 
ATOM     30  O   UNL     1      -6.167  16.336  23.914  0.00  0.00    +0.000 OA
ATOM     31  C   UNL     1      -4.905  16.740  23.619  0.00  0.00    +0.000 A 
ATOM     32  C   UNL     1      -4.116  15.666  23.286  0.00  0.00    +0.000 A 
ATOM     33  C   UNL     1      -4.959  14.512  23.349  0.00  0.00    +0.000 A 
ENDBRANCH  22  25
ENDBRANCH  18  19
ENDBRANCH   1  18
TORSDOF 6
ENDMDL
MODEL 8
REMARK VINA RESULT:      -7.6      5.665     11.261
REMARK  Name = 
REMARK  6 active torsions:
REMARK  status: ('A' for Active; 'I' for Inactive)
REMARK    1  A    between atoms: C_2  and  C_27
REMARK    2  A    between atoms: N_3  and  C_4
REMARK    3  A    between atoms: C_7  and  C_8
REMARK    4  A    between atoms: C_8  and  C_9
REMARK    5  A    between atoms: C_9  and  N_10
REMARK    6  A    between atoms: N_13  and  C_14
REMARK                            x       y       z     vdW  Elec       q    Type
REMARK                         _______ _______ _______ _____ _____    ______ ____
ROOT
ATOM      1  C   UNL     1       8.491   8.203  18.540  0.00  0.00    +0.000 C 
ENDROOT
BRANCH   1   5
ATOM      2  C   UNL     1       9.697  12.403  18.319  0.00  0.00    +0.000 C 
ATOM      3  C   UNL     1       9.924  11.657  19.637  0.00  0.00    +0.000 C 
ATOM      4  C   UNL     1       9.857  10.145  19.448  0.00  0.00    +0.000 C 
ATOM      5  C   UNL     1       8.546   9.719  18.772  0.00  0.00    +0.000 C 
ATOM      6  C   UNL     1       8.362  10.449  17.437  0.00  0.00    +0.000 C 
ATOM      7  C   UNL     1       8.406  11.958  17.631  0.00  0.00    +0.000 C 
BRANCH   2  10
ATOM      8  O   UNL     1       8.208  13.740  20.328  0.00  0.00    +0.000 OA
ATOM      9  C   UNL     1       8.884  14.399  19.546  0.00  0.00    +0.000 C 
ATOM     10  N   UNL     1       9.649  13.838  18.547  0.00  0.00    +0.000 N 
ATOM     11  H   UNL     1      10.005  14.440  17.816  0.00  0.00    +0.000 HD
BRANCH   9  12
ATOM     12  C   UNL     1       8.947  15.919  19.567  0.00  0.00    +0.000 C 
ATOM     13  C   UNL     1       7.644  16.522  20.103  0.00  0.00    +0.000 C 
ATOM     14  C   UNL     1       7.704  18.042  20.043  0.00  0.00    +0.000 C 
ATOM     15  O   UNL     1       7.977  18.490  18.717  0.00  0.00    +0.000 OA
ATOM     16  C   UNL     1       9.226  18.008  18.223  0.00  0.00    +0.000 C 
ATOM     17  C   UNL     1       9.234  16.488  18.175  0.00  0.00    +0.000 C 
ENDBRANCH   9  12
ENDBRANCH   2  10
ENDBRANCH   1   5
BRANCH   1  18
ATOM     18  C   UNL     1       7.402   7.772  17.552  0.00  0.00    +0.000 C 
BRANCH  18  19
ATOM     19  N   UNL     1       7.532   6.373  17.105  0.00  0.00    +0.000 NA
ATOM     20  C   UNL     1       7.468   5.400  18.224  0.00  0.00    +0.000 C 
ATOM     21  C   UNL     1       6.147   5.441  19.012  0.00  0.00    +0.000 C 
ATOM     22  N   UNL     1       4.980   5.374  18.127  0.00  0.00    +0.000 N 
ATOM     23  C   UNL     1       5.024   6.051  16.825  0.00  0.00    +0.000 C 
ATOM     24  C   UNL     1       6.428   6.026  16.184  0.00  0.00    +0.000 C 
BRANCH  22  25
ATOM     25  C   UNL     1       4.055   4.371  18.324  0.00  0.00    +0.000 A 
ATOM     26  N   UNL     1       4.203   3.182  17.670  0.00  0.00    +0.000 NA
ATOM     27  C   UNL     1       3.301   2.185  17.823  0.00  0.00    +0.000 A 
ATOM     28  C   UNL     1       2.185   2.243  18.631  0.00  0.00    +0.000 A 
ATOM     29  C   UNL     1       2.063   3.439  19.313  0.00  0.00    +0.000 A 
ATOM     30  O   UNL     1       1.064   3.747  20.188  0.00  0.00    +0.000 OA
ATOM     31  C   UNL     1       1.321   4.994  20.661  0.00  0.00    +0.000 A 
ATOM     32  C   UNL     1       2.473   5.495  20.108  0.00  0.00    +0.000 A 
ATOM     33  C   UNL     1       2.953   4.498  19.201  0.00  0.00    +0.000 A 
ENDBRANCH  22  25
ENDBRANCH  18  19
ENDBRANCH   1  18
TORSDOF 6
ENDMDL
MODEL 9
REMARK VINA RESULT:      -7.6      3.157      4.209
REMARK  Name = 
REMARK  6 active torsions:
REMARK  status: ('A' for Active; 'I' for Inactive)
REMARK    1  A    between atoms: C_2  and  C_27
REMARK    2  A    between atoms: N_3  and  C_4
REMARK    3  A    between atoms: C_7  and  C_8
REMARK    4  A    between atoms: C_8  and  C_9
REMARK    5  A    between atoms: C_9  and  N_10
REMARK    6  A    between atoms: N_13  and  C_14
REMARK                            x       y       z     vdW  Elec       q    Type
REMARK                         _______ _______ _______ _____ _____    ______ ____
ROOT
ATOM      1  C   UNL     1       0.330   9.529  21.005  0.00  0.00    +0.000 C 
ENDROOT
BRANCH   1   5
ATOM      2  C   UNL     1       2.595   6.781  18.463  0.00  0.00    +0.000 C 
ATOM      3  C   UNL     1       2.535   6.489  19.964  0.00  0.00    +0.000 C 
ATOM      4  C   UNL     1       1.403   7.252  20.643  0.00  0.00    +0.000 C 
ATOM      5  C   UNL     1       1.491   8.759  20.361  0.00  0.00    +0.000 C 
ATOM      6  C   UNL     1       1.509   9.028  18.852  0.00  0.00    +0.000 C 
ATOM      7  C   UNL     1       2.654   8.283  18.180  0.00  0.00    +0.000 C 
BRANCH   2  10
ATOM      8  O   UNL     1       2.693   4.153  17.406  0.00  0.00    +0.000 OA
ATOM      9  C   UNL     1       3.705   4.843  17.385  0.00  0.00    +0.000 C 
ATOM     10  N   UNL     1       3.750   6.135  17.863  0.00  0.00    +0.000 N 
ATOM     11  H   UNL     1       4.655   6.565  18.009  0.00  0.00    +0.000 HD
BRANCH   9  12
ATOM     12  C   UNL     1       5.043   4.357  16.847  0.00  0.00    +0.000 C 
ATOM     13  C   UNL     1       6.209   4.910  17.676  0.00  0.00    +0.000 C 
ATOM     14  C   UNL     1       7.536   4.471  17.074  0.00  0.00    +0.000 C 
ATOM     15  O   UNL     1       7.634   4.869  15.708  0.00  0.00    +0.000 OA
ATOM     16  C   UNL     1       6.605   4.302  14.897  0.00  0.00    +0.000 C 
ATOM     17  C   UNL     1       5.234   4.748  15.380  0.00  0.00    +0.000 C 
ENDBRANCH   9  12
ENDBRANCH   2  10
ENDBRANCH   1   5
BRANCH   1  18
ATOM     18  C   UNL     1       0.498  11.051  20.952  0.00  0.00    +0.000 C 
BRANCH  18  19
ATOM     19  N   UNL     1      -0.747  11.770  20.622  0.00  0.00    +0.000 NA
ATOM     20  C   UNL     1      -1.778  11.657  21.683  0.00  0.00    +0.000 C 
ATOM     21  C   UNL     1      -1.341  12.229  23.043  0.00  0.00    +0.000 C 
ATOM     22  N   UNL     1      -0.796  13.584  22.915  0.00  0.00    +0.000 N 
ATOM     23  C   UNL     1       0.006  13.931  21.735  0.00  0.00    +0.000 C 
ATOM     24  C   UNL     1      -0.474  13.213  20.454  0.00  0.00    +0.000 C 
BRANCH  22  25
ATOM     25  C   UNL     1      -1.365  14.601  23.654  0.00  0.00    +0.000 A 
ATOM     26  N   UNL     1      -0.709  15.084  24.749  0.00  0.00    +0.000 NA
ATOM     27  C   UNL     1      -1.249  16.065  25.509  0.00  0.00    +0.000 A 
ATOM     28  C   UNL     1      -2.464  16.674  25.271  0.00  0.00    +0.000 A 
ATOM     29  C   UNL     1      -3.103  16.199  24.140  0.00  0.00    +0.000 A 
ATOM     30  O   UNL     1      -4.303  16.642  23.672  0.00  0.00    +0.000 OA
ATOM     31  C   UNL     1      -4.568  15.948  22.535  0.00  0.00    +0.000 A 
ATOM     32  C   UNL     1      -3.553  15.064  22.260  0.00  0.00    +0.000 A 
ATOM     33  C   UNL     1      -2.603  15.198  23.320  0.00  0.00    +0.000 A 
ENDBRANCH  22  25
ENDBRANCH  18  19
ENDBRANCH   1  18
TORSDOF 6
ENDMDL
