MODEL 1
REMARK VINA RESULT:      -7.6      0.000      0.000
REMARK  Name = 
REMARK  9 active torsions:
REMARK  status: ('A' for Active; 'I' for Inactive)
REMARK    1  A    between atoms: C_1  and  C_2
REMARK    2  A    between atoms: C_2  and  O_3
REMARK    3  A    between atoms: O_3  and  C_4
REMARK    4  A    between atoms: C_7  and  N_8
REMARK    5  A    between atoms: C_10  and  C_11
REMARK    6  A    between atoms: C_11  and  O_12
REMARK    7  A    between atoms: C_13  and  C_14
REMARK    8  A    between atoms: N_16  and  C_17
REMARK    9  A    between atoms: C_17  and  C_18
REMARK                            x       y       z     vdW  Elec       q    Type
REMARK                         _______ _______ _______ _____ _____    ______ ____
ROOT
ATOM      1  N   UNL     1       8.294   9.061  18.191  0.00  0.00    +0.000 N 
ATOM      2  N   UNL     1       8.810   7.988  18.851  0.00  0.00    +0.000 NA
ATOM      3  C   UNL     1       7.961   7.005  18.510  0.00  0.00    +0.000 A 
ATOM      4  C   UNL     1       6.994   7.498  17.603  0.00  0.00    +0.000 A 
ATOM      5  N   UNL     1       7.207   8.813  17.405  0.00  0.00    +0.000 NA
ENDROOT
BRANCH   1   9
ATOM      6  C   UNL     1       9.960  12.942  18.475  0.00  0.00    +0.000 A 
ATOM      7  C   UNL     1      10.485  11.894  19.237  0.00  0.00    +0.000 A 
ATOM      8  C   UNL     1       9.940  10.605  19.152  0.00  0.00    +0.000 A 
ATOM      9  C   UNL     1       8.855  10.363  18.300  0.00  0.00    +0.000 A 
ATOM     10  C   UNL     1       8.311  11.420  17.559  0.00  0.00    +0.000 A 
ATOM     11  C   UNL     1       8.859  12.704  17.652  0.00  0.00    +0.000 A 
BRANCH   6  12
ATOM     12  O   UNL     1      10.573  14.157  18.634  0.00  0.00    +0.000 OA
BRANCH  12  14
ATOM     13  C   UNL     1      10.799  15.928  17.036  0.00  0.00    +0.000 C 
ATOM     14  C   UNL     1       9.890  15.276  18.063  0.00  0.00    +0.000 C 
ENDBRANCH  12  14
ENDBRANCH   6  12
ENDBRANCH   1   9
BRANCH   4  15
ATOM     15  C   UNL     1       5.923   6.746  16.944  0.00  0.00    +0.000 C 
ATOM     16  O   UNL     1       6.023   6.340  15.792  0.00  0.00    +0.000 OA
ATOM     17  N   UNL     1       4.802   6.561  17.719  0.00  0.00    +0.000 N 
ATOM     18  H   UNL     1       4.820   6.942  18.659  0.00  0.00    +0.000 HD
BRANCH  17  19
ATOM     19  C   UNL     1       3.628   5.878  17.232  0.00  0.00    +0.000 C 
BRANCH  19  20
ATOM     20  C   UNL     1       2.970   5.074  18.322  0.00  0.00    +0.000 A 
ATOM     21  C   UNL     1       3.293   5.292  19.670  0.00  0.00    +0.000 A 
ATOM     22  C   UNL     1       2.681   4.539  20.676  0.00  0.00    +0.000 A 
ATOM     23  C   UNL     1       1.748   3.560  20.339  0.00  0.00    +0.000 A 
ATOM     24 CL   UNL     1       1.000   2.632  21.579  0.00  0.00    +0.000 Cl
ATOM     25  C   UNL     1       1.420   3.329  19.005  0.00  0.00    +0.000 A 
ATOM     26  C   UNL     1       2.032   4.080  17.999  0.00  0.00    +0.000 A 
ENDBRANCH  19  20
ENDBRANCH  17  19
ENDBRANCH   4  15
BRANCH   3  27
ATOM     27  C   UNL     1       8.111   5.619  19.046  0.00  0.00    +0.000 C 
BRANCH  27  28
ATOM     28  O   UNL     1       7.876   5.554  20.454  0.00  0.00    +0.000 OA
ATOM     29  H   UNL     1       7.345   6.347  20.659  0.00  0.00    +0.000 HD
ENDBRANCH  27  28
ENDBRANCH   3  27
TORSDOF 8
ENDMDL
MODEL 2
REMARK VINA RESULT:      -7.5      1.178      1.825
REMARK  Name = 
REMARK  9 active torsions:
REMARK  status: ('A' for Active; 'I' for Inactive)
REMARK    1  A    between atoms: C_1  and  C_2
REMARK    2  A    between atoms: C_2  and  O_3
REMARK    3  A    between atoms: O_3  and  C_4
REMARK    4  A    between atoms: C_7  and  N_8
REMARK    5  A    between atoms: C_10  and  C_11
REMARK    6  A    between atoms: C_11  and  O_12
REMARK    7  A    between atoms: C_13  and  C_14
REMARK    8  A    between atoms: N_16  and  C_17
REMARK    9  A    between atoms: C_17  and  C_18
REMARK                            x       y       z     vdW  Elec       q    Type
REMARK                         _______ _______ _______ _____ _____    ______ ____
ROOT
ATOM      1  N   UNL     1       8.407   8.882  18.240  0.00  0.00    +0.000 N 
ATOM      2  N   UNL     1       8.671   7.966  19.212  0.00  0.00    +0.000 NA
ATOM      3  C   UNL     1       8.100   6.854  18.723  0.00  0.00    +0.000 A 
ATOM      4  C   UNL     1       7.563   7.113  17.440  0.00  0.00    +0.000 A 
ATOM      5  N   UNL     1       7.757   8.411  17.137  0.00  0.00    +0.000 NA
ENDROOT
BRANCH   1   9
ATOM      6  C   UNL     1       9.554  12.938  18.622  0.00  0.00    +0.000 A 
ATOM      7  C   UNL     1       8.619  12.560  17.654  0.00  0.00    +0.000 A 
ATOM      8  C   UNL     1       8.233  11.219  17.518  0.00  0.00    +0.000 A 
ATOM      9  C   UNL     1       8.792  10.246  18.354  0.00  0.00    +0.000 A 
ATOM     10  C   UNL     1       9.750  10.621  19.305  0.00  0.00    +0.000 A 
ATOM     11  C   UNL     1      10.132  11.961  19.432  0.00  0.00    +0.000 A 
BRANCH   6  12
ATOM     12  O   UNL     1       9.853  14.275  18.669  0.00  0.00    +0.000 OA
BRANCH  12  14
ATOM     13  C   UNL     1       8.258  15.783  19.628  0.00  0.00    +0.000 C 
ATOM     14  C   UNL     1       8.780  15.162  18.345  0.00  0.00    +0.000 C 
ENDBRANCH  12  14
ENDBRANCH   6  12
ENDBRANCH   1   9
BRANCH   4  15
ATOM     15  C   UNL     1       6.907   6.163  16.538  0.00  0.00    +0.000 C 
ATOM     16  O   UNL     1       7.354   5.900  15.429  0.00  0.00    +0.000 OA
ATOM     17  N   UNL     1       5.746   5.619  17.037  0.00  0.00    +0.000 N 
ATOM     18  H   UNL     1       5.460   5.909  17.967  0.00  0.00    +0.000 HD
BRANCH  17  19
ATOM     19  C   UNL     1       4.938   4.693  16.282  0.00  0.00    +0.000 C 
BRANCH  19  20
ATOM     20  C   UNL     1       3.808   4.146  17.114  0.00  0.00    +0.000 A 
ATOM     21  C   UNL     1       3.646   2.762  17.283  0.00  0.00    +0.000 A 
ATOM     22  C   UNL     1       2.594   2.261  18.054  0.00  0.00    +0.000 A 
ATOM     23  C   UNL     1       1.694   3.140  18.654  0.00  0.00    +0.000 A 
ATOM     24 CL   UNL     1       0.397   2.521  19.598  0.00  0.00    +0.000 Cl
ATOM     25  C   UNL     1       1.839   4.516  18.491  0.00  0.00    +0.000 A 
ATOM     26  C   UNL     1       2.890   5.017  17.721  0.00  0.00    +0.000 A 
ENDBRANCH  19  20
ENDBRANCH  17  19
ENDBRANCH   4  15
BRANCH   3  27
ATOM     27  C   UNL     1       8.102   5.571  19.487  0.00  0.00    +0.000 C 
BRANCH  27  28
ATOM     28  O   UNL     1       6.789   5.177  19.890  0.00  0.00    +0.000 OA
ATOM     29  H   UNL     1       6.411   4.724  19.112  0.00  0.00    +0.000 HD
ENDBRANCH  27  28
ENDBRANCH   3  27
TORSDOF 8
ENDMDL
MODEL 3
REMARK VINA RESULT:      -7.5      1.361      1.880
REMARK  Name = 
REMARK  9 active torsions:
REMARK  status: ('A' for Active; 'I' for Inactive)
REMARK    1  A    between atoms: C_1  and  C_2
REMARK    2  A    between atoms: C_2  and  O_3
REMARK    3  A    between atoms: O_3  and  C_4
REMARK    4  A    between atoms: C_7  and  N_8
REMARK    5  A    between atoms: C_10  and  C_11
REMARK    6  A    between atoms: C_11  and  O_12
REMARK    7  A    between atoms: C_13  and  C_14
REMARK    8  A    between atoms: N_16  and  C_17
REMARK    9  A    between atoms: C_17  and  C_18
REMARK                            x       y       z     vdW  Elec       q    Type
REMARK                         _______ _______ _______ _____ _____    ______ ____
ROOT
ATOM      1  N   UNL     1       8.103   8.585  18.111  0.00  0.00    +0.000 N 
ATOM      2  N   UNL     1       8.540   7.495  18.800  0.00  0.00    +0.000 NA
ATOM      3  C   UNL     1       7.752   6.519  18.324  0.00  0.00    +0.000 A 
ATOM      4  C   UNL     1       6.906   7.033  17.314  0.00  0.00    +0.000 A 
ATOM      5  N   UNL     1       7.130   8.354  17.184  0.00  0.00    +0.000 NA
ENDROOT
BRANCH   1   9
ATOM      6  C   UNL     1       9.677  12.453  18.804  0.00  0.00    +0.000 A 
ATOM      7  C   UNL     1       8.794  12.233  17.743  0.00  0.00    +0.000 A 
ATOM      8  C   UNL     1       8.268  10.956  17.504  0.00  0.00    +0.000 A 
ATOM      9  C   UNL     1       8.633   9.886  18.330  0.00  0.00    +0.000 A 
ATOM     10  C   UNL     1       9.541  10.102  19.375  0.00  0.00    +0.000 A 
ATOM     11  C   UNL     1      10.064  11.379  19.605  0.00  0.00    +0.000 A 
BRANCH   6  12
ATOM     12  O   UNL     1      10.125  13.741  18.947  0.00  0.00    +0.000 OA
BRANCH  12  14
ATOM     13  C   UNL     1       8.617  14.779  20.492  0.00  0.00    +0.000 C 
ATOM     14  C   UNL     1       9.110  14.741  19.057  0.00  0.00    +0.000 C 
ENDBRANCH  12  14
ENDBRANCH   6  12
ENDBRANCH   1   9
BRANCH   4  15
ATOM     15  C   UNL     1       5.937   6.295  16.500  0.00  0.00    +0.000 C 
ATOM     16  O   UNL     1       5.330   6.817  15.573  0.00  0.00    +0.000 OA
ATOM     17  N   UNL     1       5.756   4.986  16.883  0.00  0.00    +0.000 N 
ATOM     18  H   UNL     1       6.305   4.653  17.669  0.00  0.00    +0.000 HD
BRANCH  17  19
ATOM     19  C   UNL     1       4.816   4.110  16.229  0.00  0.00    +0.000 C 
BRANCH  19  20
ATOM     20  C   UNL     1       3.676   3.746  17.143  0.00  0.00    +0.000 A 
ATOM     21  C   UNL     1       2.777   4.725  17.594  0.00  0.00    +0.000 A 
ATOM     22  C   UNL     1       1.724   4.382  18.445  0.00  0.00    +0.000 A 
ATOM     23  C   UNL     1       1.567   3.059  18.856  0.00  0.00    +0.000 A 
ATOM     24 CL   UNL     1       0.272   2.640  19.907  0.00  0.00    +0.000 Cl
ATOM     25  C   UNL     1       2.454   2.077  18.421  0.00  0.00    +0.000 A 
ATOM     26  C   UNL     1       3.507   2.420  17.570  0.00  0.00    +0.000 A 
ENDBRANCH  19  20
ENDBRANCH  17  19
ENDBRANCH   4  15
BRANCH   3  27
ATOM     27  C   UNL     1       7.845   5.118  18.834  0.00  0.00    +0.000 C 
BRANCH  27  28
ATOM     28  O   UNL     1       8.280   4.202  17.827  0.00  0.00    +0.000 OA
ATOM     29  H   UNL     1       8.758   4.751  17.176  0.00  0.00    +0.000 HD
ENDBRANCH  27  28
ENDBRANCH   3  27
TORSDOF 8
ENDMDL
MODEL 4
REMARK VINA RESULT:      -7.4      1.196      1.549
REMARK  Name = 
REMARK  9 active torsions:
REMARK  status: ('A' for Active; 'I' for Inactive)
REMARK    1  A    between atoms: C_1  and  C_2
REMARK    2  A    between atoms: C_2  and  O_3
REMARK    3  A    between atoms: O_3  and  C_4
REMARK    4  A    between atoms: C_7  and  N_8
REMARK    5  A    between atoms: C_10  and  C_11
REMARK    6  A    between atoms: C_11  and  O_12
REMARK    7  A    between atoms: C_13  and  C_14
REMARK    8  A    between atoms: N_16  and  C_17
REMARK    9  A    between atoms: C_17  and  C_18
REMARK                            x       y       z     vdW  Elec       q    Type
REMARK                         _______ _______ _______ _____ _____    ______ ____
ROOT
ATOM      1  N   UNL     1       8.203   8.775  18.129  0.00  0.00    +0.000 N 
ATOM      2  N   UNL     1       8.598   7.740  18.919  0.00  0.00    +0.000 NA
ATOM      3  C   UNL     1       7.842   6.727  18.466  0.00  0.00    +0.000 A 
ATOM      4  C   UNL     1       7.058   7.164  17.372  0.00  0.00    +0.000 A 
ATOM      5  N   UNL     1       7.288   8.475  17.163  0.00  0.00    +0.000 NA
ENDROOT
BRANCH   1   9
ATOM      6  C   UNL     1       9.728  12.701  18.559  0.00  0.00    +0.000 A 
ATOM      7  C   UNL     1      10.261  11.652  19.314  0.00  0.00    +0.000 A 
ATOM      8  C   UNL     1       9.763  10.349  19.181  0.00  0.00    +0.000 A 
ATOM      9  C   UNL     1       8.716  10.092  18.287  0.00  0.00    +0.000 A 
ATOM     10  C   UNL     1       8.162  11.149  17.552  0.00  0.00    +0.000 A 
ATOM     11  C   UNL     1       8.663  12.447  17.693  0.00  0.00    +0.000 A 
BRANCH   6  12
ATOM     12  O   UNL     1      10.294  13.931  18.767  0.00  0.00    +0.000 OA
BRANCH  12  14
ATOM     13  C   UNL     1       9.054  15.857  19.472  0.00  0.00    +0.000 C 
ATOM     14  C   UNL     1       9.836  14.636  19.924  0.00  0.00    +0.000 C 
ENDBRANCH  12  14
ENDBRANCH   6  12
ENDBRANCH   1   9
BRANCH   4  15
ATOM     15  C   UNL     1       6.142   6.365  16.555  0.00  0.00    +0.000 C 
ATOM     16  O   UNL     1       5.541   6.835  15.596  0.00  0.00    +0.000 OA
ATOM     17  N   UNL     1       6.002   5.061  16.972  0.00  0.00    +0.000 N 
ATOM     18  H   UNL     1       6.542   4.773  17.782  0.00  0.00    +0.000 HD
BRANCH  17  19
ATOM     19  C   UNL     1       5.116   4.130  16.318  0.00  0.00    +0.000 C 
BRANCH  19  20
ATOM     20  C   UNL     1       3.931   3.798  17.187  0.00  0.00    +0.000 A 
ATOM     21  C   UNL     1       3.657   2.471  17.551  0.00  0.00    +0.000 A 
ATOM     22  C   UNL     1       2.555   2.170  18.355  0.00  0.00    +0.000 A 
ATOM     23  C   UNL     1       1.716   3.192  18.794  0.00  0.00    +0.000 A 
ATOM     24 CL   UNL     1       0.357   2.818  19.779  0.00  0.00    +0.000 Cl
ATOM     25  C   UNL     1       1.972   4.515  18.438  0.00  0.00    +0.000 A 
ATOM     26  C   UNL     1       3.074   4.816  17.634  0.00  0.00    +0.000 A 
ENDBRANCH  19  20
ENDBRANCH  17  19
ENDBRANCH   4  15
BRANCH   3  27
ATOM     27  C   UNL     1       7.906   5.366  19.078  0.00  0.00    +0.000 C 
BRANCH  27  28
ATOM     28  O   UNL     1       6.776   5.092  19.909  0.00  0.00    +0.000 OA
ATOM     29  H   UNL     1       6.348   5.958  20.048  0.00  0.00    +0.000 HD
ENDBRANCH  27  28
ENDBRANCH   3  27
TORSDOF 8
ENDMDL
MODEL 5
REMARK VINA RESULT:      -7.4      0.774      1.283
REMARK  Name = 
REMARK  9 active torsions:
REMARK  status: ('A' for Active; 'I' for Inactive)
REMARK    1  A    between atoms: C_1  and  C_2
REMARK    2  A    between atoms: C_2  and  O_3
REMARK    3  A    between atoms: O_3  and  C_4
REMARK    4  A    between atoms: C_7  and  N_8
REMARK    5  A    between atoms: C_10  and  C_11
REMARK    6  A    between atoms: C_11  and  O_12
REMARK    7  A    between atoms: C_13  and  C_14
REMARK    8  A    between atoms: N_16  and  C_17
REMARK    9  A    between atoms: C_17  and  C_18
REMARK                            x       y       z     vdW  Elec       q    Type
REMARK                         _______ _______ _______ _____ _____    ______ ____
ROOT
ATOM      1  N   UNL     1       8.263   8.995  18.150  0.00  0.00    +0.000 N 
ATOM      2  N   UNL     1       8.769   7.952  18.864  0.00  0.00    +0.000 NA
ATOM      3  C   UNL     1       7.948   6.946  18.526  0.00  0.00    +0.000 A 
ATOM      4  C   UNL     1       7.008   7.393  17.568  0.00  0.00    +0.000 A 
ATOM      5  N   UNL     1       7.210   8.704  17.334  0.00  0.00    +0.000 NA
ENDROOT
BRANCH   1   9
ATOM      6  C   UNL     1       9.870  12.899  18.447  0.00  0.00    +0.000 A 
ATOM      7  C   UNL     1       8.764  12.654  17.627  0.00  0.00    +0.000 A 
ATOM      8  C   UNL     1       8.225  11.365  17.521  0.00  0.00    +0.000 A 
ATOM      9  C   UNL     1       8.800  10.308  18.236  0.00  0.00    +0.000 A 
ATOM     10  C   UNL     1       9.927  10.549  19.035  0.00  0.00    +0.000 A 
ATOM     11  C   UNL     1      10.461  11.838  19.133  0.00  0.00    +0.000 A 
BRANCH   6  12
ATOM     12  O   UNL     1      10.310  14.197  18.478  0.00  0.00    +0.000 OA
BRANCH  12  14
ATOM     13  C   UNL     1      10.166  15.893  20.164  0.00  0.00    +0.000 C 
ATOM     14  C   UNL     1       9.419  15.140  19.079  0.00  0.00    +0.000 C 
ENDBRANCH  12  14
ENDBRANCH   6  12
ENDBRANCH   1   9
BRANCH   4  15
ATOM     15  C   UNL     1       5.974   6.603  16.895  0.00  0.00    +0.000 C 
ATOM     16  O   UNL     1       5.921   6.497  15.676  0.00  0.00    +0.000 OA
ATOM     17  N   UNL     1       5.066   6.017  17.746  0.00  0.00    +0.000 N 
ATOM     18  H   UNL     1       5.197   6.171  18.741  0.00  0.00    +0.000 HD
BRANCH  17  19
ATOM     19  C   UNL     1       3.953   5.232  17.271  0.00  0.00    +0.000 C 
BRANCH  19  20
ATOM     20  C   UNL     1       3.268   4.511  18.402  0.00  0.00    +0.000 A 
ATOM     21  C   UNL     1       3.997   3.691  19.277  0.00  0.00    +0.000 A 
ATOM     22  C   UNL     1       3.354   3.023  20.322  0.00  0.00    +0.000 A 
ATOM     23  C   UNL     1       1.978   3.165  20.494  0.00  0.00    +0.000 A 
ATOM     24 CL   UNL     1       1.188   2.337  21.779  0.00  0.00    +0.000 Cl
ATOM     25  C   UNL     1       1.240   3.971  19.631  0.00  0.00    +0.000 A 
ATOM     26  C   UNL     1       1.882   4.639  18.586  0.00  0.00    +0.000 A 
ENDBRANCH  19  20
ENDBRANCH  17  19
ENDBRANCH   4  15
BRANCH   3  27
ATOM     27  C   UNL     1       8.098   5.580  19.113  0.00  0.00    +0.000 C 
BRANCH  27  28
ATOM     28  O   UNL     1       8.112   5.603  20.542  0.00  0.00    +0.000 OA
ATOM     29  H   UNL     1       8.365   4.698  20.807  0.00  0.00    +0.000 HD
ENDBRANCH  27  28
ENDBRANCH   3  27
TORSDOF 8
ENDMDL
MODEL 6
REMARK VINA RESULT:      -7.4      6.387      8.978
REMARK  Name = 
REMARK  9 active torsions:
REMARK  status: ('A' for Active; 'I' for Inactive)
REMARK    1  A    between atoms: C_1  and  C_2
REMARK    2  A    between atoms: C_2  and  O_3
REMARK    3  A    between atoms: O_3  and  C_4
REMARK    4  A    between atoms: C_7  and  N_8
REMARK    5  A    between atoms: C_10  and  C_11
REMARK    6  A    between atoms: C_11  and  O_12
REMARK    7  A    between atoms: C_13  and  C_14
REMARK    8  A    between atoms: N_16  and  C_17
REMARK    9  A    between atoms: C_17  and  C_18
REMARK                            x       y       z     vdW  Elec       q    Type
REMARK                         _______ _______ _______ _____ _____    ______ ____
ROOT
ATOM      1  N   UNL     1       2.336   7.673  18.825  0.00  0.00    +0.000 N 
ATOM      2  N   UNL     1       1.971   7.543  20.130  0.00  0.00    +0.000 NA
ATOM      3  C   UNL     1       1.390   8.726  20.386  0.00  0.00    +0.000 A 
ATOM      4  C   UNL     1       1.364   9.513  19.211  0.00  0.00    +0.000 A 
ATOM      5  N   UNL     1       1.973   8.839  18.218  0.00  0.00    +0.000 NA
ENDROOT
BRANCH   1   9
ATOM      6  C   UNL     1       4.436   4.619  16.781  0.00  0.00    +0.000 A 
ATOM      7  C   UNL     1       4.884   5.942  16.722  0.00  0.00    +0.000 A 
ATOM      8  C   UNL     1       4.196   6.961  17.394  0.00  0.00    +0.000 A 
ATOM      9  C   UNL     1       3.044   6.656  18.128  0.00  0.00    +0.000 A 
ATOM     10  C   UNL     1       2.579   5.334  18.164  0.00  0.00    +0.000 A 
ATOM     11  C   UNL     1       3.270   4.324  17.488  0.00  0.00    +0.000 A 
BRANCH   6  12
ATOM     12  O   UNL     1       5.189   3.705  16.091  0.00  0.00    +0.000 OA
BRANCH  12  14
ATOM     13  C   UNL     1       6.149   3.944  13.909  0.00  0.00    +0.000 C 
ATOM     14  C   UNL     1       6.317   4.234  15.389  0.00  0.00    +0.000 C 
ENDBRANCH  12  14
ENDBRANCH   6  12
ENDBRANCH   1   9
BRANCH   4  15
ATOM     15  C   UNL     1       0.772  10.842  19.040  0.00  0.00    +0.000 C 
ATOM     16  O   UNL     1       1.234  11.839  19.581  0.00  0.00    +0.000 OA
ATOM     17  N   UNL     1      -0.351  10.863  18.245  0.00  0.00    +0.000 N 
ATOM     18  H   UNL     1      -0.655   9.980  17.848  0.00  0.00    +0.000 HD
BRANCH  17  19
ATOM     19  C   UNL     1      -1.097  12.071  17.990  0.00  0.00    +0.000 C 
BRANCH  19  20
ATOM     20  C   UNL     1      -2.580  11.829  18.076  0.00  0.00    +0.000 A 
ATOM     21  C   UNL     1      -3.302  12.197  19.222  0.00  0.00    +0.000 A 
ATOM     22  C   UNL     1      -4.679  11.966  19.297  0.00  0.00    +0.000 A 
ATOM     23  C   UNL     1      -5.339  11.359  18.230  0.00  0.00    +0.000 A 
ATOM     24 CL   UNL     1      -7.032  11.072  18.327  0.00  0.00    +0.000 Cl
ATOM     25  C   UNL     1      -4.635  10.984  17.088  0.00  0.00    +0.000 A 
ATOM     26  C   UNL     1      -3.260  11.214  17.013  0.00  0.00    +0.000 A 
ENDBRANCH  19  20
ENDBRANCH  17  19
ENDBRANCH   4  15
BRANCH   3  27
ATOM     27  C   UNL     1       0.859   9.061  21.742  0.00  0.00    +0.000 C 
BRANCH  27  28
ATOM     28  O   UNL     1       1.901   9.243  22.702  0.00  0.00    +0.000 OA
ATOM     29  H   UNL     1       2.564   8.559  22.490  0.00  0.00    +0.000 HD
ENDBRANCH  27  28
ENDBRANCH   3  27
TORSDOF 8
ENDMDL
MODEL 7
REMARK VINA RESULT:      -7.3      0.967      1.481
REMARK  Name = 
REMARK  9 active torsions:
REMARK  status: ('A' for Active; 'I' for Inactive)
REMARK    1  A    between atoms: C_1  and  C_2
REMARK    2  A    between atoms: C_2  and  O_3
REMARK    3  A    between atoms: O_3  and  C_4
REMARK    4  A    between atoms: C_7  and  N_8
REMARK    5  A    between atoms: C_10  and  C_11
REMARK    6  A    between atoms: C_11  and  O_12
REMARK    7  A    between atoms: C_13  and  C_14
REMARK    8  A    between atoms: N_16  and  C_17
REMARK    9  A    between atoms: C_17  and  C_18
REMARK                            x       y       z     vdW  Elec       q    Type
REMARK                         _______ _______ _______ _____ _____    ______ ____
ROOT
ATOM      1  N   UNL     1       8.159   8.844  18.156  0.00  0.00    +0.000 N 
ATOM      2  N   UNL     1       8.691   7.773  18.807  0.00  0.00    +0.000 NA
ATOM      3  C   UNL     1       7.862   6.779  18.452  0.00  0.00    +0.000 A 
ATOM      4  C   UNL     1       6.891   7.264  17.545  0.00  0.00    +0.000 A 
ATOM      5  N   UNL     1       7.081   8.584  17.362  0.00  0.00    +0.000 NA
ENDROOT
BRANCH   1   9
ATOM      6  C   UNL     1       9.759  12.740  18.572  0.00  0.00    +0.000 A 
ATOM      7  C   UNL     1       8.741  12.493  17.647  0.00  0.00    +0.000 A 
ATOM      8  C   UNL     1       8.205  11.207  17.500  0.00  0.00    +0.000 A 
ATOM      9  C   UNL     1       8.696  10.154  18.282  0.00  0.00    +0.000 A 
ATOM     10  C   UNL     1       9.737  10.397  19.188  0.00  0.00    +0.000 A 
ATOM     11  C   UNL     1      10.269  11.683  19.326  0.00  0.00    +0.000 A 
BRANCH   6  12
ATOM     12  O   UNL     1      10.205  14.035  18.633  0.00  0.00    +0.000 OA
BRANCH  12  14
ATOM     13  C   UNL     1      11.570  14.714  16.785  0.00  0.00    +0.000 C 
ATOM     14  C   UNL     1      11.560  14.244  18.229  0.00  0.00    +0.000 C 
ENDBRANCH  12  14
ENDBRANCH   6  12
ENDBRANCH   1   9
BRANCH   4  15
ATOM     15  C   UNL     1       5.838   6.499  16.872  0.00  0.00    +0.000 C 
ATOM     16  O   UNL     1       5.688   6.522  15.657  0.00  0.00    +0.000 OA
ATOM     17  N   UNL     1       5.028   5.781  17.722  0.00  0.00    +0.000 N 
ATOM     18  H   UNL     1       5.235   5.835  18.715  0.00  0.00    +0.000 HD
BRANCH  17  19
ATOM     19  C   UNL     1       3.913   4.998  17.252  0.00  0.00    +0.000 C 
BRANCH  19  20
ATOM     20  C   UNL     1       3.197   4.323  18.393  0.00  0.00    +0.000 A 
ATOM     21  C   UNL     1       1.821   4.519  18.593  0.00  0.00    +0.000 A 
ATOM     22  C   UNL     1       1.164   3.893  19.655  0.00  0.00    +0.000 A 
ATOM     23  C   UNL     1       1.879   3.074  20.527  0.00  0.00    +0.000 A 
ATOM     24 CL   UNL     1       1.068   2.308  21.837  0.00  0.00    +0.000 Cl
ATOM     25  C   UNL     1       3.245   2.874  20.345  0.00  0.00    +0.000 A 
ATOM     26  C   UNL     1       3.903   3.500  19.283  0.00  0.00    +0.000 A 
ENDBRANCH  19  20
ENDBRANCH  17  19
ENDBRANCH   4  15
BRANCH   3  27
ATOM     27  C   UNL     1       8.035   5.390  18.974  0.00  0.00    +0.000 C 
BRANCH  27  28
ATOM     28  O   UNL     1       7.828   4.401  17.963  0.00  0.00    +0.000 OA
ATOM     29  H   UNL     1       8.278   4.751  17.170  0.00  0.00    +0.000 HD
ENDBRANCH  27  28
ENDBRANCH   3  27
TORSDOF 8
ENDMDL
MODEL 8
REMARK VINA RESULT:      -7.3      6.387      9.005
REMARK  Name = 
REMARK  9 active torsions:
REMARK  status: ('A' for Active; 'I' for Inactive)
REMARK    1  A    between atoms: C_1  and  C_2
REMARK    2  A    between atoms: C_2  and  O_3
REMARK    3  A    between atoms: O_3  and  C_4
REMARK    4  A    between atoms: C_7  and  N_8
REMARK    5  A    between atoms: C_10  and  C_11
REMARK    6  A    between atoms: C_11  and  O_12
REMARK    7  A    between atoms: C_13  and  C_14
REMARK    8  A    between atoms: N_16  and  C_17
REMARK    9  A    between atoms: C_17  and  C_18
REMARK                            x       y       z     vdW  Elec       q    Type
REMARK                         _______ _______ _______ _____ _____    ______ ____
ROOT
ATOM      1  N   UNL     1       2.269   7.648  18.962  0.00  0.00    +0.000 N 
ATOM      2  N   UNL     1       1.959   7.400  20.264  0.00  0.00    +0.000 NA
ATOM      3  C   UNL     1       1.312   8.519  20.625  0.00  0.00    +0.000 A 
ATOM      4  C   UNL     1       1.193   9.385  19.512  0.00  0.00    +0.000 A 
ATOM      5  N   UNL     1       1.809   8.827  18.454  0.00  0.00    +0.000 NA
ENDROOT
BRANCH   1   9
ATOM      6  C   UNL     1       4.491   4.897  16.635  0.00  0.00    +0.000 A 
ATOM      7  C   UNL     1       4.840   6.251  16.648  0.00  0.00    +0.000 A 
ATOM      8  C   UNL     1       4.110   7.170  17.414  0.00  0.00    +0.000 A 
ATOM      9  C   UNL     1       3.016   6.734  18.170  0.00  0.00    +0.000 A 
ATOM     10  C   UNL     1       2.649   5.382  18.134  0.00  0.00    +0.000 A 
ATOM     11  C   UNL     1       3.380   4.471  17.364  0.00  0.00    +0.000 A 
BRANCH   6  12
ATOM     12  O   UNL     1       5.276   4.089  15.855  0.00  0.00    +0.000 OA
BRANCH  12  14
ATOM     13  C   UNL     1       6.021   3.804  13.596  0.00  0.00    +0.000 C 
ATOM     14  C   UNL     1       5.970   4.741  14.789  0.00  0.00    +0.000 C 
ENDBRANCH  12  14
ENDBRANCH   6  12
ENDBRANCH   1   9
BRANCH   4  15
ATOM     15  C   UNL     1       0.510  10.680  19.458  0.00  0.00    +0.000 C 
ATOM     16  O   UNL     1       0.513  11.461  20.402  0.00  0.00    +0.000 OA
ATOM     17  N   UNL     1      -0.147  10.925  18.274  0.00  0.00    +0.000 N 
ATOM     18  H   UNL     1      -0.091  10.208  17.557  0.00  0.00    +0.000 HD
BRANCH  17  19
ATOM     19  C   UNL     1      -0.908  12.128  18.045  0.00  0.00    +0.000 C 
BRANCH  19  20
ATOM     20  C   UNL     1      -2.389  11.853  18.073  0.00  0.00    +0.000 A 
ATOM     21  C   UNL     1      -3.030  11.257  16.976  0.00  0.00    +0.000 A 
ATOM     22  C   UNL     1      -4.404  11.009  17.007  0.00  0.00    +0.000 A 
ATOM     23  C   UNL     1      -5.147  11.361  18.132  0.00  0.00    +0.000 A 
ATOM     24 CL   UNL     1      -6.840  11.058  18.167  0.00  0.00    +0.000 Cl
ATOM     25  C   UNL     1      -4.527  11.957  19.228  0.00  0.00    +0.000 A 
ATOM     26  C   UNL     1      -3.152  12.206  19.196  0.00  0.00    +0.000 A 
ENDBRANCH  19  20
ENDBRANCH  17  19
ENDBRANCH   4  15
BRANCH   3  27
ATOM     27  C   UNL     1       0.808   8.720  22.017  0.00  0.00    +0.000 C 
BRANCH  27  28
ATOM     28  O   UNL     1       1.545   9.721  22.721  0.00  0.00    +0.000 OA
ATOM     29  H   UNL     1       2.368   9.278  23.003  0.00  0.00    +0.000 HD
ENDBRANCH  27  28
ENDBRANCH   3  27
TORSDOF 8
ENDMDL
MODEL 9
REMARK VINA RESULT:      -7.2      0.524      1.074
REMARK  Name = 
REMARK  9 active torsions:
REMARK  status: ('A' for Active; 'I' for Inactive)
REMARK    1  A    between atoms: C_1  and  C_2
REMARK    2  A    between atoms: C_2  and  O_3
REMARK    3  A    between atoms: O_3  and  C_4
REMARK    4  A    between atoms: C_7  and  N_8
REMARK    5  A    between atoms: C_10  and  C_11
REMARK    6  A    between atoms: C_11  and  O_12
REMARK    7  A    between atoms: C_13  and  C_14
REMARK    8  A    between atoms: N_16  and  C_17
REMARK    9  A    between atoms: C_17  and  C_18
REMARK                            x       y       z     vdW  Elec       q    Type
REMARK                         _______ _______ _______ _____ _____    ______ ____
ROOT
ATOM      1  N   UNL     1       8.299   9.140  18.155  0.00  0.00    +0.000 N 
ATOM      2  N   UNL     1       8.814   8.065  18.812  0.00  0.00    +0.000 NA
ATOM      3  C   UNL     1       7.960   7.085  18.475  0.00  0.00    +0.000 A 
ATOM      4  C   UNL     1       6.990   7.582  17.574  0.00  0.00    +0.000 A 
ATOM      5  N   UNL     1       7.207   8.896  17.375  0.00  0.00    +0.000 NA
ENDROOT
BRANCH   1   9
ATOM      6  C   UNL     1       9.978  13.016  18.433  0.00  0.00    +0.000 A 
ATOM      7  C   UNL     1      10.538  11.954  19.148  0.00  0.00    +0.000 A 
ATOM      8  C   UNL     1       9.989  10.667  19.065  0.00  0.00    +0.000 A 
ATOM      9  C   UNL     1       8.865  10.440  18.262  0.00  0.00    +0.000 A 
ATOM     10  C   UNL     1       8.286  11.511  17.568  0.00  0.00    +0.000 A 
ATOM     11  C   UNL     1       8.838  12.793  17.660  0.00  0.00    +0.000 A 
BRANCH   6  12
ATOM     12  O   UNL     1      10.598  14.229  18.586  0.00  0.00    +0.000 OA
BRANCH  12  14
ATOM     13  C   UNL     1       9.495  16.346  18.788  0.00  0.00    +0.000 C 
ATOM     14  C   UNL     1       9.995  15.119  19.529  0.00  0.00    +0.000 C 
ENDBRANCH  12  14
ENDBRANCH   6  12
ENDBRANCH   1   9
BRANCH   4  15
ATOM     15  C   UNL     1       5.914   6.834  16.920  0.00  0.00    +0.000 C 
ATOM     16  O   UNL     1       6.046   6.334  15.809  0.00  0.00    +0.000 OA
ATOM     17  N   UNL     1       4.748   6.766  17.648  0.00  0.00    +0.000 N 
ATOM     18  H   UNL     1       4.742   7.220  18.556  0.00  0.00    +0.000 HD
BRANCH  17  19
ATOM     19  C   UNL     1       3.564   6.106  17.155  0.00  0.00    +0.000 C 
BRANCH  19  20
ATOM     20  C   UNL     1       2.938   5.239  18.215  0.00  0.00    +0.000 A 
ATOM     21  C   UNL     1       1.975   4.276  17.878  0.00  0.00    +0.000 A 
ATOM     22  C   UNL     1       1.396   3.477  18.868  0.00  0.00    +0.000 A 
ATOM     23  C   UNL     1       1.770   3.642  20.200  0.00  0.00    +0.000 A 
ATOM     24 CL   UNL     1       1.052   2.661  21.416  0.00  0.00    +0.000 Cl
ATOM     25  C   UNL     1       2.721   4.598  20.551  0.00  0.00    +0.000 A 
ATOM     26  C   UNL     1       3.300   5.397  19.562  0.00  0.00    +0.000 A 
ENDBRANCH  19  20
ENDBRANCH  17  19
ENDBRANCH   4  15
BRANCH   3  27
ATOM     27  C   UNL     1       8.109   5.698  19.009  0.00  0.00    +0.000 C 
BRANCH  27  28
ATOM     28  O   UNL     1       7.501   5.544  20.293  0.00  0.00    +0.000 OA
ATOM     29  H   UNL     1       7.708   6.370  20.772  0.00  0.00    +0.000 HD
ENDBRANCH  27  28
ENDBRANCH   3  27
TORSDOF 8
ENDMDL
