MODEL 1
REMARK VINA RESULT:      -6.7      0.000      0.000
REMARK  Name = 
REMARK  11 active torsions:
REMARK  status: ('A' for Active; 'I' for Inactive)
REMARK    1  A    between atoms: C_1  and  C_2
REMARK    2  A    between atoms: C_2  and  O_3
REMARK    3  A    between atoms: O_3  and  N_4
REMARK    4  A    between atoms: C_5  and  C_6
REMARK    5  A    between atoms: C_6  and  O_7
REMARK    6  A    between atoms: O_7  and  C_8
REMARK    7  A    between atoms: C_11  and  O_12
REMARK    8  A    between atoms: O_12  and  C_13
REMARK    9  A    between atoms: C_16  and  O_17
REMARK   10  A    between atoms: O_17  and  C_18
REMARK   11  A    between atoms: C_18  and  C_19
REMARK                            x       y       z     vdW  Elec       q    Type
REMARK                         _______ _______ _______ _____ _____    ______ ____
ROOT
ATOM      1  C   UNL     1       7.902   7.198  18.258  0.00  0.00    +0.000 A 
ATOM      2  C   UNL     1       7.107   7.440  17.128  0.00  0.00    +0.000 A 
ATOM      3  C   UNL     1       6.290   6.451  16.603  0.00  0.00    +0.000 A 
ATOM      4  C   UNL     1       6.269   5.190  17.161  0.00  0.00    +0.000 A 
ATOM      5  C   UNL     1       7.050   4.943  18.307  0.00  0.00    +0.000 A 
ATOM      6  C   UNL     1       7.874   5.926  18.836  0.00  0.00    +0.000 A 
ENDROOT
BRANCH   1   7
ATOM      7  O   UNL     1       8.684   8.181  18.809  0.00  0.00    +0.000 OA
BRANCH   7   8
ATOM      8  C   UNL     1       8.501   9.461  18.185  0.00  0.00    +0.000 C 
BRANCH   8  10
ATOM      9  N   UNL     1       9.367  10.471  20.208  0.00  0.00    +0.000 NA
ATOM     10  C   UNL     1       9.256  10.522  18.927  0.00  0.00    +0.000 C 
BRANCH   9  11
ATOM     11  O   UNL     1      10.067  11.599  20.657  0.00  0.00    +0.000 OA
BRANCH  11  13
ATOM     12  C   UNL     1      11.347  13.487  19.934  0.00  0.00    +0.000 C 
ATOM     13  C   UNL     1      10.830  12.113  19.562  0.00  0.00    +0.000 C 
ENDBRANCH  11  13
ENDBRANCH   9  11
ENDBRANCH   8  10
ENDBRANCH   7   8
ENDBRANCH   1   7
BRANCH   4  14
ATOM     14  O   UNL     1       5.433   4.272  16.559  0.00  0.00    +0.000 OA
BRANCH  14  15
ATOM     15  C   UNL     1       4.262   3.917  17.174  0.00  0.00    +0.000 A 
ATOM     16  C   UNL     1       4.107   2.571  17.529  0.00  0.00    +0.000 A 
ATOM     17  C   UNL     1       2.932   2.155  18.162  0.00  0.00    +0.000 A 
ATOM     18  C   UNL     1       1.926   3.069  18.482  0.00  0.00    +0.000 A 
ATOM     19  C   UNL     1       2.081   4.408  18.111  0.00  0.00    +0.000 A 
ATOM     20  C   UNL     1       3.258   4.830  17.496  0.00  0.00    +0.000 A 
BRANCH  18  21
ATOM     21  O   UNL     1       0.830   2.555  19.116  0.00  0.00    +0.000 OA
BRANCH  21  22
ATOM     22  C   UNL     1       0.492   3.170  20.363  0.00  0.00    +0.000 C 
ATOM     23  C   UNL     1       1.517   2.758  21.406  0.00  0.00    +0.000 C 
ENDBRANCH  21  22
ENDBRANCH  18  21
ENDBRANCH  14  15
ENDBRANCH   4  14
TORSDOF 9
ENDMDL
MODEL 2
REMARK VINA RESULT:      -6.6      0.827      1.301
REMARK  Name = 
REMARK  11 active torsions:
REMARK  status: ('A' for Active; 'I' for Inactive)
REMARK    1  A    between atoms: C_1  and  C_2
REMARK    2  A    between atoms: C_2  and  O_3
REMARK    3  A    between atoms: O_3  and  N_4
REMARK    4  A    between atoms: C_5  and  C_6
REMARK    5  A    between atoms: C_6  and  O_7
REMARK    6  A    between atoms: O_7  and  C_8
REMARK    7  A    between atoms: C_11  and  O_12
REMARK    8  A    between atoms: O_12  and  C_13
REMARK    9  A    between atoms: C_16  and  O_17
REMARK   10  A    between atoms: O_17  and  C_18
REMARK   11  A    between atoms: C_18  and  C_19
REMARK                            x       y       z     vdW  Elec       q    Type
REMARK                         _______ _______ _______ _____ _____    ______ ____
ROOT
ATOM      1  C   UNL     1       7.797   7.098  18.120  0.00  0.00    +0.000 A 
ATOM      2  C   UNL     1       6.981   7.361  17.010  0.00  0.00    +0.000 A 
ATOM      3  C   UNL     1       6.132   6.391  16.501  0.00  0.00    +0.000 A 
ATOM      4  C   UNL     1       6.100   5.128  17.054  0.00  0.00    +0.000 A 
ATOM      5  C   UNL     1       6.902   4.860  18.179  0.00  0.00    +0.000 A 
ATOM      6  C   UNL     1       7.757   5.824  18.694  0.00  0.00    +0.000 A 
ENDROOT
BRANCH   1   7
ATOM      7  O   UNL     1       8.610   8.063  18.657  0.00  0.00    +0.000 OA
BRANCH   7   8
ATOM      8  C   UNL     1       8.378   9.367  18.104  0.00  0.00    +0.000 C 
BRANCH   8  10
ATOM      9  N   UNL     1       9.535  11.483  18.306  0.00  0.00    +0.000 NA
ATOM     10  C   UNL     1       9.120  10.411  18.882  0.00  0.00    +0.000 C 
BRANCH   9  11
ATOM     11  O   UNL     1      10.240  12.263  19.233  0.00  0.00    +0.000 OA
BRANCH  11  13
ATOM     12  C   UNL     1       9.884  13.157  21.423  0.00  0.00    +0.000 C 
ATOM     13  C   UNL     1       9.289  12.956  20.045  0.00  0.00    +0.000 C 
ENDBRANCH  11  13
ENDBRANCH   9  11
ENDBRANCH   8  10
ENDBRANCH   7   8
ENDBRANCH   1   7
BRANCH   4  14
ATOM     14  O   UNL     1       5.232   4.230  16.467  0.00  0.00    +0.000 OA
BRANCH  14  15
ATOM     15  C   UNL     1       4.146   3.778  17.170  0.00  0.00    +0.000 A 
ATOM     16  C   UNL     1       3.203   4.732  17.576  0.00  0.00    +0.000 A 
ATOM     17  C   UNL     1       2.076   4.325  18.294  0.00  0.00    +0.000 A 
ATOM     18  C   UNL     1       1.853   2.976  18.580  0.00  0.00    +0.000 A 
ATOM     19  C   UNL     1       2.806   2.032  18.185  0.00  0.00    +0.000 A 
ATOM     20  C   UNL     1       3.923   2.431  17.453  0.00  0.00    +0.000 A 
BRANCH  18  21
ATOM     21  O   UNL     1       0.709   2.691  19.271  0.00  0.00    +0.000 OA
BRANCH  21  22
ATOM     22  C   UNL     1       0.611   3.278  20.571  0.00  0.00    +0.000 C 
ATOM     23  C   UNL     1       1.615   2.605  21.490  0.00  0.00    +0.000 C 
ENDBRANCH  21  22
ENDBRANCH  18  21
ENDBRANCH  14  15
ENDBRANCH   4  14
TORSDOF 9
ENDMDL
MODEL 3
REMARK VINA RESULT:      -6.4      6.840      9.474
REMARK  Name = 
REMARK  11 active torsions:
REMARK  status: ('A' for Active; 'I' for Inactive)
REMARK    1  A    between atoms: C_1  and  C_2
REMARK    2  A    between atoms: C_2  and  O_3
REMARK    3  A    between atoms: O_3  and  N_4
REMARK    4  A    between atoms: C_5  and  C_6
REMARK    5  A    between atoms: C_6  and  O_7
REMARK    6  A    between atoms: O_7  and  C_8
REMARK    7  A    between atoms: C_11  and  O_12
REMARK    8  A    between atoms: O_12  and  C_13
REMARK    9  A    between atoms: C_16  and  O_17
REMARK   10  A    between atoms: O_17  and  C_18
REMARK   11  A    between atoms: C_18  and  C_19
REMARK                            x       y       z     vdW  Elec       q    Type
REMARK                         _______ _______ _______ _____ _____    ______ ____
ROOT
ATOM      1  C   UNL     1       2.326   7.538  19.258  0.00  0.00    +0.000 A 
ATOM      2  C   UNL     1       1.594   8.118  20.304  0.00  0.00    +0.000 A 
ATOM      3  C   UNL     1       0.849   9.270  20.104  0.00  0.00    +0.000 A 
ATOM      4  C   UNL     1       0.843   9.895  18.875  0.00  0.00    +0.000 A 
ATOM      5  C   UNL     1       1.560   9.311  17.813  0.00  0.00    +0.000 A 
ATOM      6  C   UNL     1       2.311   8.160  18.006  0.00  0.00    +0.000 A 
ENDROOT
BRANCH   1   7
ATOM      7  O   UNL     1       3.033   6.377  19.435  0.00  0.00    +0.000 OA
BRANCH   7   8
ATOM      8  C   UNL     1       3.849   6.038  18.304  0.00  0.00    +0.000 C 
BRANCH   8  10
ATOM      9  N   UNL     1       2.279   4.392  17.475  0.00  0.00    +0.000 NA
ATOM     10  C   UNL     1       3.495   4.677  17.786  0.00  0.00    +0.000 C 
BRANCH   9  11
ATOM     11  O   UNL     1       2.207   3.051  17.073  0.00  0.00    +0.000 OA
BRANCH  11  13
ATOM     12  C   UNL     1       0.808   2.481  18.928  0.00  0.00    +0.000 C 
ATOM     13  C   UNL     1       2.139   2.238  18.246  0.00  0.00    +0.000 C 
ENDBRANCH  11  13
ENDBRANCH   9  11
ENDBRANCH   8  10
ENDBRANCH   7   8
ENDBRANCH   1   7
BRANCH   4  14
ATOM     14  O   UNL     1       0.082  11.043  18.780  0.00  0.00    +0.000 OA
BRANCH  14  15
ATOM     15  C   UNL     1      -1.240  10.952  18.435  0.00  0.00    +0.000 A 
ATOM     16  C   UNL     1      -2.119  11.880  19.009  0.00  0.00    +0.000 A 
ATOM     17  C   UNL     1      -3.478  11.833  18.689  0.00  0.00    +0.000 A 
ATOM     18  C   UNL     1      -3.969  10.900  17.773  0.00  0.00    +0.000 A 
ATOM     19  C   UNL     1      -3.089   9.967  17.216  0.00  0.00    +0.000 A 
ATOM     20  C   UNL     1      -1.730  10.021  17.519  0.00  0.00    +0.000 A 
BRANCH  18  21
ATOM     21  O   UNL     1      -5.311  10.957  17.521  0.00  0.00    +0.000 OA
BRANCH  21  22
ATOM     22  C   UNL     1      -6.161  10.781  18.657  0.00  0.00    +0.000 C 
ATOM     23  C   UNL     1      -7.196  11.892  18.673  0.00  0.00    +0.000 C 
ENDBRANCH  21  22
ENDBRANCH  18  21
ENDBRANCH  14  15
ENDBRANCH   4  14
TORSDOF 9
ENDMDL
MODEL 4
REMARK VINA RESULT:      -6.4      4.849      7.703
REMARK  Name = 
REMARK  11 active torsions:
REMARK  status: ('A' for Active; 'I' for Inactive)
REMARK    1  A    between atoms: C_1  and  C_2
REMARK    2  A    between atoms: C_2  and  O_3
REMARK    3  A    between atoms: O_3  and  N_4
REMARK    4  A    between atoms: C_5  and  C_6
REMARK    5  A    between atoms: C_6  and  O_7
REMARK    6  A    between atoms: O_7  and  C_8
REMARK    7  A    between atoms: C_11  and  O_12
REMARK    8  A    between atoms: O_12  and  C_13
REMARK    9  A    between atoms: C_16  and  O_17
REMARK   10  A    between atoms: O_17  and  C_18
REMARK   11  A    between atoms: C_18  and  C_19
REMARK                            x       y       z     vdW  Elec       q    Type
REMARK                         _______ _______ _______ _____ _____    ______ ____
ROOT
ATOM      1  C   UNL     1       1.698   6.575  20.617  0.00  0.00    +0.000 A 
ATOM      2  C   UNL     1       1.685   5.211  20.941  0.00  0.00    +0.000 A 
ATOM      3  C   UNL     1       2.546   4.320  20.319  0.00  0.00    +0.000 A 
ATOM      4  C   UNL     1       3.411   4.752  19.336  0.00  0.00    +0.000 A 
ATOM      5  C   UNL     1       3.444   6.122  19.016  0.00  0.00    +0.000 A 
ATOM      6  C   UNL     1       2.584   7.021  19.631  0.00  0.00    +0.000 A 
ENDROOT
BRANCH   1   7
ATOM      7  O   UNL     1       0.880   7.472  21.254  0.00  0.00    +0.000 OA
BRANCH   7   8
ATOM      8  C   UNL     1       0.788   8.733  20.573  0.00  0.00    +0.000 C 
BRANCH   8  10
ATOM      9  N   UNL     1       0.422   9.727  22.750  0.00  0.00    +0.000 NA
ATOM     10  C   UNL     1       0.221   9.783  21.481  0.00  0.00    +0.000 C 
BRANCH   9  11
ATOM     11  O   UNL     1      -0.253  10.786  23.372  0.00  0.00    +0.000 OA
BRANCH  11  13
ATOM     12  C   UNL     1      -2.301  12.002  23.144  0.00  0.00    +0.000 C 
ATOM     13  C   UNL     1      -1.132  11.378  22.411  0.00  0.00    +0.000 C 
ENDBRANCH  11  13
ENDBRANCH   9  11
ENDBRANCH   8  10
ENDBRANCH   7   8
ENDBRANCH   1   7
BRANCH   4  14
ATOM     14  O   UNL     1       4.217   3.786  18.768  0.00  0.00    +0.000 OA
BRANCH  14  15
ATOM     15  C   UNL     1       5.139   4.145  17.821  0.00  0.00    +0.000 A 
ATOM     16  C   UNL     1       4.748   4.052  16.478  0.00  0.00    +0.000 A 
ATOM     17  C   UNL     1       5.649   4.408  15.471  0.00  0.00    +0.000 A 
ATOM     18  C   UNL     1       6.921   4.893  15.783  0.00  0.00    +0.000 A 
ATOM     19  C   UNL     1       7.310   4.968  17.125  0.00  0.00    +0.000 A 
ATOM     20  C   UNL     1       6.408   4.632  18.132  0.00  0.00    +0.000 A 
BRANCH  18  21
ATOM     21  O   UNL     1       7.712   5.228  14.720  0.00  0.00    +0.000 OA
BRANCH  21  22
ATOM     22  C   UNL     1       7.263   4.762  13.445  0.00  0.00    +0.000 C 
ATOM     23  C   UNL     1       7.985   5.536  12.357  0.00  0.00    +0.000 C 
ENDBRANCH  21  22
ENDBRANCH  18  21
ENDBRANCH  14  15
ENDBRANCH   4  14
TORSDOF 9
ENDMDL
MODEL 5
REMARK VINA RESULT:      -6.3      4.936      7.731
REMARK  Name = 
REMARK  11 active torsions:
REMARK  status: ('A' for Active; 'I' for Inactive)
REMARK    1  A    between atoms: C_1  and  C_2
REMARK    2  A    between atoms: C_2  and  O_3
REMARK    3  A    between atoms: O_3  and  N_4
REMARK    4  A    between atoms: C_5  and  C_6
REMARK    5  A    between atoms: C_6  and  O_7
REMARK    6  A    between atoms: O_7  and  C_8
REMARK    7  A    between atoms: C_11  and  O_12
REMARK    8  A    between atoms: O_12  and  C_13
REMARK    9  A    between atoms: C_16  and  O_17
REMARK   10  A    between atoms: O_17  and  C_18
REMARK   11  A    between atoms: C_18  and  C_19
REMARK                            x       y       z     vdW  Elec       q    Type
REMARK                         _______ _______ _______ _____ _____    ______ ____
ROOT
ATOM      1  C   UNL     1       5.577   4.381  16.865  0.00  0.00    +0.000 A 
ATOM      2  C   UNL     1       5.969   5.229  17.911  0.00  0.00    +0.000 A 
ATOM      3  C   UNL     1       5.059   5.651  18.868  0.00  0.00    +0.000 A 
ATOM      4  C   UNL     1       3.735   5.276  18.790  0.00  0.00    +0.000 A 
ATOM      5  C   UNL     1       3.335   4.410  17.754  0.00  0.00    +0.000 A 
ATOM      6  C   UNL     1       4.239   3.985  16.790  0.00  0.00    +0.000 A 
ENDROOT
BRANCH   1   7
ATOM      7  O   UNL     1       6.477   3.924  15.937  0.00  0.00    +0.000 OA
BRANCH   7   8
ATOM      8  C   UNL     1       6.498   4.714  14.738  0.00  0.00    +0.000 C 
BRANCH   8  10
ATOM      9  N   UNL     1       6.583   3.558  12.613  0.00  0.00    +0.000 NA
ATOM     10  C   UNL     1       5.868   3.966  13.602  0.00  0.00    +0.000 C 
BRANCH   9  11
ATOM     11  O   UNL     1       5.753   2.940  11.667  0.00  0.00    +0.000 OA
BRANCH  11  13
ATOM     12  C   UNL     1       3.595   3.227  10.675  0.00  0.00    +0.000 C 
ATOM     13  C   UNL     1       4.401   3.307  11.954  0.00  0.00    +0.000 C 
ENDBRANCH  11  13
ENDBRANCH   9  11
ENDBRANCH   8  10
ENDBRANCH   7   8
ENDBRANCH   1   7
BRANCH   4  14
ATOM     14  O   UNL     1       2.906   5.759  19.782  0.00  0.00    +0.000 OA
BRANCH  14  15
ATOM     15  C   UNL     1       2.315   6.986  19.633  0.00  0.00    +0.000 A 
ATOM     16  C   UNL     1       2.381   7.580  18.365  0.00  0.00    +0.000 A 
ATOM     17  C   UNL     1       1.792   8.830  18.157  0.00  0.00    +0.000 A 
ATOM     18  C   UNL     1       1.104   9.480  19.184  0.00  0.00    +0.000 A 
ATOM     19  C   UNL     1       1.056   8.889  20.451  0.00  0.00    +0.000 A 
ATOM     20  C   UNL     1       1.626   7.634  20.657  0.00  0.00    +0.000 A 
BRANCH  18  21
ATOM     21  O   UNL     1       0.552  10.689  18.864  0.00  0.00    +0.000 OA
BRANCH  21  22
ATOM     22  C   UNL     1      -0.872  10.765  18.967  0.00  0.00    +0.000 C 
ATOM     23  C   UNL     1      -1.371  11.880  18.065  0.00  0.00    +0.000 C 
ENDBRANCH  21  22
ENDBRANCH  18  21
ENDBRANCH  14  15
ENDBRANCH   4  14
TORSDOF 9
ENDMDL
MODEL 6
REMARK VINA RESULT:      -6.2      4.432      6.624
REMARK  Name = 
REMARK  11 active torsions:
REMARK  status: ('A' for Active; 'I' for Inactive)
REMARK    1  A    between atoms: C_1  and  C_2
REMARK    2  A    between atoms: C_2  and  O_3
REMARK    3  A    between atoms: O_3  and  N_4
REMARK    4  A    between atoms: C_5  and  C_6
REMARK    5  A    between atoms: C_6  and  O_7
REMARK    6  A    between atoms: O_7  and  C_8
REMARK    7  A    between atoms: C_11  and  O_12
REMARK    8  A    between atoms: O_12  and  C_13
REMARK    9  A    between atoms: C_16  and  O_17
REMARK   10  A    between atoms: O_17  and  C_18
REMARK   11  A    between atoms: C_18  and  C_19
REMARK                            x       y       z     vdW  Elec       q    Type
REMARK                         _______ _______ _______ _____ _____    ______ ____
ROOT
ATOM      1  C   UNL     1       4.405   3.951  17.593  0.00  0.00    +0.000 A 
ATOM      2  C   UNL     1       4.957   4.597  18.708  0.00  0.00    +0.000 A 
ATOM      3  C   UNL     1       4.184   5.419  19.514  0.00  0.00    +0.000 A 
ATOM      4  C   UNL     1       2.859   5.651  19.211  0.00  0.00    +0.000 A 
ATOM      5  C   UNL     1       2.291   4.993  18.103  0.00  0.00    +0.000 A 
ATOM      6  C   UNL     1       3.058   4.170  17.290  0.00  0.00    +0.000 A 
ENDROOT
BRANCH   1   7
ATOM      7  O   UNL     1       5.150   3.104  16.813  0.00  0.00    +0.000 OA
BRANCH   7   8
ATOM      8  C   UNL     1       5.774   3.764  15.702  0.00  0.00    +0.000 C 
BRANCH   8  10
ATOM      9  N   UNL     1       6.652   6.017  15.817  0.00  0.00    +0.000 NA
ATOM     10  C   UNL     1       6.758   4.788  16.181  0.00  0.00    +0.000 C 
BRANCH   9  11
ATOM     11  O   UNL     1       7.718   6.752  16.354  0.00  0.00    +0.000 OA
BRANCH  11  13
ATOM     12  C   UNL     1       8.212   8.524  17.884  0.00  0.00    +0.000 C 
ATOM     13  C   UNL     1       7.257   7.400  17.542  0.00  0.00    +0.000 C 
ENDBRANCH  11  13
ENDBRANCH   9  11
ENDBRANCH   8  10
ENDBRANCH   7   8
ENDBRANCH   1   7
BRANCH   4  14
ATOM     14  O   UNL     1       2.179   6.495  20.065  0.00  0.00    +0.000 OA
BRANCH  14  15
ATOM     15  C   UNL     1       1.852   7.759  19.651  0.00  0.00    +0.000 A 
ATOM     16  C   UNL     1       1.201   8.589  20.573  0.00  0.00    +0.000 A 
ATOM     17  C   UNL     1       0.848   9.889  20.202  0.00  0.00    +0.000 A 
ATOM     18  C   UNL     1       1.170  10.389  18.939  0.00  0.00    +0.000 A 
ATOM     19  C   UNL     1       1.806   9.550  18.018  0.00  0.00    +0.000 A 
ATOM     20  C   UNL     1       2.176   8.259  18.390  0.00  0.00    +0.000 A 
BRANCH  18  21
ATOM     21  O   UNL     1       0.793  11.679  18.691  0.00  0.00    +0.000 OA
BRANCH  21  22
ATOM     22  C   UNL     1       1.630  12.688  19.262  0.00  0.00    +0.000 C 
ATOM     23  C   UNL     1       1.254  14.033  18.665  0.00  0.00    +0.000 C 
ENDBRANCH  21  22
ENDBRANCH  18  21
ENDBRANCH  14  15
ENDBRANCH   4  14
TORSDOF 9
ENDMDL
MODEL 7
REMARK VINA RESULT:      -6.2      5.520      8.380
REMARK  Name = 
REMARK  11 active torsions:
REMARK  status: ('A' for Active; 'I' for Inactive)
REMARK    1  A    between atoms: C_1  and  C_2
REMARK    2  A    between atoms: C_2  and  O_3
REMARK    3  A    between atoms: O_3  and  N_4
REMARK    4  A    between atoms: C_5  and  C_6
REMARK    5  A    between atoms: C_6  and  O_7
REMARK    6  A    between atoms: O_7  and  C_8
REMARK    7  A    between atoms: C_11  and  O_12
REMARK    8  A    between atoms: O_12  and  C_13
REMARK    9  A    between atoms: C_16  and  O_17
REMARK   10  A    between atoms: O_17  and  C_18
REMARK   11  A    between atoms: C_18  and  C_19
REMARK                            x       y       z     vdW  Elec       q    Type
REMARK                         _______ _______ _______ _____ _____    ______ ____
ROOT
ATOM      1  C   UNL     1       1.102   9.293  19.702  0.00  0.00    +0.000 A 
ATOM      2  C   UNL     1       1.038   8.433  20.806  0.00  0.00    +0.000 A 
ATOM      3  C   UNL     1       1.675   7.201  20.792  0.00  0.00    +0.000 A 
ATOM      4  C   UNL     1       2.356   6.778  19.670  0.00  0.00    +0.000 A 
ATOM      5  C   UNL     1       2.442   7.643  18.562  0.00  0.00    +0.000 A 
ATOM      6  C   UNL     1       1.804   8.876  18.567  0.00  0.00    +0.000 A 
ENDROOT
BRANCH   1   7
ATOM      7  O   UNL     1       0.510  10.530  19.720  0.00  0.00    +0.000 OA
BRANCH   7   8
ATOM      8  C   UNL     1       0.017  10.938  18.435  0.00  0.00    +0.000 C 
BRANCH   8  10
ATOM      9  N   UNL     1      -1.858  10.170  17.111  0.00  0.00    +0.000 NA
ATOM     10  C   UNL     1      -1.414  10.529  18.264  0.00  0.00    +0.000 C 
BRANCH   9  11
ATOM     11  O   UNL     1      -3.229   9.892  17.210  0.00  0.00    +0.000 OA
BRANCH  11  13
ATOM     12  C   UNL     1      -4.852  11.648  17.244  0.00  0.00    +0.000 C 
ATOM     13  C   UNL     1      -3.932  10.816  16.376  0.00  0.00    +0.000 C 
ENDBRANCH  11  13
ENDBRANCH   9  11
ENDBRANCH   8  10
ENDBRANCH   7   8
ENDBRANCH   1   7
BRANCH   4  14
ATOM     14  O   UNL     1       2.944   5.533  19.750  0.00  0.00    +0.000 OA
BRANCH  14  15
ATOM     15  C   UNL     1       3.814   5.130  18.770  0.00  0.00    +0.000 A 
ATOM     16  C   UNL     1       5.168   5.442  18.946  0.00  0.00    +0.000 A 
ATOM     17  C   UNL     1       6.097   5.052  17.978  0.00  0.00    +0.000 A 
ATOM     18  C   UNL     1       5.703   4.320  16.856  0.00  0.00    +0.000 A 
ATOM     19  C   UNL     1       4.347   4.026  16.679  0.00  0.00    +0.000 A 
ATOM     20  C   UNL     1       3.420   4.397  17.651  0.00  0.00    +0.000 A 
BRANCH  18  21
ATOM     21  O   UNL     1       6.698   3.977  15.985  0.00  0.00    +0.000 OA
BRANCH  21  22
ATOM     22  C   UNL     1       6.772   4.761  14.791  0.00  0.00    +0.000 C 
ATOM     23  C   UNL     1       6.245   3.937  13.630  0.00  0.00    +0.000 C 
ENDBRANCH  21  22
ENDBRANCH  18  21
ENDBRANCH  14  15
ENDBRANCH   4  14
TORSDOF 9
ENDMDL
MODEL 8
REMARK VINA RESULT:      -6.2      6.783      9.411
REMARK  Name = 
REMARK  11 active torsions:
REMARK  status: ('A' for Active; 'I' for Inactive)
REMARK    1  A    between atoms: C_1  and  C_2
REMARK    2  A    between atoms: C_2  and  O_3
REMARK    3  A    between atoms: O_3  and  N_4
REMARK    4  A    between atoms: C_5  and  C_6
REMARK    5  A    between atoms: C_6  and  O_7
REMARK    6  A    between atoms: O_7  and  C_8
REMARK    7  A    between atoms: C_11  and  O_12
REMARK    8  A    between atoms: O_12  and  C_13
REMARK    9  A    between atoms: C_16  and  O_17
REMARK   10  A    between atoms: O_17  and  C_18
REMARK   11  A    between atoms: C_18  and  C_19
REMARK                            x       y       z     vdW  Elec       q    Type
REMARK                         _______ _______ _______ _____ _____    ______ ____
ROOT
ATOM      1  C   UNL     1       2.238   7.356  19.656  0.00  0.00    +0.000 A 
ATOM      2  C   UNL     1       1.463   8.113  20.546  0.00  0.00    +0.000 A 
ATOM      3  C   UNL     1       0.866   9.298  20.145  0.00  0.00    +0.000 A 
ATOM      4  C   UNL     1       1.054   9.780  18.867  0.00  0.00    +0.000 A 
ATOM      5  C   UNL     1       1.816   9.018  17.960  0.00  0.00    +0.000 A 
ATOM      6  C   UNL     1       2.420   7.832  18.354  0.00  0.00    +0.000 A 
ENDROOT
BRANCH   1   7
ATOM      7  O   UNL     1       2.800   6.163  20.030  0.00  0.00    +0.000 OA
BRANCH   7   8
ATOM      8  C   UNL     1       1.857   5.259  20.626  0.00  0.00    +0.000 C 
BRANCH   8  10
ATOM      9  N   UNL     1       1.604   4.136  18.497  0.00  0.00    +0.000 NA
ATOM     10  C   UNL     1       1.688   4.036  19.777  0.00  0.00    +0.000 C 
BRANCH   9  11
ATOM     11  O   UNL     1       1.397   2.863  17.947  0.00  0.00    +0.000 OA
BRANCH  11  13
ATOM     12  C   UNL     1       3.644   3.138  17.173  0.00  0.00    +0.000 C 
ATOM     13  C   UNL     1       2.663   2.207  17.856  0.00  0.00    +0.000 C 
ENDBRANCH  11  13
ENDBRANCH   9  11
ENDBRANCH   8  10
ENDBRANCH   7   8
ENDBRANCH   1   7
BRANCH   4  14
ATOM     14  O   UNL     1       0.429  10.974  18.569  0.00  0.00    +0.000 OA
BRANCH  14  15
ATOM     15  C   UNL     1      -0.926  10.996  18.367  0.00  0.00    +0.000 A 
ATOM     16  C   UNL     1      -1.453  10.078  17.449  0.00  0.00    +0.000 A 
ATOM     17  C   UNL     1      -2.829  10.057  17.207  0.00  0.00    +0.000 A 
ATOM     18  C   UNL     1      -3.694  10.911  17.895  0.00  0.00    +0.000 A 
ATOM     19  C   UNL     1      -3.159  11.836  18.798  0.00  0.00    +0.000 A 
ATOM     20  C   UNL     1      -1.790  11.848  19.056  0.00  0.00    +0.000 A 
BRANCH  18  21
ATOM     21  O   UNL     1      -5.021  10.792  17.592  0.00  0.00    +0.000 OA
BRANCH  21  22
ATOM     22  C   UNL     1      -5.926  11.048  18.669  0.00  0.00    +0.000 C 
ATOM     23  C   UNL     1      -7.101  11.853  18.141  0.00  0.00    +0.000 C 
ENDBRANCH  21  22
ENDBRANCH  18  21
ENDBRANCH  14  15
ENDBRANCH   4  14
TORSDOF 9
ENDMDL
MODEL 9
REMARK VINA RESULT:      -6.1      5.133      7.916
REMARK  Name = 
REMARK  11 active torsions:
REMARK  status: ('A' for Active; 'I' for Inactive)
REMARK    1  A    between atoms: C_1  and  C_2
REMARK    2  A    between atoms: C_2  and  O_3
REMARK    3  A    between atoms: O_3  and  N_4
REMARK    4  A    between atoms: C_5  and  C_6
REMARK    5  A    between atoms: C_6  and  O_7
REMARK    6  A    between atoms: O_7  and  C_8
REMARK    7  A    between atoms: C_11  and  O_12
REMARK    8  A    between atoms: O_12  and  C_13
REMARK    9  A    between atoms: C_16  and  O_17
REMARK   10  A    between atoms: O_17  and  C_18
REMARK   11  A    between atoms: C_18  and  C_19
REMARK                            x       y       z     vdW  Elec       q    Type
REMARK                         _______ _______ _______ _____ _____    ______ ____
ROOT
ATOM      1  C   UNL     1       5.373   4.283  16.801  0.00  0.00    +0.000 A 
ATOM      2  C   UNL     1       3.977   4.159  16.810  0.00  0.00    +0.000 A 
ATOM      3  C   UNL     1       3.209   4.786  17.778  0.00  0.00    +0.000 A 
ATOM      4  C   UNL     1       3.808   5.519  18.781  0.00  0.00    +0.000 A 
ATOM      5  C   UNL     1       5.208   5.665  18.770  0.00  0.00    +0.000 A 
ATOM      6  C   UNL     1       5.985   5.037  17.806  0.00  0.00    +0.000 A 
ENDROOT
BRANCH   1   7
ATOM      7  O   UNL     1       6.139   3.700  15.825  0.00  0.00    +0.000 OA
BRANCH   7   8
ATOM      8  C   UNL     1       6.401   4.574  14.716  0.00  0.00    +0.000 C 
BRANCH   8  10
ATOM      9  N   UNL     1       5.100   3.761  12.844  0.00  0.00    +0.000 NA
ATOM     10  C   UNL     1       6.248   3.841  13.418  0.00  0.00    +0.000 C 
BRANCH   9  11
ATOM     11  O   UNL     1       5.216   2.984  11.683  0.00  0.00    +0.000 OA
BRANCH  11  13
ATOM     12  C   UNL     1       3.547   3.969  10.280  0.00  0.00    +0.000 C 
ATOM     13  C   UNL     1       3.905   2.782  11.150  0.00  0.00    +0.000 C 
ENDBRANCH  11  13
ENDBRANCH   9  11
ENDBRANCH   8  10
ENDBRANCH   7   8
ENDBRANCH   1   7
BRANCH   4  14
ATOM     14  O   UNL     1       2.958   6.094  19.704  0.00  0.00    +0.000 OA
BRANCH  14  15
ATOM     15  C   UNL     1       2.343   7.283  19.411  0.00  0.00    +0.000 A 
ATOM     16  C   UNL     1       1.650   7.919  20.448  0.00  0.00    +0.000 A 
ATOM     17  C   UNL     1       1.006   9.136  20.203  0.00  0.00    +0.000 A 
ATOM     18  C   UNL     1       1.078   9.748  18.950  0.00  0.00    +0.000 A 
ATOM     19  C   UNL     1       1.760   9.099  17.915  0.00  0.00    +0.000 A 
ATOM     20  C   UNL     1       2.417   7.895  18.160  0.00  0.00    +0.000 A 
BRANCH  18  21
ATOM     21  O   UNL     1       0.428  10.943  18.829  0.00  0.00    +0.000 OA
BRANCH  21  22
ATOM     22  C   UNL     1      -0.242  11.404  20.006  0.00  0.00    +0.000 C 
ATOM     23  C   UNL     1      -0.483  12.898  19.880  0.00  0.00    +0.000 C 
ENDBRANCH  21  22
ENDBRANCH  18  21
ENDBRANCH  14  15
ENDBRANCH   4  14
TORSDOF 9
ENDMDL
