MODEL 1
REMARK VINA RESULT:      -8.1      0.000      0.000
REMARK  Name = 
REMARK  7 active torsions:
REMARK  status: ('A' for Active; 'I' for Inactive)
REMARK    1  A    between atoms: C_1  and  C_2
REMARK    2  A    between atoms: C_2  and  C_8
REMARK    3  A    between atoms: N_3  and  N_4
REMARK    4  A    between atoms: N_4  and  C_5
REMARK    5  A    between atoms: C_5  and  N_6
REMARK    6  A    between atoms: C_14  and  C_15
REMARK    7  A    between atoms: C_15  and  C_16
REMARK                            x       y       z     vdW  Elec       q    Type
REMARK                         _______ _______ _______ _____ _____    ______ ____
ROOT
ATOM      1  C   UNL     1       4.256   4.879  17.517  0.00  0.00    +0.000 A 
ATOM      2  C   UNL     1       3.560   3.658  17.020  0.00  0.00    +0.000 A 
ATOM      3  C   UNL     1       2.450   3.278  17.663  0.00  0.00    +0.000 A 
ATOM      4  C   UNL     1       2.001   4.027  18.772  0.00  0.00    +0.000 A 
ATOM      5  N   UNL     1       0.954   3.859  19.548  0.00  0.00    +0.000 NA
ATOM      6  C   UNL     1       1.001   4.899  20.439  0.00  0.00    +0.000 A 
ATOM      7  C   UNL     1       2.094   5.712  20.210  0.00  0.00    +0.000 A 
ATOM      8  N   UNL     1       2.745   5.140  19.139  0.00  0.00    +0.000 N 
ATOM      9  N   UNL     1       3.887   5.605  18.535  0.00  0.00    +0.000 NA
ENDROOT
BRANCH   1  11
ATOM     10  C   UNL     1       5.928   6.730  16.917  0.00  0.00    +0.000 C 
ATOM     11  C   UNL     1       5.518   5.287  16.756  0.00  0.00    +0.000 C 
ATOM     12  N   UNL     1       6.111   4.364  16.053  0.00  0.00    +0.000 NA
BRANCH  12  13
ATOM     13  N   UNL     1       7.242   4.680  15.355  0.00  0.00    +0.000 N 
ATOM     14  H   UNL     1       8.112   4.909  15.821  0.00  0.00    +0.000 HD
BRANCH  13  15
ATOM     15  C   UNL     1       7.258   4.745  13.991  0.00  0.00    +0.000 C 
ATOM     16  S   UNL     1       6.269   3.793  13.059  0.00  0.00    +0.000 S 
BRANCH  15  17
ATOM     17  N   UNL     1       8.123   5.623  13.439  0.00  0.00    +0.000 N 
ATOM     18  H   UNL     1       8.374   5.498  12.468  0.00  0.00    +0.000 HD
ATOM     19  H   UNL     1       8.599   6.308  14.006  0.00  0.00    +0.000 HD
ENDBRANCH  15  17
ENDBRANCH  13  15
ENDBRANCH  12  13
ENDBRANCH   1  11
BRANCH   7  20
ATOM     20  C   UNL     1       2.480   6.994  20.851  0.00  0.00    +0.000 C 
BRANCH  20  21
ATOM     21  C   UNL     1       1.452   8.094  20.768  0.00  0.00    +0.000 A 
ATOM     22  C   UNL     1       0.753   8.509  21.907  0.00  0.00    +0.000 A 
ATOM     23  C   UNL     1      -0.076   9.647  21.867  0.00  0.00    +0.000 A 
ATOM     24  C   UNL     1      -0.721  10.122  23.015  0.00  0.00    +0.000 A 
ATOM     25  C   UNL     1      -1.479  11.284  22.953  0.00  0.00    +0.000 A 
ATOM     26  C   UNL     1      -1.583  11.925  21.732  0.00  0.00    +0.000 A 
ATOM     27  N   UNL     1      -0.998  11.482  20.597  0.00  0.00    +0.000 NA
ATOM     28  C   UNL     1      -0.252  10.363  20.664  0.00  0.00    +0.000 A 
ATOM     29  C   UNL     1       0.390   9.902  19.526  0.00  0.00    +0.000 A 
ATOM     30  C   UNL     1       1.230   8.789  19.577  0.00  0.00    +0.000 A 
ATOM     31  F   UNL     1       1.871   8.416  18.458  0.00  0.00    +0.000 F 
ENDBRANCH  20  21
ENDBRANCH   7  20
TORSDOF 6
ENDMDL
MODEL 2
REMARK VINA RESULT:      -7.7      2.667      3.655
REMARK  Name = 
REMARK  7 active torsions:
REMARK  status: ('A' for Active; 'I' for Inactive)
REMARK    1  A    between atoms: C_1  and  C_2
REMARK    2  A    between atoms: C_2  and  C_8
REMARK    3  A    between atoms: N_3  and  N_4
REMARK    4  A    between atoms: N_4  and  C_5
REMARK    5  A    between atoms: C_5  and  N_6
REMARK    6  A    between atoms: C_14  and  C_15
REMARK    7  A    between atoms: C_15  and  C_16
REMARK                            x       y       z     vdW  Elec       q    Type
REMARK                         _______ _______ _______ _____ _____    ______ ____
ROOT
ATOM      1  C   UNL     1       3.154   5.812  18.496  0.00  0.00    +0.000 A 
ATOM      2  C   UNL     1       2.965   4.920  19.675  0.00  0.00    +0.000 A 
ATOM      3  C   UNL     1       2.280   5.411  20.714  0.00  0.00    +0.000 A 
ATOM      4  C   UNL     1       1.787   6.732  20.656  0.00  0.00    +0.000 A 
ATOM      5  N   UNL     1       1.093   7.423  21.532  0.00  0.00    +0.000 NA
ATOM      6  C   UNL     1       0.868   8.634  20.933  0.00  0.00    +0.000 A 
ATOM      7  C   UNL     1       1.434   8.689  19.675  0.00  0.00    +0.000 A 
ATOM      8  N   UNL     1       2.038   7.462  19.503  0.00  0.00    +0.000 N 
ATOM      9  N   UNL     1       2.722   7.038  18.391  0.00  0.00    +0.000 NA
ENDROOT
BRANCH   1  11
ATOM     10  C   UNL     1       3.664   3.763  17.039  0.00  0.00    +0.000 C 
ATOM     11  C   UNL     1       3.937   5.218  17.325  0.00  0.00    +0.000 C 
ATOM     12  N   UNL     1       4.754   6.014  16.693  0.00  0.00    +0.000 NA
BRANCH  12  13
ATOM     13  N   UNL     1       5.476   5.530  15.640  0.00  0.00    +0.000 N 
ATOM     14  H   UNL     1       5.056   5.363  14.733  0.00  0.00    +0.000 HD
BRANCH  13  15
ATOM     15  C   UNL     1       6.798   5.203  15.755  0.00  0.00    +0.000 C 
ATOM     16  S   UNL     1       7.441   4.659  17.185  0.00  0.00    +0.000 S 
BRANCH  15  17
ATOM     17  N   UNL     1       7.554   5.349  14.646  0.00  0.00    +0.000 N 
ATOM     18  H   UNL     1       8.443   4.868  14.610  0.00  0.00    +0.000 HD
ATOM     19  H   UNL     1       7.302   6.011  13.929  0.00  0.00    +0.000 HD
ENDBRANCH  15  17
ENDBRANCH  13  15
ENDBRANCH  12  13
ENDBRANCH   1  11
BRANCH   7  20
ATOM     20  C   UNL     1       1.354   9.747  18.637  0.00  0.00    +0.000 C 
BRANCH  20  21
ATOM     21  C   UNL     1       0.043  10.491  18.573  0.00  0.00    +0.000 A 
ATOM     22  C   UNL     1      -1.004  10.027  17.770  0.00  0.00    +0.000 A 
ATOM     23  C   UNL     1      -2.281  10.619  17.842  0.00  0.00    +0.000 A 
ATOM     24  C   UNL     1      -3.361  10.119  17.104  0.00  0.00    +0.000 A 
ATOM     25  C   UNL     1      -4.620  10.687  17.248  0.00  0.00    +0.000 A 
ATOM     26  C   UNL     1      -4.754  11.754  18.116  0.00  0.00    +0.000 A 
ATOM     27  N   UNL     1      -3.730  12.281  18.824  0.00  0.00    +0.000 NA
ATOM     28  C   UNL     1      -2.514  11.720  18.693  0.00  0.00    +0.000 A 
ATOM     29  C   UNL     1      -1.451  12.214  19.431  0.00  0.00    +0.000 A 
ATOM     30  C   UNL     1      -0.195  11.609  19.375  0.00  0.00    +0.000 A 
ATOM     31  F   UNL     1       0.787  12.094  20.152  0.00  0.00    +0.000 F 
ENDBRANCH  20  21
ENDBRANCH   7  20
TORSDOF 6
ENDMDL
MODEL 3
REMARK VINA RESULT:      -7.6      2.312      3.377
REMARK  Name = 
REMARK  7 active torsions:
REMARK  status: ('A' for Active; 'I' for Inactive)
REMARK    1  A    between atoms: C_1  and  C_2
REMARK    2  A    between atoms: C_2  and  C_8
REMARK    3  A    between atoms: N_3  and  N_4
REMARK    4  A    between atoms: N_4  and  C_5
REMARK    5  A    between atoms: C_5  and  N_6
REMARK    6  A    between atoms: C_14  and  C_15
REMARK    7  A    between atoms: C_15  and  C_16
REMARK                            x       y       z     vdW  Elec       q    Type
REMARK                         _______ _______ _______ _____ _____    ______ ____
ROOT
ATOM      1  C   UNL     1       3.248   4.955  18.616  0.00  0.00    +0.000 A 
ATOM      2  C   UNL     1       2.968   4.207  19.874  0.00  0.00    +0.000 A 
ATOM      3  C   UNL     1       2.331   4.863  20.852  0.00  0.00    +0.000 A 
ATOM      4  C   UNL     1       1.970   6.213  20.658  0.00  0.00    +0.000 A 
ATOM      5  N   UNL     1       1.345   7.052  21.453  0.00  0.00    +0.000 NA
ATOM      6  C   UNL     1       1.241   8.213  20.735  0.00  0.00    +0.000 A 
ATOM      7  C   UNL     1       1.814   8.088  19.485  0.00  0.00    +0.000 A 
ATOM      8  N   UNL     1       2.295   6.797  19.441  0.00  0.00    +0.000 N 
ATOM      9  N   UNL     1       2.938   6.201  18.386  0.00  0.00    +0.000 NA
ENDROOT
BRANCH   1  11
ATOM     10  C   UNL     1       3.124   3.179  16.769  0.00  0.00    +0.000 C 
ATOM     11  C   UNL     1       3.972   4.175  17.519  0.00  0.00    +0.000 C 
ATOM     12  N   UNL     1       5.236   4.441  17.338  0.00  0.00    +0.000 NA
BRANCH  12  13
ATOM     13  N   UNL     1       5.927   3.770  16.369  0.00  0.00    +0.000 N 
ATOM     14  H   UNL     1       6.100   2.774  16.427  0.00  0.00    +0.000 HD
BRANCH  13  15
ATOM     15  C   UNL     1       6.461   4.408  15.286  0.00  0.00    +0.000 C 
ATOM     16  S   UNL     1       6.143   3.911  13.735  0.00  0.00    +0.000 S 
BRANCH  15  17
ATOM     17  N   UNL     1       7.265   5.462  15.543  0.00  0.00    +0.000 N 
ATOM     18  H   UNL     1       8.108   5.564  14.993  0.00  0.00    +0.000 HD
ATOM     19  H   UNL     1       7.097   6.062  16.336  0.00  0.00    +0.000 HD
ENDBRANCH  15  17
ENDBRANCH  13  15
ENDBRANCH  12  13
ENDBRANCH   1  11
BRANCH   7  20
ATOM     20  C   UNL     1       1.840   9.041  18.347  0.00  0.00    +0.000 C 
BRANCH  20  21
ATOM     21  C   UNL     1       0.624   9.922  18.214  0.00  0.00    +0.000 A 
ATOM     22  C   UNL     1      -0.513   9.474  17.533  0.00  0.00    +0.000 A 
ATOM     23  C   UNL     1      -1.707  10.223  17.556  0.00  0.00    +0.000 A 
ATOM     24  C   UNL     1      -2.877   9.752  16.947  0.00  0.00    +0.000 A 
ATOM     25  C   UNL     1      -4.052  10.486  17.045  0.00  0.00    +0.000 A 
ATOM     26  C   UNL     1      -4.012  11.682  17.737  0.00  0.00    +0.000 A 
ATOM     27  N   UNL     1      -2.897  12.181  18.315  0.00  0.00    +0.000 NA
ATOM     28  C   UNL     1      -1.763  11.461  18.230  0.00  0.00    +0.000 A 
ATOM     29  C   UNL     1      -0.610  11.927  18.842  0.00  0.00    +0.000 A 
ATOM     30  C   UNL     1       0.561  11.171  18.837  0.00  0.00    +0.000 A 
ATOM     31  F   UNL     1       1.635  11.644  19.490  0.00  0.00    +0.000 F 
ENDBRANCH  20  21
ENDBRANCH   7  20
TORSDOF 6
ENDMDL
MODEL 4
REMARK VINA RESULT:      -7.6      5.262      9.699
REMARK  Name = 
REMARK  7 active torsions:
REMARK  status: ('A' for Active; 'I' for Inactive)
REMARK    1  A    between atoms: C_1  and  C_2
REMARK    2  A    between atoms: C_2  and  C_8
REMARK    3  A    between atoms: N_3  and  N_4
REMARK    4  A    between atoms: N_4  and  C_5
REMARK    5  A    between atoms: C_5  and  N_6
REMARK    6  A    between atoms: C_14  and  C_15
REMARK    7  A    between atoms: C_15  and  C_16
REMARK                            x       y       z     vdW  Elec       q    Type
REMARK                         _______ _______ _______ _____ _____    ______ ____
ROOT
ATOM      1  C   UNL     1      -5.551  12.231  19.420  0.00  0.00    +0.000 A 
ATOM      2  C   UNL     1      -6.886  12.162  20.079  0.00  0.00    +0.000 A 
ATOM      3  C   UNL     1      -6.924  12.318  21.408  0.00  0.00    +0.000 A 
ATOM      4  C   UNL     1      -5.721  12.525  22.116  0.00  0.00    +0.000 A 
ATOM      5  N   UNL     1      -5.507  12.708  23.399  0.00  0.00    +0.000 NA
ATOM      6  C   UNL     1      -4.154  12.885  23.512  0.00  0.00    +0.000 A 
ATOM      7  C   UNL     1      -3.529  12.805  22.284  0.00  0.00    +0.000 A 
ATOM      8  N   UNL     1      -4.543  12.561  21.383  0.00  0.00    +0.000 N 
ATOM      9  N   UNL     1      -4.411  12.418  20.025  0.00  0.00    +0.000 NA
ENDROOT
BRANCH   1  11
ATOM     10  C   UNL     1      -6.587  12.846  17.155  0.00  0.00    +0.000 C 
ATOM     11  C   UNL     1      -5.544  12.053  17.901  0.00  0.00    +0.000 C 
ATOM     12  N   UNL     1      -4.650  11.245  17.404  0.00  0.00    +0.000 NA
BRANCH  12  13
ATOM     13  N   UNL     1      -4.603  11.053  16.052  0.00  0.00    +0.000 N 
ATOM     14  H   UNL     1      -5.442  11.025  15.485  0.00  0.00    +0.000 HD
BRANCH  13  15
ATOM     15  C   UNL     1      -3.426  10.846  15.389  0.00  0.00    +0.000 C 
ATOM     16  S   UNL     1      -3.363   9.991  13.968  0.00  0.00    +0.000 S 
BRANCH  15  17
ATOM     17  N   UNL     1      -2.317  11.371  15.952  0.00  0.00    +0.000 N 
ATOM     18  H   UNL     1      -1.978  10.959  16.811  0.00  0.00    +0.000 HD
ATOM     19  H   UNL     1      -1.908  12.222  15.598  0.00  0.00    +0.000 HD
ENDBRANCH  15  17
ENDBRANCH  13  15
ENDBRANCH  12  13
ENDBRANCH   1  11
BRANCH   7  20
ATOM     20  C   UNL     1      -2.108  13.038  21.919  0.00  0.00    +0.000 C 
BRANCH  20  21
ATOM     21  C   UNL     1      -1.341  11.811  21.494  0.00  0.00    +0.000 A 
ATOM     22  C   UNL     1      -0.951  11.637  20.162  0.00  0.00    +0.000 A 
ATOM     23  C   UNL     1      -0.088  10.583  19.798  0.00  0.00    +0.000 A 
ATOM     24  C   UNL     1       0.376  10.439  18.485  0.00  0.00    +0.000 A 
ATOM     25  C   UNL     1       1.275   9.428  18.175  0.00  0.00    +0.000 A 
ATOM     26  C   UNL     1       1.669   8.578  19.192  0.00  0.00    +0.000 A 
ATOM     27  N   UNL     1       1.223   8.669  20.464  0.00  0.00    +0.000 NA
ATOM     28  C   UNL     1       0.362   9.660  20.765  0.00  0.00    +0.000 A 
ATOM     29  C   UNL     1      -0.087   9.802  22.068  0.00  0.00    +0.000 A 
ATOM     30  C   UNL     1      -0.921  10.861  22.427  0.00  0.00    +0.000 A 
ATOM     31  F   UNL     1      -1.284  10.985  23.714  0.00  0.00    +0.000 F 
ENDBRANCH  20  21
ENDBRANCH   7  20
TORSDOF 6
ENDMDL
MODEL 5
REMARK VINA RESULT:      -7.5      2.010      2.778
REMARK  Name = 
REMARK  7 active torsions:
REMARK  status: ('A' for Active; 'I' for Inactive)
REMARK    1  A    between atoms: C_1  and  C_2
REMARK    2  A    between atoms: C_2  and  C_8
REMARK    3  A    between atoms: N_3  and  N_4
REMARK    4  A    between atoms: N_4  and  C_5
REMARK    5  A    between atoms: C_5  and  N_6
REMARK    6  A    between atoms: C_14  and  C_15
REMARK    7  A    between atoms: C_15  and  C_16
REMARK                            x       y       z     vdW  Elec       q    Type
REMARK                         _______ _______ _______ _____ _____    ______ ____
ROOT
ATOM      1  C   UNL     1       4.620   5.019  18.497  0.00  0.00    +0.000 A 
ATOM      2  C   UNL     1       4.192   3.870  19.344  0.00  0.00    +0.000 A 
ATOM      3  C   UNL     1       3.138   4.056  20.146  0.00  0.00    +0.000 A 
ATOM      4  C   UNL     1       2.496   5.313  20.166  0.00  0.00    +0.000 A 
ATOM      5  N   UNL     1       1.456   5.730  20.854  0.00  0.00    +0.000 NA
ATOM      6  C   UNL     1       1.259   7.024  20.451  0.00  0.00    +0.000 A 
ATOM      7  C   UNL     1       2.192   7.408  19.508  0.00  0.00    +0.000 A 
ATOM      8  N   UNL     1       2.998   6.304  19.334  0.00  0.00    +0.000 N 
ATOM      9  N   UNL     1       4.065   6.199  18.477  0.00  0.00    +0.000 NA
ENDROOT
BRANCH   1  11
ATOM     10  C   UNL     1       7.115   5.406  18.041  0.00  0.00    +0.000 C 
ATOM     11  C   UNL     1       5.824   4.771  17.588  0.00  0.00    +0.000 C 
ATOM     12  N   UNL     1       5.624   4.045  16.524  0.00  0.00    +0.000 NA
BRANCH  12  13
ATOM     13  N   UNL     1       6.669   3.794  15.681  0.00  0.00    +0.000 N 
ATOM     14  H   UNL     1       7.436   3.187  15.943  0.00  0.00    +0.000 HD
BRANCH  13  15
ATOM     15  C   UNL     1       6.764   4.380  14.450  0.00  0.00    +0.000 C 
ATOM     16  S   UNL     1       5.938   3.790  13.137  0.00  0.00    +0.000 S 
BRANCH  15  17
ATOM     17  N   UNL     1       7.568   5.461  14.357  0.00  0.00    +0.000 N 
ATOM     18  H   UNL     1       7.450   6.075  13.562  0.00  0.00    +0.000 HD
ATOM     19  H   UNL     1       8.342   5.588  14.990  0.00  0.00    +0.000 HD
ENDBRANCH  15  17
ENDBRANCH  13  15
ENDBRANCH  12  13
ENDBRANCH   1  11
BRANCH   7  20
ATOM     20  C   UNL     1       2.296   8.665  18.726  0.00  0.00    +0.000 C 
BRANCH  20  21
ATOM     21  C   UNL     1       1.060   9.530  18.724  0.00  0.00    +0.000 A 
ATOM     22  C   UNL     1       0.121   9.434  17.692  0.00  0.00    +0.000 A 
ATOM     23  C   UNL     1      -1.112  10.111  17.777  0.00  0.00    +0.000 A 
ATOM     24  C   UNL     1      -2.096   9.965  16.791  0.00  0.00    +0.000 A 
ATOM     25  C   UNL     1      -3.324  10.596  16.939  0.00  0.00    +0.000 A 
ATOM     26  C   UNL     1      -3.521  11.372  18.066  0.00  0.00    +0.000 A 
ATOM     27  N   UNL     1      -2.587  11.559  19.025  0.00  0.00    +0.000 NA
ATOM     28  C   UNL     1      -1.402  10.934  18.885  0.00  0.00    +0.000 A 
ATOM     29  C   UNL     1      -0.436  11.077  19.868  0.00  0.00    +0.000 A 
ATOM     30  C   UNL     1       0.773  10.385  19.791  0.00  0.00    +0.000 A 
ATOM     31  F   UNL     1       1.653  10.515  20.796  0.00  0.00    +0.000 F 
ENDBRANCH  20  21
ENDBRANCH   7  20
TORSDOF 6
ENDMDL
MODEL 6
REMARK VINA RESULT:      -7.4      2.686      3.684
REMARK  Name = 
REMARK  7 active torsions:
REMARK  status: ('A' for Active; 'I' for Inactive)
REMARK    1  A    between atoms: C_1  and  C_2
REMARK    2  A    between atoms: C_2  and  C_8
REMARK    3  A    between atoms: N_3  and  N_4
REMARK    4  A    between atoms: N_4  and  C_5
REMARK    5  A    between atoms: C_5  and  N_6
REMARK    6  A    between atoms: C_14  and  C_15
REMARK    7  A    between atoms: C_15  and  C_16
REMARK                            x       y       z     vdW  Elec       q    Type
REMARK                         _______ _______ _______ _____ _____    ______ ____
ROOT
ATOM      1  C   UNL     1       3.248   5.379  18.778  0.00  0.00    +0.000 A 
ATOM      2  C   UNL     1       2.895   4.668  20.040  0.00  0.00    +0.000 A 
ATOM      3  C   UNL     1       2.171   5.340  20.943  0.00  0.00    +0.000 A 
ATOM      4  C   UNL     1       1.792   6.673  20.673  0.00  0.00    +0.000 A 
ATOM      5  N   UNL     1       1.088   7.521  21.389  0.00  0.00    +0.000 NA
ATOM      6  C   UNL     1       1.009   8.653  20.622  0.00  0.00    +0.000 A 
ATOM      7  C   UNL     1       1.676   8.500  19.423  0.00  0.00    +0.000 A 
ATOM      8  N   UNL     1       2.191   7.222  19.463  0.00  0.00    +0.000 N 
ATOM      9  N   UNL     1       2.925   6.607  18.480  0.00  0.00    +0.000 NA
ENDROOT
BRANCH   1  11
ATOM     10  C   UNL     1       3.290   3.589  16.941  0.00  0.00    +0.000 C 
ATOM     11  C   UNL     1       4.071   4.581  17.766  0.00  0.00    +0.000 C 
ATOM     12  N   UNL     1       5.349   4.831  17.714  0.00  0.00    +0.000 NA
BRANCH  12  13
ATOM     13  N   UNL     1       6.127   4.143  16.827  0.00  0.00    +0.000 N 
ATOM     14  H   UNL     1       6.415   3.187  16.995  0.00  0.00    +0.000 HD
BRANCH  13  15
ATOM     15  C   UNL     1       6.598   4.717  15.679  0.00  0.00    +0.000 C 
ATOM     16  S   UNL     1       6.241   4.096  14.182  0.00  0.00    +0.000 S 
BRANCH  15  17
ATOM     17  N   UNL     1       7.372   5.813  15.827  0.00  0.00    +0.000 N 
ATOM     18  H   UNL     1       7.339   6.521  15.105  0.00  0.00    +0.000 HD
ATOM     19  H   UNL     1       8.053   5.872  16.568  0.00  0.00    +0.000 HD
ENDBRANCH  15  17
ENDBRANCH  13  15
ENDBRANCH  12  13
ENDBRANCH   1  11
BRANCH   7  20
ATOM     20  C   UNL     1       1.762   9.413  18.255  0.00  0.00    +0.000 C 
BRANCH  20  21
ATOM     21  C   UNL     1       1.237  10.807  18.485  0.00  0.00    +0.000 A 
ATOM     22  C   UNL     1       2.114  11.888  18.626  0.00  0.00    +0.000 A 
ATOM     23  C   UNL     1       1.626  13.210  18.666  0.00  0.00    +0.000 A 
ATOM     24  C   UNL     1       2.493  14.307  18.727  0.00  0.00    +0.000 A 
ATOM     25  C   UNL     1       1.979  15.597  18.700  0.00  0.00    +0.000 A 
ATOM     26  C   UNL     1       0.607  15.747  18.632  0.00  0.00    +0.000 A 
ATOM     27  N   UNL     1      -0.262  14.712  18.598  0.00  0.00    +0.000 NA
ATOM     28  C   UNL     1       0.239  13.463  18.610  0.00  0.00    +0.000 A 
ATOM     29  C   UNL     1      -0.623  12.381  18.541  0.00  0.00    +0.000 A 
ATOM     30  C   UNL     1      -0.134  11.076  18.476  0.00  0.00    +0.000 A 
ATOM     31  F   UNL     1      -1.010  10.066  18.356  0.00  0.00    +0.000 F 
ENDBRANCH  20  21
ENDBRANCH   7  20
TORSDOF 6
ENDMDL
MODEL 7
REMARK VINA RESULT:      -7.4      1.212      1.392
REMARK  Name = 
REMARK  7 active torsions:
REMARK  status: ('A' for Active; 'I' for Inactive)
REMARK    1  A    between atoms: C_1  and  C_2
REMARK    2  A    between atoms: C_2  and  C_8
REMARK    3  A    between atoms: N_3  and  N_4
REMARK    4  A    between atoms: N_4  and  C_5
REMARK    5  A    between atoms: C_5  and  N_6
REMARK    6  A    between atoms: C_14  and  C_15
REMARK    7  A    between atoms: C_15  and  C_16
REMARK                            x       y       z     vdW  Elec       q    Type
REMARK                         _______ _______ _______ _____ _____    ______ ____
ROOT
ATOM      1  C   UNL     1       4.121   4.291  17.263  0.00  0.00    +0.000 A 
ATOM      2  C   UNL     1       3.389   3.022  16.987  0.00  0.00    +0.000 A 
ATOM      3  C   UNL     1       2.328   2.746  17.754  0.00  0.00    +0.000 A 
ATOM      4  C   UNL     1       1.962   3.643  18.780  0.00  0.00    +0.000 A 
ATOM      5  N   UNL     1       0.974   3.595  19.645  0.00  0.00    +0.000 NA
ATOM      6  C   UNL     1       1.087   4.745  20.380  0.00  0.00    +0.000 A 
ATOM      7  C   UNL     1       2.161   5.507  19.965  0.00  0.00    +0.000 A 
ATOM      8  N   UNL     1       2.732   4.787  18.938  0.00  0.00    +0.000 N 
ATOM      9  N   UNL     1       3.828   5.153  18.196  0.00  0.00    +0.000 NA
ENDROOT
BRANCH   1  11
ATOM     10  C   UNL     1       5.962   5.932  16.555  0.00  0.00    +0.000 C 
ATOM     11  C   UNL     1       5.325   4.578  16.365  0.00  0.00    +0.000 C 
ATOM     12  N   UNL     1       5.682   3.639  15.534  0.00  0.00    +0.000 NA
BRANCH  12  13
ATOM     13  N   UNL     1       6.751   3.848  14.710  0.00  0.00    +0.000 N 
ATOM     14  H   UNL     1       7.691   3.965  15.071  0.00  0.00    +0.000 HD
BRANCH  13  15
ATOM     15  C   UNL     1       6.614   3.952  13.355  0.00  0.00    +0.000 C 
ATOM     16  S   UNL     1       7.483   5.057  12.472  0.00  0.00    +0.000 S 
BRANCH  15  17
ATOM     17  N   UNL     1       5.733   3.112  12.772  0.00  0.00    +0.000 N 
ATOM     18  H   UNL     1       5.689   3.094  11.761  0.00  0.00    +0.000 HD
ATOM     19  H   UNL     1       5.054   2.609  13.321  0.00  0.00    +0.000 HD
ENDBRANCH  15  17
ENDBRANCH  13  15
ENDBRANCH  12  13
ENDBRANCH   1  11
BRANCH   7  20
ATOM     20  C   UNL     1       2.595   6.860  20.396  0.00  0.00    +0.000 C 
BRANCH  20  21
ATOM     21  C   UNL     1       1.739   8.000  19.906  0.00  0.00    +0.000 A 
ATOM     22  C   UNL     1       0.877   8.674  20.778  0.00  0.00    +0.000 A 
ATOM     23  C   UNL     1       0.209   9.845  20.366  0.00  0.00    +0.000 A 
ATOM     24  C   UNL     1      -0.594  10.576  21.249  0.00  0.00    +0.000 A 
ATOM     25  C   UNL     1      -1.186  11.760  20.828  0.00  0.00    +0.000 A 
ATOM     26  C   UNL     1      -0.967  12.165  19.524  0.00  0.00    +0.000 A 
ATOM     27  N   UNL     1      -0.220  11.473  18.636  0.00  0.00    +0.000 NA
ATOM     28  C   UNL     1       0.364  10.333  19.052  0.00  0.00    +0.000 A 
ATOM     29  C   UNL     1       1.164   9.618  18.176  0.00  0.00    +0.000 A 
ATOM     30  C   UNL     1       1.843   8.473  18.596  0.00  0.00    +0.000 A 
ATOM     31  F   UNL     1       2.649   7.847  17.723  0.00  0.00    +0.000 F 
ENDBRANCH  20  21
ENDBRANCH   7  20
TORSDOF 6
ENDMDL
MODEL 8
REMARK VINA RESULT:      -7.4      2.036      2.332
REMARK  Name = 
REMARK  7 active torsions:
REMARK  status: ('A' for Active; 'I' for Inactive)
REMARK    1  A    between atoms: C_1  and  C_2
REMARK    2  A    between atoms: C_2  and  C_8
REMARK    3  A    between atoms: N_3  and  N_4
REMARK    4  A    between atoms: N_4  and  C_5
REMARK    5  A    between atoms: C_5  and  N_6
REMARK    6  A    between atoms: C_14  and  C_15
REMARK    7  A    between atoms: C_15  and  C_16
REMARK                            x       y       z     vdW  Elec       q    Type
REMARK                         _______ _______ _______ _____ _____    ______ ____
ROOT
ATOM      1  C   UNL     1       4.419   5.063  17.643  0.00  0.00    +0.000 A 
ATOM      2  C   UNL     1       3.828   3.980  16.807  0.00  0.00    +0.000 A 
ATOM      3  C   UNL     1       2.667   3.453  17.213  0.00  0.00    +0.000 A 
ATOM      4  C   UNL     1       2.070   3.926  18.401  0.00  0.00    +0.000 A 
ATOM      5  N   UNL     1       0.949   3.576  18.991  0.00  0.00    +0.000 NA
ATOM      6  C   UNL     1       0.857   4.387  20.091  0.00  0.00    +0.000 A 
ATOM      7  C   UNL     1       1.938   5.242  20.180  0.00  0.00    +0.000 A 
ATOM      8  N   UNL     1       2.726   4.934  19.093  0.00  0.00    +0.000 N 
ATOM      9  N   UNL     1       3.911   5.535  18.747  0.00  0.00    +0.000 NA
ENDROOT
BRANCH   1  11
ATOM     10  C   UNL     1       6.566   4.728  16.280  0.00  0.00    +0.000 C 
ATOM     11  C   UNL     1       5.742   5.646  17.148  0.00  0.00    +0.000 C 
ATOM     12  N   UNL     1       6.029   6.863  17.517  0.00  0.00    +0.000 NA
BRANCH  12  13
ATOM     13  N   UNL     1       7.200   7.429  17.100  0.00  0.00    +0.000 N 
ATOM     14  H   UNL     1       7.524   7.347  16.143  0.00  0.00    +0.000 HD
BRANCH  13  15
ATOM     15  C   UNL     1       8.025   8.103  17.955  0.00  0.00    +0.000 C 
ATOM     16  S   UNL     1       8.326   9.726  17.780  0.00  0.00    +0.000 S 
BRANCH  15  17
ATOM     17  N   UNL     1       8.585   7.380  18.948  0.00  0.00    +0.000 N 
ATOM     18  H   UNL     1       8.362   6.395  19.004  0.00  0.00    +0.000 HD
ATOM     19  H   UNL     1       9.109   7.827  19.684  0.00  0.00    +0.000 HD
ENDBRANCH  15  17
ENDBRANCH  13  15
ENDBRANCH  12  13
ENDBRANCH   1  11
BRANCH   7  20
ATOM     20  C   UNL     1       2.203   6.349  21.133  0.00  0.00    +0.000 C 
BRANCH  20  21
ATOM     21  C   UNL     1       1.395   7.602  20.909  0.00  0.00    +0.000 A 
ATOM     22  C   UNL     1       0.602   8.135  21.931  0.00  0.00    +0.000 A 
ATOM     23  C   UNL     1      -0.014   9.394  21.781  0.00  0.00    +0.000 A 
ATOM     24  C   UNL     1      -0.746   9.978  22.822  0.00  0.00    +0.000 A 
ATOM     25  C   UNL     1      -1.285  11.248  22.662  0.00  0.00    +0.000 A 
ATOM     26  C   UNL     1      -1.088  11.887  21.452  0.00  0.00    +0.000 A 
ATOM     27  N   UNL     1      -0.411  11.345  20.416  0.00  0.00    +0.000 NA
ATOM     28  C   UNL     1       0.123  10.119  20.579  0.00  0.00    +0.000 A 
ATOM     29  C   UNL     1       0.852   9.550  19.548  0.00  0.00    +0.000 A 
ATOM     30  C   UNL     1       1.480   8.315  19.711  0.00  0.00    +0.000 A 
ATOM     31  F   UNL     1       2.221   7.832  18.700  0.00  0.00    +0.000 F 
ENDBRANCH  20  21
ENDBRANCH   7  20
TORSDOF 6
ENDMDL
MODEL 9
REMARK VINA RESULT:      -7.3      3.416      8.595
REMARK  Name = 
REMARK  7 active torsions:
REMARK  status: ('A' for Active; 'I' for Inactive)
REMARK    1  A    between atoms: C_1  and  C_2
REMARK    2  A    between atoms: C_2  and  C_8
REMARK    3  A    between atoms: N_3  and  N_4
REMARK    4  A    between atoms: N_4  and  C_5
REMARK    5  A    between atoms: C_5  and  N_6
REMARK    6  A    between atoms: C_14  and  C_15
REMARK    7  A    between atoms: C_15  and  C_16
REMARK                            x       y       z     vdW  Elec       q    Type
REMARK                         _______ _______ _______ _____ _____    ______ ____
ROOT
ATOM      1  C   UNL     1       1.985   6.351  20.141  0.00  0.00    +0.000 A 
ATOM      2  C   UNL     1       0.853   5.409  20.371  0.00  0.00    +0.000 A 
ATOM      3  C   UNL     1       1.121   4.099  20.307  0.00  0.00    +0.000 A 
ATOM      4  C   UNL     1       2.435   3.674  20.018  0.00  0.00    +0.000 A 
ATOM      5  N   UNL     1       2.936   2.464  19.910  0.00  0.00    +0.000 NA
ATOM      6  C   UNL     1       4.267   2.653  19.647  0.00  0.00    +0.000 A 
ATOM      7  C   UNL     1       4.586   3.995  19.588  0.00  0.00    +0.000 A 
ATOM      8  N   UNL     1       3.398   4.653  19.817  0.00  0.00    +0.000 N 
ATOM      9  N   UNL     1       3.215   6.013  19.870  0.00  0.00    +0.000 NA
ENDROOT
BRANCH   1  11
ATOM     10  C   UNL     1       1.799   8.609  18.938  0.00  0.00    +0.000 C 
ATOM     11  C   UNL     1       1.646   7.839  20.226  0.00  0.00    +0.000 C 
ATOM     12  N   UNL     1       1.262   8.295  21.386  0.00  0.00    +0.000 NA
BRANCH  12  13
ATOM     13  N   UNL     1       0.948   9.618  21.512  0.00  0.00    +0.000 N 
ATOM     14  H   UNL     1       1.468  10.341  21.029  0.00  0.00    +0.000 HD
BRANCH  13  15
ATOM     15  C   UNL     1      -0.059  10.049  22.329  0.00  0.00    +0.000 C 
ATOM     16  S   UNL     1      -0.845  11.486  22.061  0.00  0.00    +0.000 S 
BRANCH  15  17
ATOM     17  N   UNL     1      -0.379   9.248  23.366  0.00  0.00    +0.000 N 
ATOM     18  H   UNL     1       0.141   8.388  23.483  0.00  0.00    +0.000 HD
ATOM     19  H   UNL     1      -1.190   9.434  23.936  0.00  0.00    +0.000 HD
ENDBRANCH  15  17
ENDBRANCH  13  15
ENDBRANCH  12  13
ENDBRANCH   1  11
BRANCH   7  20
ATOM     20  C   UNL     1       5.907   4.656  19.437  0.00  0.00    +0.000 C 
BRANCH  20  21
ATOM     21  C   UNL     1       6.413   4.773  18.021  0.00  0.00    +0.000 A 
ATOM     22  C   UNL     1       5.900   3.955  17.008  0.00  0.00    +0.000 A 
ATOM     23  C   UNL     1       6.244   4.179  15.660  0.00  0.00    +0.000 A 
ATOM     24  C   UNL     1       5.679   3.422  14.626  0.00  0.00    +0.000 A 
ATOM     25  C   UNL     1       5.992   3.713  13.305  0.00  0.00    +0.000 A 
ATOM     26  C   UNL     1       6.878   4.746  13.061  0.00  0.00    +0.000 A 
ATOM     27  N   UNL     1       7.463   5.480  14.033  0.00  0.00    +0.000 NA
ATOM     28  C   UNL     1       7.147   5.205  15.312  0.00  0.00    +0.000 A 
ATOM     29  C   UNL     1       7.703   5.963  16.331  0.00  0.00    +0.000 A 
ATOM     30  C   UNL     1       7.340   5.753  17.661  0.00  0.00    +0.000 A 
ATOM     31  F   UNL     1       7.866   6.551  18.604  0.00  0.00    +0.000 F 
ENDBRANCH  20  21
ENDBRANCH   7  20
TORSDOF 6
ENDMDL
