MODEL 1
REMARK VINA RESULT:      -7.3      0.000      0.000
REMARK  Name = 
REMARK  7 active torsions:
REMARK  status: ('A' for Active; 'I' for Inactive)
REMARK    1  A    between atoms: C_1  and  O_2
REMARK    2  A    between atoms: O_2  and  C_3
REMARK    3  A    between atoms: C_3  and  C_4
REMARK    4  A    between atoms: N_8  and  C_9
REMARK    5  A    between atoms: C_9  and  C_10
REMARK    6  A    between atoms: N_12  and  C_13
REMARK    7  A    between atoms: C_13  and  C_14
REMARK                            x       y       z     vdW  Elec       q    Type
REMARK                         _______ _______ _______ _____ _____    ______ ____
ROOT
ATOM      1  C   UNL     1       5.749   5.158  17.618  0.00  0.00    +0.000 A 
ATOM      2  C   UNL     1       5.470   6.337  17.068  0.00  0.00    +0.000 A 
ATOM      3  C   UNL     1       4.148   6.912  17.282  0.00  0.00    +0.000 A 
ATOM      4  O   UNL     1       3.914   7.973  16.704  0.00  0.00    +0.000 OA
ATOM      5  N   UNL     1       3.301   6.224  18.120  0.00  0.00    +0.000 N 
ATOM      6  C   UNL     1       3.675   4.965  18.621  0.00  0.00    +0.000 A 
ATOM      7  N   UNL     1       2.768   4.254  19.407  0.00  0.00    +0.000 N 
ATOM      8  C   UNL     1       2.336   4.762  20.714  0.00  0.00    +0.000 C 
ATOM      9  C   UNL     1       2.240   3.551  21.630  0.00  0.00    +0.000 C 
ATOM     10  C   UNL     1       1.940   2.421  20.671  0.00  0.00    +0.000 C 
ATOM     11  C   UNL     1       2.767   2.783  19.438  0.00  0.00    +0.000 C 
ATOM     12  N   UNL     1       4.839   4.441  18.357  0.00  0.00    +0.000 NA
ENDROOT
BRANCH   1  13
ATOM     13  C   UNL     1       7.135   4.581  17.424  0.00  0.00    +0.000 C 
BRANCH  13  15
ATOM     14  C   UNL     1       7.960   5.807  19.271  0.00  0.00    +0.000 C 
ATOM     15  O   UNL     1       7.807   4.519  18.689  0.00  0.00    +0.000 OA
ENDBRANCH  13  15
ENDBRANCH   1  13
BRANCH   5  16
ATOM     16  C   UNL     1       1.951   6.756  18.341  0.00  0.00    +0.000 C 
BRANCH  16  17
ATOM     17  C   UNL     1       1.768   8.088  19.082  0.00  0.00    +0.000 C 
ATOM     18  O   UNL     1       1.886   8.172  20.302  0.00  0.00    +0.000 OA
ATOM     19  N   UNL     1       1.447   9.161  18.270  0.00  0.00    +0.000 N 
ATOM     20  H   UNL     1       1.272   9.014  17.286  0.00  0.00    +0.000 HD
BRANCH  19  21
ATOM     21  C   UNL     1       1.100  10.451  18.825  0.00  0.00    +0.000 C 
BRANCH  21  22
ATOM     22  C   UNL     1      -0.361  10.739  18.597  0.00  0.00    +0.000 A 
ATOM     23  C   UNL     1      -1.020  11.729  19.343  0.00  0.00    +0.000 A 
ATOM     24  C   UNL     1      -2.383  11.962  19.155  0.00  0.00    +0.000 A 
ATOM     25  C   UNL     1      -3.086  11.202  18.227  0.00  0.00    +0.000 A 
ATOM     26  F   UNL     1      -4.397  11.417  18.059  0.00  0.00    +0.000 F 
ATOM     27  C   UNL     1      -2.450  10.224  17.472  0.00  0.00    +0.000 A 
ATOM     28  C   UNL     1      -1.087   9.989  17.658  0.00  0.00    +0.000 A 
ENDBRANCH  21  22
ENDBRANCH  19  21
ENDBRANCH  16  17
ENDBRANCH   5  16
TORSDOF 6
ENDMDL
MODEL 2
REMARK VINA RESULT:      -7.3      3.659      8.721
REMARK  Name = 
REMARK  7 active torsions:
REMARK  status: ('A' for Active; 'I' for Inactive)
REMARK    1  A    between atoms: C_1  and  O_2
REMARK    2  A    between atoms: O_2  and  C_3
REMARK    3  A    between atoms: C_3  and  C_4
REMARK    4  A    between atoms: N_8  and  C_9
REMARK    5  A    between atoms: C_9  and  C_10
REMARK    6  A    between atoms: N_12  and  C_13
REMARK    7  A    between atoms: C_13  and  C_14
REMARK                            x       y       z     vdW  Elec       q    Type
REMARK                         _______ _______ _______ _____ _____    ______ ____
ROOT
ATOM      1  C   UNL     1      -0.552  13.910  19.839  0.00  0.00    +0.000 A 
ATOM      2  C   UNL     1       0.437  13.454  20.602  0.00  0.00    +0.000 A 
ATOM      3  C   UNL     1       0.627  12.013  20.713  0.00  0.00    +0.000 A 
ATOM      4  O   UNL     1       1.515  11.636  21.477  0.00  0.00    +0.000 OA
ATOM      5  N   UNL     1      -0.191  11.220  19.941  0.00  0.00    +0.000 N 
ATOM      6  C   UNL     1      -1.234  11.797  19.197  0.00  0.00    +0.000 A 
ATOM      7  N   UNL     1      -2.096  10.964  18.483  0.00  0.00    +0.000 N 
ATOM      8  C   UNL     1      -1.609  10.149  17.364  0.00  0.00    +0.000 C 
ATOM      9  C   UNL     1      -2.701  10.184  16.306  0.00  0.00    +0.000 C 
ATOM     10  C   UNL     1      -3.958  10.400  17.120  0.00  0.00    +0.000 C 
ATOM     11  C   UNL     1      -3.495  11.343  18.230  0.00  0.00    +0.000 C 
ATOM     12  N   UNL     1      -1.425  13.087  19.171  0.00  0.00    +0.000 NA
ENDROOT
BRANCH   1  13
ATOM     13  C   UNL     1      -0.723  15.408  19.698  0.00  0.00    +0.000 C 
BRANCH  13  15
ATOM     14  C   UNL     1       0.159  17.186  18.410  0.00  0.00    +0.000 C 
ATOM     15  O   UNL     1      -0.247  15.823  18.411  0.00  0.00    +0.000 OA
ENDBRANCH  13  15
ENDBRANCH   1  13
BRANCH   5  16
ATOM     16  C   UNL     1      -0.050   9.762  20.044  0.00  0.00    +0.000 C 
BRANCH  16  17
ATOM     17  C   UNL     1       1.162   9.067  19.408  0.00  0.00    +0.000 C 
ATOM     18  O   UNL     1       1.656   9.461  18.354  0.00  0.00    +0.000 OA
ATOM     19  N   UNL     1       1.628   7.967  20.106  0.00  0.00    +0.000 N 
ATOM     20  H   UNL     1       1.125   7.634  20.917  0.00  0.00    +0.000 HD
BRANCH  19  21
ATOM     21  C   UNL     1       2.668   7.117  19.569  0.00  0.00    +0.000 C 
BRANCH  21  22
ATOM     22  C   UNL     1       2.138   5.724  19.349  0.00  0.00    +0.000 A 
ATOM     23  C   UNL     1       2.134   5.155  18.065  0.00  0.00    +0.000 A 
ATOM     24  C   UNL     1       1.604   3.880  17.863  0.00  0.00    +0.000 A 
ATOM     25  C   UNL     1       1.076   3.179  18.940  0.00  0.00    +0.000 A 
ATOM     26  F   UNL     1       0.554   1.961  18.740  0.00  0.00    +0.000 F 
ATOM     27  C   UNL     1       1.080   3.720  20.220  0.00  0.00    +0.000 A 
ATOM     28  C   UNL     1       1.609   4.995  20.426  0.00  0.00    +0.000 A 
ENDBRANCH  21  22
ENDBRANCH  19  21
ENDBRANCH  16  17
ENDBRANCH   5  16
TORSDOF 6
ENDMDL
MODEL 3
REMARK VINA RESULT:      -7.3      0.632      1.348
REMARK  Name = 
REMARK  7 active torsions:
REMARK  status: ('A' for Active; 'I' for Inactive)
REMARK    1  A    between atoms: C_1  and  O_2
REMARK    2  A    between atoms: O_2  and  C_3
REMARK    3  A    between atoms: C_3  and  C_4
REMARK    4  A    between atoms: N_8  and  C_9
REMARK    5  A    between atoms: C_9  and  C_10
REMARK    6  A    between atoms: N_12  and  C_13
REMARK    7  A    between atoms: C_13  and  C_14
REMARK                            x       y       z     vdW  Elec       q    Type
REMARK                         _______ _______ _______ _____ _____    ______ ____
ROOT
ATOM      1  C   UNL     1       5.828   5.130  17.820  0.00  0.00    +0.000 A 
ATOM      2  C   UNL     1       5.564   6.299  17.242  0.00  0.00    +0.000 A 
ATOM      3  C   UNL     1       4.234   6.872  17.400  0.00  0.00    +0.000 A 
ATOM      4  O   UNL     1       4.017   7.924  16.797  0.00  0.00    +0.000 OA
ATOM      5  N   UNL     1       3.360   6.195  18.219  0.00  0.00    +0.000 N 
ATOM      6  C   UNL     1       3.720   4.946  18.753  0.00  0.00    +0.000 A 
ATOM      7  N   UNL     1       2.788   4.244  19.518  0.00  0.00    +0.000 N 
ATOM      8  C   UNL     1       2.310   4.772  20.801  0.00  0.00    +0.000 C 
ATOM      9  C   UNL     1       2.185   3.576  21.733  0.00  0.00    +0.000 C 
ATOM     10  C   UNL     1       1.922   2.429  20.782  0.00  0.00    +0.000 C 
ATOM     11  C   UNL     1       2.791   2.774  19.573  0.00  0.00    +0.000 C 
ATOM     12  N   UNL     1       4.895   4.422  18.538  0.00  0.00    +0.000 NA
ENDROOT
BRANCH   1  13
ATOM     13  C   UNL     1       7.222   4.554  17.684  0.00  0.00    +0.000 C 
BRANCH  13  15
ATOM     14  C   UNL     1       6.756   3.985  15.436  0.00  0.00    +0.000 C 
ATOM     15  O   UNL     1       7.647   4.654  16.319  0.00  0.00    +0.000 OA
ENDBRANCH  13  15
ENDBRANCH   1  13
BRANCH   5  16
ATOM     16  C   UNL     1       2.002   6.726  18.383  0.00  0.00    +0.000 C 
BRANCH  16  17
ATOM     17  C   UNL     1       1.791   8.080  19.076  0.00  0.00    +0.000 C 
ATOM     18  O   UNL     1       1.808   8.191  20.300  0.00  0.00    +0.000 OA
ATOM     19  N   UNL     1       1.567   9.139  18.216  0.00  0.00    +0.000 N 
ATOM     20  H   UNL     1       1.471   8.973  17.224  0.00  0.00    +0.000 HD
BRANCH  19  21
ATOM     21  C   UNL     1       1.207  10.450  18.711  0.00  0.00    +0.000 C 
BRANCH  21  22
ATOM     22  C   UNL     1      -0.275  10.675  18.558  0.00  0.00    +0.000 A 
ATOM     23  C   UNL     1      -1.012   9.957  17.603  0.00  0.00    +0.000 A 
ATOM     24  C   UNL     1      -2.377  10.201  17.440  0.00  0.00    +0.000 A 
ATOM     25  C   UNL     1      -3.000  11.162  18.226  0.00  0.00    +0.000 A 
ATOM     26  F   UNL     1      -4.307  11.405  18.057  0.00  0.00    +0.000 F 
ATOM     27  C   UNL     1      -2.290  11.876  19.183  0.00  0.00    +0.000 A 
ATOM     28  C   UNL     1      -0.926  11.635  19.349  0.00  0.00    +0.000 A 
ENDBRANCH  21  22
ENDBRANCH  19  21
ENDBRANCH  16  17
ENDBRANCH   5  16
TORSDOF 6
ENDMDL
MODEL 4
REMARK VINA RESULT:      -7.3      3.750      7.738
REMARK  Name = 
REMARK  7 active torsions:
REMARK  status: ('A' for Active; 'I' for Inactive)
REMARK    1  A    between atoms: C_1  and  O_2
REMARK    2  A    between atoms: O_2  and  C_3
REMARK    3  A    between atoms: C_3  and  C_4
REMARK    4  A    between atoms: N_8  and  C_9
REMARK    5  A    between atoms: C_9  and  C_10
REMARK    6  A    between atoms: N_12  and  C_13
REMARK    7  A    between atoms: C_13  and  C_14
REMARK                            x       y       z     vdW  Elec       q    Type
REMARK                         _______ _______ _______ _____ _____    ______ ____
ROOT
ATOM      1  C   UNL     1       1.229   8.436  20.749  0.00  0.00    +0.000 A 
ATOM      2  C   UNL     1       1.478   9.054  19.598  0.00  0.00    +0.000 A 
ATOM      3  C   UNL     1       2.028   8.279  18.494  0.00  0.00    +0.000 A 
ATOM      4  O   UNL     1       2.299   8.905  17.469  0.00  0.00    +0.000 OA
ATOM      5  N   UNL     1       2.172   6.926  18.697  0.00  0.00    +0.000 N 
ATOM      6  C   UNL     1       1.919   6.373  19.964  0.00  0.00    +0.000 A 
ATOM      7  N   UNL     1       2.146   5.011  20.166  0.00  0.00    +0.000 N 
ATOM      8  C   UNL     1       1.360   3.998  19.452  0.00  0.00    +0.000 C 
ATOM      9  C   UNL     1       1.104   2.878  20.449  0.00  0.00    +0.000 C 
ATOM     10  C   UNL     1       2.289   2.977  21.385  0.00  0.00    +0.000 C 
ATOM     11  C   UNL     1       2.526   4.483  21.485  0.00  0.00    +0.000 C 
ATOM     12  N   UNL     1       1.493   7.103  20.957  0.00  0.00    +0.000 NA
ENDROOT
BRANCH   1  13
ATOM     13  C   UNL     1       0.624   9.236  21.883  0.00  0.00    +0.000 C 
BRANCH  13  15
ATOM     14  C   UNL     1      -0.372  11.381  21.930  0.00  0.00    +0.000 C 
ATOM     15  O   UNL     1      -0.419  10.076  21.370  0.00  0.00    +0.000 OA
ENDBRANCH  13  15
ENDBRANCH   1  13
BRANCH   5  16
ATOM     16  C   UNL     1       2.748   6.113  17.619  0.00  0.00    +0.000 C 
BRANCH  16  17
ATOM     17  C   UNL     1       4.263   5.863  17.578  0.00  0.00    +0.000 C 
ATOM     18  O   UNL     1       5.071   6.731  17.899  0.00  0.00    +0.000 OA
ATOM     19  N   UNL     1       4.628   4.604  17.139  0.00  0.00    +0.000 N 
ATOM     20  H   UNL     1       3.923   3.963  16.800  0.00  0.00    +0.000 HD
BRANCH  19  21
ATOM     21  C   UNL     1       6.013   4.258  16.905  0.00  0.00    +0.000 C 
BRANCH  21  22
ATOM     22  C   UNL     1       6.327   4.339  15.433  0.00  0.00    +0.000 A 
ATOM     23  C   UNL     1       5.609   3.569  14.505  0.00  0.00    +0.000 A 
ATOM     24  C   UNL     1       5.934   3.620  13.149  0.00  0.00    +0.000 A 
ATOM     25  C   UNL     1       6.978   4.434  12.724  0.00  0.00    +0.000 A 
ATOM     26  F   UNL     1       7.297   4.469  11.423  0.00  0.00    +0.000 F 
ATOM     27  C   UNL     1       7.694   5.211  13.626  0.00  0.00    +0.000 A 
ATOM     28  C   UNL     1       7.371   5.163  14.983  0.00  0.00    +0.000 A 
ENDBRANCH  21  22
ENDBRANCH  19  21
ENDBRANCH  16  17
ENDBRANCH   5  16
TORSDOF 6
ENDMDL
MODEL 5
REMARK VINA RESULT:      -7.2      2.436      2.944
REMARK  Name = 
REMARK  7 active torsions:
REMARK  status: ('A' for Active; 'I' for Inactive)
REMARK    1  A    between atoms: C_1  and  O_2
REMARK    2  A    between atoms: O_2  and  C_3
REMARK    3  A    between atoms: C_3  and  C_4
REMARK    4  A    between atoms: N_8  and  C_9
REMARK    5  A    between atoms: C_9  and  C_10
REMARK    6  A    between atoms: N_12  and  C_13
REMARK    7  A    between atoms: C_13  and  C_14
REMARK                            x       y       z     vdW  Elec       q    Type
REMARK                         _______ _______ _______ _____ _____    ______ ____
ROOT
ATOM      1  C   UNL     1       5.107   4.361  16.407  0.00  0.00    +0.000 A 
ATOM      2  C   UNL     1       5.602   5.589  16.529  0.00  0.00    +0.000 A 
ATOM      3  C   UNL     1       4.966   6.510  17.462  0.00  0.00    +0.000 A 
ATOM      4  O   UNL     1       5.420   7.653  17.497  0.00  0.00    +0.000 OA
ATOM      5  N   UNL     1       3.936   6.007  18.224  0.00  0.00    +0.000 N 
ATOM      6  C   UNL     1       3.459   4.705  17.991  0.00  0.00    +0.000 A 
ATOM      7  N   UNL     1       2.364   4.246  18.723  0.00  0.00    +0.000 N 
ATOM      8  C   UNL     1       2.445   4.068  20.178  0.00  0.00    +0.000 C 
ATOM      9  C   UNL     1       1.666   2.801  20.496  0.00  0.00    +0.000 C 
ATOM     10  C   UNL     1       0.650   2.735  19.376  0.00  0.00    +0.000 C 
ATOM     11  C   UNL     1       1.431   3.252  18.169  0.00  0.00    +0.000 C 
ATOM     12  N   UNL     1       4.003   3.925  17.099  0.00  0.00    +0.000 NA
ENDROOT
BRANCH   1  13
ATOM     13  C   UNL     1       5.793   3.396  15.463  0.00  0.00    +0.000 C 
BRANCH  13  15
ATOM     14  C   UNL     1       6.323   3.783  13.191  0.00  0.00    +0.000 C 
ATOM     15  O   UNL     1       6.607   4.130  14.540  0.00  0.00    +0.000 OA
ENDBRANCH  13  15
ENDBRANCH   1  13
BRANCH   5  16
ATOM     16  C   UNL     1       3.250   6.909  19.157  0.00  0.00    +0.000 C 
BRANCH  16  17
ATOM     17  C   UNL     1       2.261   7.953  18.620  0.00  0.00    +0.000 C 
ATOM     18  O   UNL     1       2.107   8.140  17.415  0.00  0.00    +0.000 OA
ATOM     19  N   UNL     1       1.585   8.662  19.596  0.00  0.00    +0.000 N 
ATOM     20  H   UNL     1       1.819   8.531  20.569  0.00  0.00    +0.000 HD
BRANCH  19  21
ATOM     21  C   UNL     1       0.727   9.778  19.260  0.00  0.00    +0.000 C 
BRANCH  21  22
ATOM     22  C   UNL     1       0.025  10.284  20.494  0.00  0.00    +0.000 A 
ATOM     23  C   UNL     1       0.079   9.558  21.695  0.00  0.00    +0.000 A 
ATOM     24  C   UNL     1      -0.608  10.012  22.822  0.00  0.00    +0.000 A 
ATOM     25  C   UNL     1      -1.350  11.185  22.746  0.00  0.00    +0.000 A 
ATOM     26  F   UNL     1      -2.020  11.611  23.825  0.00  0.00    +0.000 F 
ATOM     27  C   UNL     1      -1.407  11.922  21.569  0.00  0.00    +0.000 A 
ATOM     28  C   UNL     1      -0.721  11.471  20.441  0.00  0.00    +0.000 A 
ENDBRANCH  21  22
ENDBRANCH  19  21
ENDBRANCH  16  17
ENDBRANCH   5  16
TORSDOF 6
ENDMDL
MODEL 6
REMARK VINA RESULT:      -7.2      3.964      7.713
REMARK  Name = 
REMARK  7 active torsions:
REMARK  status: ('A' for Active; 'I' for Inactive)
REMARK    1  A    between atoms: C_1  and  O_2
REMARK    2  A    between atoms: O_2  and  C_3
REMARK    3  A    between atoms: C_3  and  C_4
REMARK    4  A    between atoms: N_8  and  C_9
REMARK    5  A    between atoms: C_9  and  C_10
REMARK    6  A    between atoms: N_12  and  C_13
REMARK    7  A    between atoms: C_13  and  C_14
REMARK                            x       y       z     vdW  Elec       q    Type
REMARK                         _______ _______ _______ _____ _____    ______ ____
ROOT
ATOM      1  C   UNL     1       1.522   8.190  20.873  0.00  0.00    +0.000 A 
ATOM      2  C   UNL     1       1.808   8.783  19.717  0.00  0.00    +0.000 A 
ATOM      3  C   UNL     1       2.271   7.961  18.606  0.00  0.00    +0.000 A 
ATOM      4  O   UNL     1       2.581   8.559  17.576  0.00  0.00    +0.000 OA
ATOM      5  N   UNL     1       2.297   6.600  18.811  0.00  0.00    +0.000 N 
ATOM      6  C   UNL     1       2.014   6.074  20.082  0.00  0.00    +0.000 A 
ATOM      7  N   UNL     1       2.121   4.697  20.284  0.00  0.00    +0.000 N 
ATOM      8  C   UNL     1       1.238   3.758  19.583  0.00  0.00    +0.000 C 
ATOM      9  C   UNL     1       0.898   2.666  20.586  0.00  0.00    +0.000 C 
ATOM     10  C   UNL     1       2.101   2.660  21.504  0.00  0.00    +0.000 C 
ATOM     11  C   UNL     1       2.473   4.139  21.598  0.00  0.00    +0.000 C 
ATOM     12  N   UNL     1       1.669   6.840  21.080  0.00  0.00    +0.000 NA
ENDROOT
BRANCH   1  13
ATOM     13  C   UNL     1       1.008   9.042  22.014  0.00  0.00    +0.000 C 
BRANCH  13  15
ATOM     14  C   UNL     1      -0.252  11.033  21.801  0.00  0.00    +0.000 C 
ATOM     15  O   UNL     1       1.019  10.421  21.622  0.00  0.00    +0.000 OA
ENDBRANCH  13  15
ENDBRANCH   1  13
BRANCH   5  16
ATOM     16  C   UNL     1       2.781   5.739  17.725  0.00  0.00    +0.000 C 
BRANCH  16  17
ATOM     17  C   UNL     1       4.284   5.453  17.593  0.00  0.00    +0.000 C 
ATOM     18  O   UNL     1       4.939   4.985  18.521  0.00  0.00    +0.000 OA
ATOM     19  N   UNL     1       4.827   5.781  16.363  0.00  0.00    +0.000 N 
ATOM     20  H   UNL     1       4.261   6.249  15.670  0.00  0.00    +0.000 HD
BRANCH  19  21
ATOM     21  C   UNL     1       6.252   5.710  16.124  0.00  0.00    +0.000 C 
BRANCH  21  22
ATOM     22  C   UNL     1       6.524   5.066  14.789  0.00  0.00    +0.000 A 
ATOM     23  C   UNL     1       7.615   5.476  14.007  0.00  0.00    +0.000 A 
ATOM     24  C   UNL     1       7.836   4.904  12.753  0.00  0.00    +0.000 A 
ATOM     25  C   UNL     1       6.965   3.928  12.283  0.00  0.00    +0.000 A 
ATOM     26  F   UNL     1       7.170   3.391  11.073  0.00  0.00    +0.000 F 
ATOM     27  C   UNL     1       5.885   3.502  13.047  0.00  0.00    +0.000 A 
ATOM     28  C   UNL     1       5.662   4.072  14.300  0.00  0.00    +0.000 A 
ENDBRANCH  21  22
ENDBRANCH  19  21
ENDBRANCH  16  17
ENDBRANCH   5  16
TORSDOF 6
ENDMDL
MODEL 7
REMARK VINA RESULT:      -7.1      2.858      3.617
REMARK  Name = 
REMARK  7 active torsions:
REMARK  status: ('A' for Active; 'I' for Inactive)
REMARK    1  A    between atoms: C_1  and  O_2
REMARK    2  A    between atoms: O_2  and  C_3
REMARK    3  A    between atoms: C_3  and  C_4
REMARK    4  A    between atoms: N_8  and  C_9
REMARK    5  A    between atoms: C_9  and  C_10
REMARK    6  A    between atoms: N_12  and  C_13
REMARK    7  A    between atoms: C_13  and  C_14
REMARK                            x       y       z     vdW  Elec       q    Type
REMARK                         _______ _______ _______ _____ _____    ______ ____
ROOT
ATOM      1  C   UNL     1       5.727   4.342  14.955  0.00  0.00    +0.000 A 
ATOM      2  C   UNL     1       5.941   5.652  15.030  0.00  0.00    +0.000 A 
ATOM      3  C   UNL     1       5.431   6.378  16.186  0.00  0.00    +0.000 A 
ATOM      4  O   UNL     1       5.600   7.597  16.183  0.00  0.00    +0.000 OA
ATOM      5  N   UNL     1       4.829   5.630  17.172  0.00  0.00    +0.000 N 
ATOM      6  C   UNL     1       4.614   4.255  16.980  0.00  0.00    +0.000 A 
ATOM      7  N   UNL     1       3.933   3.533  17.961  0.00  0.00    +0.000 N 
ATOM      8  C   UNL     1       4.497   3.364  19.305  0.00  0.00    +0.000 C 
ATOM      9  C   UNL     1       4.165   1.941  19.729  0.00  0.00    +0.000 C 
ATOM     10  C   UNL     1       2.897   1.643  18.959  0.00  0.00    +0.000 C 
ATOM     11  C   UNL     1       3.128   2.349  17.624  0.00  0.00    +0.000 C 
ATOM     12  N   UNL     1       5.020   3.641  15.903  0.00  0.00    +0.000 NA
ENDROOT
BRANCH   1  13
ATOM     13  C   UNL     1       6.289   3.584  13.771  0.00  0.00    +0.000 C 
BRANCH  13  15
ATOM     14  C   UNL     1       5.591   2.588  11.742  0.00  0.00    +0.000 C 
ATOM     15  O   UNL     1       5.346   3.617  12.692  0.00  0.00    +0.000 OA
ENDBRANCH  13  15
ENDBRANCH   1  13
BRANCH   5  16
ATOM     16  C   UNL     1       4.278   6.326  18.340  0.00  0.00    +0.000 C 
BRANCH  16  17
ATOM     17  C   UNL     1       2.846   6.879  18.293  0.00  0.00    +0.000 C 
ATOM     18  O   UNL     1       1.873   6.145  18.137  0.00  0.00    +0.000 OA
ATOM     19  N   UNL     1       2.754   8.254  18.421  0.00  0.00    +0.000 N 
ATOM     20  H   UNL     1       3.593   8.815  18.453  0.00  0.00    +0.000 HD
BRANCH  19  21
ATOM     21  C   UNL     1       1.494   8.945  18.252  0.00  0.00    +0.000 C 
BRANCH  21  22
ATOM     22  C   UNL     1       0.944   9.358  19.593  0.00  0.00    +0.000 A 
ATOM     23  C   UNL     1       1.224   8.603  20.743  0.00  0.00    +0.000 A 
ATOM     24  C   UNL     1       0.677   8.969  21.974  0.00  0.00    +0.000 A 
ATOM     25  C   UNL     1      -0.151  10.083  22.052  0.00  0.00    +0.000 A 
ATOM     26  F   UNL     1      -0.686  10.423  23.232  0.00  0.00    +0.000 F 
ATOM     27  C   UNL     1      -0.431  10.848  20.927  0.00  0.00    +0.000 A 
ATOM     28  C   UNL     1       0.114  10.485  19.695  0.00  0.00    +0.000 A 
ENDBRANCH  21  22
ENDBRANCH  19  21
ENDBRANCH  16  17
ENDBRANCH   5  16
TORSDOF 6
ENDMDL
MODEL 8
REMARK VINA RESULT:      -7.0      3.441      7.122
REMARK  Name = 
REMARK  7 active torsions:
REMARK  status: ('A' for Active; 'I' for Inactive)
REMARK    1  A    between atoms: C_1  and  O_2
REMARK    2  A    between atoms: O_2  and  C_3
REMARK    3  A    between atoms: C_3  and  C_4
REMARK    4  A    between atoms: N_8  and  C_9
REMARK    5  A    between atoms: C_9  and  C_10
REMARK    6  A    between atoms: N_12  and  C_13
REMARK    7  A    between atoms: C_13  and  C_14
REMARK                            x       y       z     vdW  Elec       q    Type
REMARK                         _______ _______ _______ _____ _____    ______ ____
ROOT
ATOM      1  C   UNL     1       1.601   8.085  20.494  0.00  0.00    +0.000 A 
ATOM      2  C   UNL     1       1.909   8.551  19.287  0.00  0.00    +0.000 A 
ATOM      3  C   UNL     1       2.340   7.609  18.263  0.00  0.00    +0.000 A 
ATOM      4  O   UNL     1       2.672   8.093  17.181  0.00  0.00    +0.000 OA
ATOM      5  N   UNL     1       2.317   6.275  18.599  0.00  0.00    +0.000 N 
ATOM      6  C   UNL     1       2.015   5.885  19.915  0.00  0.00    +0.000 A 
ATOM      7  N   UNL     1       2.072   4.532  20.250  0.00  0.00    +0.000 N 
ATOM      8  C   UNL     1       1.155   3.561  19.641  0.00  0.00    +0.000 C 
ATOM      9  C   UNL     1       0.776   2.585  20.744  0.00  0.00    +0.000 C 
ATOM     10  C   UNL     1       1.978   2.625  21.663  0.00  0.00    +0.000 C 
ATOM     11  C   UNL     1       2.404   4.091  21.613  0.00  0.00    +0.000 C 
ATOM     12  N   UNL     1       1.699   6.757  20.832  0.00  0.00    +0.000 NA
ENDROOT
BRANCH   1  13
ATOM     13  C   UNL     1       1.119   9.062  21.546  0.00  0.00    +0.000 C 
BRANCH  13  15
ATOM     14  C   UNL     1      -0.352  10.902  21.331  0.00  0.00    +0.000 C 
ATOM     15  O   UNL     1      -0.210   9.492  21.223  0.00  0.00    +0.000 OA
ENDBRANCH  13  15
ENDBRANCH   1  13
BRANCH   5  16
ATOM     16  C   UNL     1       2.769   5.295  17.604  0.00  0.00    +0.000 C 
BRANCH  16  17
ATOM     17  C   UNL     1       4.230   4.821  17.611  0.00  0.00    +0.000 C 
ATOM     18  O   UNL     1       4.675   4.104  18.504  0.00  0.00    +0.000 OA
ATOM     19  N   UNL     1       4.990   5.281  16.550  0.00  0.00    +0.000 N 
ATOM     20  H   UNL     1       4.596   5.943  15.896  0.00  0.00    +0.000 HD
BRANCH  19  21
ATOM     21  C   UNL     1       6.416   5.046  16.486  0.00  0.00    +0.000 C 
BRANCH  21  22
ATOM     22  C   UNL     1       7.155   6.124  17.237  0.00  0.00    +0.000 A 
ATOM     23  C   UNL     1       7.784   5.840  18.459  0.00  0.00    +0.000 A 
ATOM     24  C   UNL     1       8.431   6.852  19.169  0.00  0.00    +0.000 A 
ATOM     25  C   UNL     1       8.443   8.145  18.661  0.00  0.00    +0.000 A 
ATOM     26  F   UNL     1       9.051   9.119  19.351  0.00  0.00    +0.000 F 
ATOM     27  C   UNL     1       7.834   8.445  17.448  0.00  0.00    +0.000 A 
ATOM     28  C   UNL     1       7.187   7.434  16.736  0.00  0.00    +0.000 A 
ENDBRANCH  21  22
ENDBRANCH  19  21
ENDBRANCH  16  17
ENDBRANCH   5  16
TORSDOF 6
ENDMDL
MODEL 9
REMARK VINA RESULT:      -7.0      3.749      8.447
REMARK  Name = 
REMARK  7 active torsions:
REMARK  status: ('A' for Active; 'I' for Inactive)
REMARK    1  A    between atoms: C_1  and  O_2
REMARK    2  A    between atoms: O_2  and  C_3
REMARK    3  A    between atoms: C_3  and  C_4
REMARK    4  A    between atoms: N_8  and  C_9
REMARK    5  A    between atoms: C_9  and  C_10
REMARK    6  A    between atoms: N_12  and  C_13
REMARK    7  A    between atoms: C_13  and  C_14
REMARK                            x       y       z     vdW  Elec       q    Type
REMARK                         _______ _______ _______ _____ _____    ______ ____
ROOT
ATOM      1  C   UNL     1      -2.198  10.892  17.763  0.00  0.00    +0.000 A 
ATOM      2  C   UNL     1      -1.166  10.119  17.438  0.00  0.00    +0.000 A 
ATOM      3  C   UNL     1      -0.069   9.981  18.388  0.00  0.00    +0.000 A 
ATOM      4  O   UNL     1       0.891   9.305  18.020  0.00  0.00    +0.000 OA
ATOM      5  N   UNL     1      -0.223  10.603  19.606  0.00  0.00    +0.000 N 
ATOM      6  C   UNL     1      -1.333  11.432  19.838  0.00  0.00    +0.000 A 
ATOM      7  N   UNL     1      -1.427  12.113  21.053  0.00  0.00    +0.000 N 
ATOM      8  C   UNL     1      -1.573  11.386  22.319  0.00  0.00    +0.000 C 
ATOM      9  C   UNL     1      -2.544  12.195  23.165  0.00  0.00    +0.000 C 
ATOM     10  C   UNL     1      -2.346  13.606  22.655  0.00  0.00    +0.000 C 
ATOM     11  C   UNL     1      -2.120  13.406  21.158  0.00  0.00    +0.000 C 
ATOM     12  N   UNL     1      -2.268  11.594  18.943  0.00  0.00    +0.000 NA
ENDROOT
BRANCH   1  13
ATOM     13  C   UNL     1      -3.352  11.004  16.789  0.00  0.00    +0.000 C 
BRANCH  13  15
ATOM     14  C   UNL     1      -3.322  10.251  14.548  0.00  0.00    +0.000 C 
ATOM     15  O   UNL     1      -3.350   9.867  15.916  0.00  0.00    +0.000 OA
ENDBRANCH  13  15
ENDBRANCH   1  13
BRANCH   5  16
ATOM     16  C   UNL     1       0.871  10.512  20.581  0.00  0.00    +0.000 C 
BRANCH  16  17
ATOM     17  C   UNL     1       1.093   9.205  21.357  0.00  0.00    +0.000 C 
ATOM     18  O   UNL     1       0.955   9.145  22.576  0.00  0.00    +0.000 OA
ATOM     19  N   UNL     1       1.473   8.128  20.576  0.00  0.00    +0.000 N 
ATOM     20  H   UNL     1       1.661   8.260  19.592  0.00  0.00    +0.000 HD
BRANCH  19  21
ATOM     21  C   UNL     1       1.861   6.867  21.167  0.00  0.00    +0.000 C 
BRANCH  21  22
ATOM     22  C   UNL     1       1.860   5.781  20.123  0.00  0.00    +0.000 A 
ATOM     23  C   UNL     1       1.300   4.523  20.399  0.00  0.00    +0.000 A 
ATOM     24  C   UNL     1       1.340   3.510  19.441  0.00  0.00    +0.000 A 
ATOM     25  C   UNL     1       1.943   3.752  18.212  0.00  0.00    +0.000 A 
ATOM     26  F   UNL     1       1.994   2.772  17.300  0.00  0.00    +0.000 F 
ATOM     27  C   UNL     1       2.495   4.993  17.917  0.00  0.00    +0.000 A 
ATOM     28  C   UNL     1       2.456   6.008  18.872  0.00  0.00    +0.000 A 
ENDBRANCH  21  22
ENDBRANCH  19  21
ENDBRANCH  16  17
ENDBRANCH   5  16
TORSDOF 6
ENDMDL
