MODEL 1
REMARK VINA RESULT:      -6.7      0.000      0.000
REMARK  Name = 
REMARK  13 active torsions:
REMARK  status: ('A' for Active; 'I' for Inactive)
REMARK    1  A    between atoms: C_1  and  C_2
REMARK    2  A    between atoms: C_2  and  O_3
REMARK    3  A    between atoms: O_3  and  C_4
REMARK    4  A    between atoms: C_4  and  S_5
REMARK    5  A    between atoms: S_5  and  C_6
REMARK    6  A    between atoms: C_9  and  C_10
REMARK    7  A    between atoms: N_13  and  C_14
REMARK    8  A    between atoms: C_21  and  C_22
REMARK    9  A    between atoms: C_25  and  S_26
REMARK   10  A    between atoms: S_26  and  C_27
REMARK   11  A    between atoms: C_27  and  O_28
REMARK   12  A    between atoms: O_28  and  C_29
REMARK   13  A    between atoms: C_29  and  C_30
REMARK                            x       y       z     vdW  Elec       q    Type
REMARK                         _______ _______ _______ _____ _____    ______ ____
ROOT
ATOM      1  C   UNL     1       0.893   9.679  20.925  0.00  0.00    +0.000 A 
ATOM      2  N   UNL     1       1.202   9.463  22.233  0.00  0.00    +0.000 NA
ATOM      3  N   UNL     1       0.583  10.388  22.955  0.00  0.00    +0.000 NA
ATOM      4  N   UNL     1      -0.216  11.126  22.139  0.00  0.00    +0.000 N 
ATOM      5  C   UNL     1      -0.001  10.731  20.826  0.00  0.00    +0.000 A 
ENDROOT
BRANCH   4   6
ATOM      6  C   UNL     1      -1.213  11.983  22.691  0.00  0.00    +0.000 A 
ATOM      7  C   UNL     1      -2.401  11.420  23.198  0.00  0.00    +0.000 A 
ATOM      8  C   UNL     1      -3.370  12.220  23.809  0.00  0.00    +0.000 A 
ATOM      9  C   UNL     1      -3.163  13.587  23.940  0.00  0.00    +0.000 A 
ATOM     10  C   UNL     1      -1.993  14.160  23.445  0.00  0.00    +0.000 A 
ATOM     11  C   UNL     1      -1.017  13.370  22.816  0.00  0.00    +0.000 A 
ATOM     12 CL   UNL     1       0.314  14.233  22.124  0.00  0.00    +0.000 Cl
ENDBRANCH   4   6
BRANCH   1  16
ATOM     13  C   UNL     1       2.367   7.334  18.632  0.00  0.00    +0.000 A 
ATOM     14  N   UNL     1       1.964   8.257  17.788  0.00  0.00    +0.000 NA
ATOM     15  N   UNL     1       1.366   9.242  18.534  0.00  0.00    +0.000 NA
ATOM     16  C   UNL     1       1.454   8.879  19.799  0.00  0.00    +0.000 A 
ATOM     17  O   UNL     1       2.116   7.677  19.937  0.00  0.00    +0.000 OA
BRANCH  13  18
ATOM     18  S   UNL     1       3.154   5.878  18.121  0.00  0.00    +0.000 S 
BRANCH  18  19
ATOM     19  C   UNL     1       1.945   4.630  18.615  0.00  0.00    +0.000 C 
BRANCH  19  20
ATOM     20  O   UNL     1       2.218   4.206  19.950  0.00  0.00    +0.000 OA
BRANCH  20  22
ATOM     21  C   UNL     1       1.588   2.676  21.662  0.00  0.00    +0.000 C 
ATOM     22  C   UNL     1       1.087   3.625  20.588  0.00  0.00    +0.000 C 
ENDBRANCH  20  22
ENDBRANCH  19  20
ENDBRANCH  18  19
ENDBRANCH  13  18
ENDBRANCH   1  16
BRANCH   5  23
ATOM     23  C   UNL     1      -0.645  11.251  19.674  0.00  0.00    +0.000 A 
ATOM     24  N   UNL     1      -0.334  12.422  19.160  0.00  0.00    +0.000 NA
ATOM     25  N   UNL     1      -1.084  12.576  18.022  0.00  0.00    +0.000 NA
ATOM     26  C   UNL     1      -1.803  11.483  17.889  0.00  0.00    +0.000 A 
ATOM     27  O   UNL     1      -1.570  10.584  18.902  0.00  0.00    +0.000 OA
BRANCH  26  28
ATOM     28  S   UNL     1      -2.865  11.232  16.548  0.00  0.00    +0.000 S 
BRANCH  28  29
ATOM     29  C   UNL     1      -4.469  11.634  17.266  0.00  0.00    +0.000 C 
BRANCH  29  30
ATOM     30  O   UNL     1      -4.894  10.550  18.084  0.00  0.00    +0.000 OA
BRANCH  30  31
ATOM     31  C   UNL     1      -6.171  10.761  18.669  0.00  0.00    +0.000 C 
ATOM     32  C   UNL     1      -6.870  11.841  17.866  0.00  0.00    +0.000 C 
ENDBRANCH  30  31
ENDBRANCH  29  30
ENDBRANCH  28  29
ENDBRANCH  26  28
ENDBRANCH   5  23
TORSDOF 11
ENDMDL
MODEL 2
REMARK VINA RESULT:      -6.5      1.762      2.298
REMARK  Name = 
REMARK  13 active torsions:
REMARK  status: ('A' for Active; 'I' for Inactive)
REMARK    1  A    between atoms: C_1  and  C_2
REMARK    2  A    between atoms: C_2  and  O_3
REMARK    3  A    between atoms: O_3  and  C_4
REMARK    4  A    between atoms: C_4  and  S_5
REMARK    5  A    between atoms: S_5  and  C_6
REMARK    6  A    between atoms: C_9  and  C_10
REMARK    7  A    between atoms: N_13  and  C_14
REMARK    8  A    between atoms: C_21  and  C_22
REMARK    9  A    between atoms: C_25  and  S_26
REMARK   10  A    between atoms: S_26  and  C_27
REMARK   11  A    between atoms: C_27  and  O_28
REMARK   12  A    between atoms: O_28  and  C_29
REMARK   13  A    between atoms: C_29  and  C_30
REMARK                            x       y       z     vdW  Elec       q    Type
REMARK                         _______ _______ _______ _____ _____    ______ ____
ROOT
ATOM      1  C   UNL     1       0.716   9.296  21.689  0.00  0.00    +0.000 A 
ATOM      2  N   UNL     1       0.852   9.264  23.043  0.00  0.00    +0.000 NA
ATOM      3  N   UNL     1       0.242  10.334  23.537  0.00  0.00    +0.000 NA
ATOM      4  N   UNL     1      -0.386  10.993  22.527  0.00  0.00    +0.000 N 
ATOM      5  C   UNL     1      -0.059  10.383  21.324  0.00  0.00    +0.000 A 
ENDROOT
BRANCH   4   6
ATOM      6  C   UNL     1      -1.356  11.997  22.817  0.00  0.00    +0.000 A 
ATOM      7  C   UNL     1      -2.617  11.613  23.314  0.00  0.00    +0.000 A 
ATOM      8  C   UNL     1      -3.568  12.572  23.674  0.00  0.00    +0.000 A 
ATOM      9  C   UNL     1      -3.270  13.924  23.562  0.00  0.00    +0.000 A 
ATOM     10  C   UNL     1      -2.027  14.321  23.072  0.00  0.00    +0.000 A 
ATOM     11  C   UNL     1      -1.068  13.368  22.693  0.00  0.00    +0.000 A 
ATOM     12 CL   UNL     1       0.372  14.001  21.971  0.00  0.00    +0.000 Cl
ENDBRANCH   4   6
BRANCH   1  16
ATOM     13  C   UNL     1       2.357   7.348  19.151  0.00  0.00    +0.000 A 
ATOM     14  N   UNL     1       2.026   6.394  19.992  0.00  0.00    +0.000 NA
ATOM     15  N   UNL     1       1.376   6.999  21.039  0.00  0.00    +0.000 NA
ATOM     16  C   UNL     1       1.326   8.289  20.772  0.00  0.00    +0.000 A 
ATOM     17  O   UNL     1       1.910   8.580  19.557  0.00  0.00    +0.000 OA
BRANCH  13  18
ATOM     18  S   UNL     1       3.232   7.041  17.688  0.00  0.00    +0.000 S 
BRANCH  18  19
ATOM     19  C   UNL     1       3.335   5.238  17.708  0.00  0.00    +0.000 C 
BRANCH  19  20
ATOM     20  O   UNL     1       4.536   4.823  17.060  0.00  0.00    +0.000 OA
BRANCH  20  22
ATOM     21  C   UNL     1       6.609   5.501  16.104  0.00  0.00    +0.000 C 
ATOM     22  C   UNL     1       5.151   5.867  16.314  0.00  0.00    +0.000 C 
ENDBRANCH  20  22
ENDBRANCH  19  20
ENDBRANCH  18  19
ENDBRANCH  13  18
ENDBRANCH   1  16
BRANCH   5  23
ATOM     23  C   UNL     1      -0.516  10.763  20.036  0.00  0.00    +0.000 A 
ATOM     24  N   UNL     1      -0.049  11.819  19.405  0.00  0.00    +0.000 NA
ATOM     25  N   UNL     1      -0.643  11.847  18.170  0.00  0.00    +0.000 NA
ATOM     26  C   UNL     1      -1.430  10.796  18.101  0.00  0.00    +0.000 A 
ATOM     27  O   UNL     1      -1.395  10.048  19.254  0.00  0.00    +0.000 OA
BRANCH  26  28
ATOM     28  S   UNL     1      -2.342  10.414  16.682  0.00  0.00    +0.000 S 
BRANCH  28  29
ATOM     29  C   UNL     1      -3.864  11.339  16.961  0.00  0.00    +0.000 C 
BRANCH  29  30
ATOM     30  O   UNL     1      -4.415  10.955  18.216  0.00  0.00    +0.000 OA
BRANCH  30  31
ATOM     31  C   UNL     1      -5.019  12.036  18.913  0.00  0.00    +0.000 C 
ATOM     32  C   UNL     1      -3.999  12.573  19.898  0.00  0.00    +0.000 C 
ENDBRANCH  30  31
ENDBRANCH  29  30
ENDBRANCH  28  29
ENDBRANCH  26  28
ENDBRANCH   5  23
TORSDOF 11
ENDMDL
MODEL 3
REMARK VINA RESULT:      -6.3      5.160      8.584
REMARK  Name = 
REMARK  13 active torsions:
REMARK  status: ('A' for Active; 'I' for Inactive)
REMARK    1  A    between atoms: C_1  and  C_2
REMARK    2  A    between atoms: C_2  and  O_3
REMARK    3  A    between atoms: O_3  and  C_4
REMARK    4  A    between atoms: C_4  and  S_5
REMARK    5  A    between atoms: S_5  and  C_6
REMARK    6  A    between atoms: C_9  and  C_10
REMARK    7  A    between atoms: N_13  and  C_14
REMARK    8  A    between atoms: C_21  and  C_22
REMARK    9  A    between atoms: C_25  and  S_26
REMARK   10  A    between atoms: S_26  and  C_27
REMARK   11  A    between atoms: C_27  and  O_28
REMARK   12  A    between atoms: O_28  and  C_29
REMARK   13  A    between atoms: C_29  and  C_30
REMARK                            x       y       z     vdW  Elec       q    Type
REMARK                         _______ _______ _______ _____ _____    ______ ____
ROOT
ATOM      1  C   UNL     1       5.944   5.414  18.474  0.00  0.00    +0.000 A 
ATOM      2  N   UNL     1       6.400   4.155  18.713  0.00  0.00    +0.000 NA
ATOM      3  N   UNL     1       5.421   3.469  19.288  0.00  0.00    +0.000 NA
ATOM      4  N   UNL     1       4.299   4.237  19.316  0.00  0.00    +0.000 N 
ATOM      5  C   UNL     1       4.615   5.507  18.850  0.00  0.00    +0.000 A 
ENDROOT
BRANCH   4   6
ATOM      6  C   UNL     1       3.031   3.651  19.602  0.00  0.00    +0.000 A 
ATOM      7  C   UNL     1       2.600   3.564  20.940  0.00  0.00    +0.000 A 
ATOM      8  C   UNL     1       1.335   3.060  21.255  0.00  0.00    +0.000 A 
ATOM      9  C   UNL     1       0.477   2.651  20.242  0.00  0.00    +0.000 A 
ATOM     10  C   UNL     1       0.888   2.731  18.913  0.00  0.00    +0.000 A 
ATOM     11  C   UNL     1       2.161   3.223  18.584  0.00  0.00    +0.000 A 
ATOM     12 CL   UNL     1       2.590   3.131  16.910  0.00  0.00    +0.000 Cl
ENDBRANCH   4   6
BRANCH   1  16
ATOM     13  C   UNL     1       7.829   8.341  17.576  0.00  0.00    +0.000 A 
ATOM     14  N   UNL     1       8.141   7.552  16.572  0.00  0.00    +0.000 NA
ATOM     15  N   UNL     1       7.480   6.367  16.781  0.00  0.00    +0.000 NA
ATOM     16  C   UNL     1       6.782   6.502  17.892  0.00  0.00    +0.000 A 
ATOM     17  O   UNL     1       6.934   7.759  18.438  0.00  0.00    +0.000 OA
BRANCH  13  18
ATOM     18  S   UNL     1       8.470   9.942  17.740  0.00  0.00    +0.000 S 
BRANCH  18  19
ATOM     19  C   UNL     1       9.279   9.836  19.352  0.00  0.00    +0.000 C 
BRANCH  19  20
ATOM     20  O   UNL     1      10.233  10.890  19.476  0.00  0.00    +0.000 OA
BRANCH  20  22
ATOM     21  C   UNL     1      10.839  12.974  20.454  0.00  0.00    +0.000 C 
ATOM     22  C   UNL     1       9.995  11.722  20.604  0.00  0.00    +0.000 C 
ENDBRANCH  20  22
ENDBRANCH  19  20
ENDBRANCH  18  19
ENDBRANCH  13  18
ENDBRANCH   1  16
BRANCH   5  23
ATOM     23  C   UNL     1       3.721   6.600  18.714  0.00  0.00    +0.000 A 
ATOM     24  N   UNL     1       3.513   7.203  17.563  0.00  0.00    +0.000 NA
ATOM     25  N   UNL     1       2.545   8.151  17.773  0.00  0.00    +0.000 NA
ATOM     26  C   UNL     1       2.196   8.067  19.037  0.00  0.00    +0.000 A 
ATOM     27  O   UNL     1       2.898   7.090  19.703  0.00  0.00    +0.000 OA
BRANCH  26  28
ATOM     28  S   UNL     1       0.956   9.057  19.723  0.00  0.00    +0.000 S 
BRANCH  28  29
ATOM     29  C   UNL     1       0.573  10.170  18.358  0.00  0.00    +0.000 C 
BRANCH  29  30
ATOM     30  O   UNL     1       1.227  11.415  18.578  0.00  0.00    +0.000 OA
BRANCH  30  31
ATOM     31  C   UNL     1       0.813  12.057  19.776  0.00  0.00    +0.000 C 
ATOM     32  C   UNL     1      -0.301  13.022  19.416  0.00  0.00    +0.000 C 
ENDBRANCH  30  31
ENDBRANCH  29  30
ENDBRANCH  28  29
ENDBRANCH  26  28
ENDBRANCH   5  23
TORSDOF 11
ENDMDL
MODEL 4
REMARK VINA RESULT:      -6.3      2.942      7.087
REMARK  Name = 
REMARK  13 active torsions:
REMARK  status: ('A' for Active; 'I' for Inactive)
REMARK    1  A    between atoms: C_1  and  C_2
REMARK    2  A    between atoms: C_2  and  O_3
REMARK    3  A    between atoms: O_3  and  C_4
REMARK    4  A    between atoms: C_4  and  S_5
REMARK    5  A    between atoms: S_5  and  C_6
REMARK    6  A    between atoms: C_9  and  C_10
REMARK    7  A    between atoms: N_13  and  C_14
REMARK    8  A    between atoms: C_21  and  C_22
REMARK    9  A    between atoms: C_25  and  S_26
REMARK   10  A    between atoms: S_26  and  C_27
REMARK   11  A    between atoms: C_27  and  O_28
REMARK   12  A    between atoms: O_28  and  C_29
REMARK   13  A    between atoms: C_29  and  C_30
REMARK                            x       y       z     vdW  Elec       q    Type
REMARK                         _______ _______ _______ _____ _____    ______ ____
ROOT
ATOM      1  C   UNL     1      -0.119  10.456  22.193  0.00  0.00    +0.000 A 
ATOM      2  N   UNL     1       0.735   9.709  22.944  0.00  0.00    +0.000 NA
ATOM      3  N   UNL     1       1.310   8.822  22.143  0.00  0.00    +0.000 NA
ATOM      4  N   UNL     1       0.926   9.066  20.861  0.00  0.00    +0.000 N 
ATOM      5  C   UNL     1      -0.029  10.073  20.866  0.00  0.00    +0.000 A 
ENDROOT
BRANCH   4   6
ATOM      6  C   UNL     1       1.621   8.460  19.773  0.00  0.00    +0.000 A 
ATOM      7  C   UNL     1       1.987   9.250  18.666  0.00  0.00    +0.000 A 
ATOM      8  C   UNL     1       2.729   8.709  17.613  0.00  0.00    +0.000 A 
ATOM      9  C   UNL     1       3.131   7.380  17.655  0.00  0.00    +0.000 A 
ATOM     10  C   UNL     1       2.778   6.585  18.744  0.00  0.00    +0.000 A 
ATOM     11  C   UNL     1       2.021   7.112  19.802  0.00  0.00    +0.000 A 
ATOM     12 CL   UNL     1       1.535   5.977  21.014  0.00  0.00    +0.000 Cl
ENDBRANCH   4   6
BRANCH   1  16
ATOM     13  C   UNL     1      -2.624  12.571  23.670  0.00  0.00    +0.000 A 
ATOM     14  N   UNL     1      -1.679  13.457  23.448  0.00  0.00    +0.000 NA
ATOM     15  N   UNL     1      -0.631  12.782  22.873  0.00  0.00    +0.000 NA
ATOM     16  C   UNL     1      -1.000  11.521  22.754  0.00  0.00    +0.000 A 
ATOM     17  O   UNL     1      -2.283  11.321  23.217  0.00  0.00    +0.000 OA
BRANCH  13  18
ATOM     18  S   UNL     1      -4.130  12.979  24.422  0.00  0.00    +0.000 S 
BRANCH  18  19
ATOM     19  C   UNL     1      -4.430  14.626  23.743  0.00  0.00    +0.000 C 
BRANCH  19  20
ATOM     20  O   UNL     1      -5.429  14.547  22.727  0.00  0.00    +0.000 OA
BRANCH  20  22
ATOM     21  C   UNL     1      -7.152  13.334  21.618  0.00  0.00    +0.000 C 
ATOM     22  C   UNL     1      -6.187  13.345  22.790  0.00  0.00    +0.000 C 
ENDBRANCH  20  22
ENDBRANCH  19  20
ENDBRANCH  18  19
ENDBRANCH  13  18
ENDBRANCH   1  16
BRANCH   5  23
ATOM     23  C   UNL     1      -0.676  10.624  19.730  0.00  0.00    +0.000 A 
ATOM     24  N   UNL     1      -0.521  11.881  19.370  0.00  0.00    +0.000 NA
ATOM     25  N   UNL     1      -1.216  12.055  18.201  0.00  0.00    +0.000 NA
ATOM     26  C   UNL     1      -1.744  10.891  17.894  0.00  0.00    +0.000 A 
ATOM     27  O   UNL     1      -1.435   9.923  18.820  0.00  0.00    +0.000 OA
BRANCH  26  28
ATOM     28  S   UNL     1      -2.670  10.645  16.455  0.00  0.00    +0.000 S 
BRANCH  28  29
ATOM     29  C   UNL     1      -4.240  11.418  16.888  0.00  0.00    +0.000 C 
BRANCH  29  30
ATOM     30  O   UNL     1      -4.646  10.953  18.171  0.00  0.00    +0.000 OA
BRANCH  30  31
ATOM     31  C   UNL     1      -5.871  11.524  18.608  0.00  0.00    +0.000 C 
ATOM     32  C   UNL     1      -6.839  10.386  18.868  0.00  0.00    +0.000 C 
ENDBRANCH  30  31
ENDBRANCH  29  30
ENDBRANCH  28  29
ENDBRANCH  26  28
ENDBRANCH   5  23
TORSDOF 11
ENDMDL
MODEL 5
REMARK VINA RESULT:      -6.2      2.197      2.810
REMARK  Name = 
REMARK  13 active torsions:
REMARK  status: ('A' for Active; 'I' for Inactive)
REMARK    1  A    between atoms: C_1  and  C_2
REMARK    2  A    between atoms: C_2  and  O_3
REMARK    3  A    between atoms: O_3  and  C_4
REMARK    4  A    between atoms: C_4  and  S_5
REMARK    5  A    between atoms: S_5  and  C_6
REMARK    6  A    between atoms: C_9  and  C_10
REMARK    7  A    between atoms: N_13  and  C_14
REMARK    8  A    between atoms: C_21  and  C_22
REMARK    9  A    between atoms: C_25  and  S_26
REMARK   10  A    between atoms: S_26  and  C_27
REMARK   11  A    between atoms: C_27  and  O_28
REMARK   12  A    between atoms: O_28  and  C_29
REMARK   13  A    between atoms: C_29  and  C_30
REMARK                            x       y       z     vdW  Elec       q    Type
REMARK                         _______ _______ _______ _____ _____    ______ ____
ROOT
ATOM      1  C   UNL     1       0.473  10.166  21.095  0.00  0.00    +0.000 A 
ATOM      2  N   UNL     1       0.717  10.132  22.434  0.00  0.00    +0.000 NA
ATOM      3  N   UNL     1       0.004  11.096  23.001  0.00  0.00    +0.000 NA
ATOM      4  N   UNL     1      -0.788  11.675  22.059  0.00  0.00    +0.000 N 
ATOM      5  C   UNL     1      -0.473  11.137  20.818  0.00  0.00    +0.000 A 
ENDROOT
BRANCH   4   6
ATOM      6  C   UNL     1      -1.863  12.528  22.447  0.00  0.00    +0.000 A 
ATOM      7  C   UNL     1      -2.949  11.984  23.160  0.00  0.00    +0.000 A 
ATOM      8  C   UNL     1      -3.988  12.799  23.618  0.00  0.00    +0.000 A 
ATOM      9  C   UNL     1      -3.950  14.169  23.387  0.00  0.00    +0.000 A 
ATOM     10  C   UNL     1      -2.883  14.723  22.683  0.00  0.00    +0.000 A 
ATOM     11  C   UNL     1      -1.840  13.913  22.206  0.00  0.00    +0.000 A 
ATOM     12 CL   UNL     1      -0.657  14.713  21.229  0.00  0.00    +0.000 Cl
ENDBRANCH   4   6
BRANCH   1  16
ATOM     13  C   UNL     1       2.134   7.618  19.177  0.00  0.00    +0.000 A 
ATOM     14  N   UNL     1       1.894   8.497  18.230  0.00  0.00    +0.000 NA
ATOM     15  N   UNL     1       1.247   9.552  18.824  0.00  0.00    +0.000 NA
ATOM     16  C   UNL     1       1.144   9.270  20.109  0.00  0.00    +0.000 A 
ATOM     17  O   UNL     1       1.723   8.056  20.411  0.00  0.00    +0.000 OA
BRANCH  13  18
ATOM     18  S   UNL     1       2.913   6.102  18.870  0.00  0.00    +0.000 S 
BRANCH  18  19
ATOM     19  C   UNL     1       4.091   6.564  17.580  0.00  0.00    +0.000 C 
BRANCH  19  20
ATOM     20  O   UNL     1       4.436   5.410  16.815  0.00  0.00    +0.000 OA
BRANCH  20  22
ATOM     21  C   UNL     1       5.529   4.437  14.937  0.00  0.00    +0.000 C 
ATOM     22  C   UNL     1       5.362   5.693  15.774  0.00  0.00    +0.000 C 
ENDBRANCH  20  22
ENDBRANCH  19  20
ENDBRANCH  18  19
ENDBRANCH  13  18
ENDBRANCH   1  16
BRANCH   5  23
ATOM     23  C   UNL     1      -1.078  11.469  19.579  0.00  0.00    +0.000 A 
ATOM     24  N   UNL     1      -0.564  12.362  18.760  0.00  0.00    +0.000 NA
ATOM     25  N   UNL     1      -1.350  12.378  17.636  0.00  0.00    +0.000 NA
ATOM     26  C   UNL     1      -2.293  11.481  17.817  0.00  0.00    +0.000 A 
ATOM     27  O   UNL     1      -2.180  10.850  19.033  0.00  0.00    +0.000 OA
BRANCH  26  28
ATOM     28  S   UNL     1      -3.483  11.134  16.612  0.00  0.00    +0.000 S 
BRANCH  28  29
ATOM     29  C   UNL     1      -2.640   9.902  15.602  0.00  0.00    +0.000 C 
BRANCH  29  30
ATOM     30  O   UNL     1      -2.806  10.236  14.229  0.00  0.00    +0.000 OA
BRANCH  30  31
ATOM     31  C   UNL     1      -4.111   9.958  13.741  0.00  0.00    +0.000 C 
ATOM     32  C   UNL     1      -4.005   9.748  12.243  0.00  0.00    +0.000 C 
ENDBRANCH  30  31
ENDBRANCH  29  30
ENDBRANCH  28  29
ENDBRANCH  26  28
ENDBRANCH   5  23
TORSDOF 11
ENDMDL
MODEL 6
REMARK VINA RESULT:      -6.2      5.158      8.795
REMARK  Name = 
REMARK  13 active torsions:
REMARK  status: ('A' for Active; 'I' for Inactive)
REMARK    1  A    between atoms: C_1  and  C_2
REMARK    2  A    between atoms: C_2  and  O_3
REMARK    3  A    between atoms: O_3  and  C_4
REMARK    4  A    between atoms: C_4  and  S_5
REMARK    5  A    between atoms: S_5  and  C_6
REMARK    6  A    between atoms: C_9  and  C_10
REMARK    7  A    between atoms: N_13  and  C_14
REMARK    8  A    between atoms: C_21  and  C_22
REMARK    9  A    between atoms: C_25  and  S_26
REMARK   10  A    between atoms: S_26  and  C_27
REMARK   11  A    between atoms: C_27  and  O_28
REMARK   12  A    between atoms: O_28  and  C_29
REMARK   13  A    between atoms: C_29  and  C_30
REMARK                            x       y       z     vdW  Elec       q    Type
REMARK                         _______ _______ _______ _____ _____    ______ ____
ROOT
ATOM      1  C   UNL     1       5.968   5.573  18.670  0.00  0.00    +0.000 A 
ATOM      2  N   UNL     1       6.456   4.323  18.896  0.00  0.00    +0.000 NA
ATOM      3  N   UNL     1       5.462   3.575  19.357  0.00  0.00    +0.000 NA
ATOM      4  N   UNL     1       4.310   4.297  19.320  0.00  0.00    +0.000 N 
ATOM      5  C   UNL     1       4.609   5.597  18.934  0.00  0.00    +0.000 A 
ENDROOT
BRANCH   4   6
ATOM      6  C   UNL     1       3.049   3.649  19.473  0.00  0.00    +0.000 A 
ATOM      7  C   UNL     1       2.532   3.449  20.768  0.00  0.00    +0.000 A 
ATOM      8  C   UNL     1       1.269   2.880  20.956  0.00  0.00    +0.000 A 
ATOM      9  C   UNL     1       0.497   2.521  19.858  0.00  0.00    +0.000 A 
ATOM     10  C   UNL     1       0.994   2.712  18.571  0.00  0.00    +0.000 A 
ATOM     11  C   UNL     1       2.267   3.269  18.368  0.00  0.00    +0.000 A 
ATOM     12 CL   UNL     1       2.812   3.317  16.726  0.00  0.00    +0.000 Cl
ENDBRANCH   4   6
BRANCH   1  16
ATOM     13  C   UNL     1       8.162   8.369  18.128  0.00  0.00    +0.000 A 
ATOM     14  N   UNL     1       7.787   8.130  16.891  0.00  0.00    +0.000 NA
ATOM     15  N   UNL     1       6.927   7.061  16.938  0.00  0.00    +0.000 NA
ATOM     16  C   UNL     1       6.804   6.717  18.206  0.00  0.00    +0.000 A 
ATOM     17  O   UNL     1       7.546   7.538  19.029  0.00  0.00    +0.000 OA
BRANCH  13  18
ATOM     18  S   UNL     1       9.284   9.624  18.539  0.00  0.00    +0.000 S 
BRANCH  18  19
ATOM     19  C   UNL     1       8.458  11.076  17.850  0.00  0.00    +0.000 C 
BRANCH  19  20
ATOM     20  O   UNL     1       8.915  12.247  18.525  0.00  0.00    +0.000 OA
BRANCH  20  22
ATOM     21  C   UNL     1      10.867  13.605  18.405  0.00  0.00    +0.000 C 
ATOM     22  C   UNL     1       9.624  13.136  17.671  0.00  0.00    +0.000 C 
ENDBRANCH  20  22
ENDBRANCH  19  20
ENDBRANCH  18  19
ENDBRANCH  13  18
ENDBRANCH   1  16
BRANCH   5  23
ATOM     23  C   UNL     1       3.684   6.659  18.767  0.00  0.00    +0.000 A 
ATOM     24  N   UNL     1       3.429   7.195  17.592  0.00  0.00    +0.000 NA
ATOM     25  N   UNL     1       2.443   8.128  17.780  0.00  0.00    +0.000 NA
ATOM     26  C   UNL     1       2.131   8.103  19.056  0.00  0.00    +0.000 A 
ATOM     27  O   UNL     1       2.875   7.180  19.752  0.00  0.00    +0.000 OA
BRANCH  26  28
ATOM     28  S   UNL     1       0.883   9.097  19.725  0.00  0.00    +0.000 S 
BRANCH  28  29
ATOM     29  C   UNL     1       1.127   8.856  21.494  0.00  0.00    +0.000 C 
BRANCH  29  30
ATOM     30  O   UNL     1       1.197  10.128  22.129  0.00  0.00    +0.000 OA
BRANCH  30  31
ATOM     31  C   UNL     1      -0.019  10.857  22.052  0.00  0.00    +0.000 C 
ATOM     32  C   UNL     1      -0.945  10.317  23.125  0.00  0.00    +0.000 C 
ENDBRANCH  30  31
ENDBRANCH  29  30
ENDBRANCH  28  29
ENDBRANCH  26  28
ENDBRANCH   5  23
TORSDOF 11
ENDMDL
MODEL 7
REMARK VINA RESULT:      -6.2      1.576      2.121
REMARK  Name = 
REMARK  13 active torsions:
REMARK  status: ('A' for Active; 'I' for Inactive)
REMARK    1  A    between atoms: C_1  and  C_2
REMARK    2  A    between atoms: C_2  and  O_3
REMARK    3  A    between atoms: O_3  and  C_4
REMARK    4  A    between atoms: C_4  and  S_5
REMARK    5  A    between atoms: S_5  and  C_6
REMARK    6  A    between atoms: C_9  and  C_10
REMARK    7  A    between atoms: N_13  and  C_14
REMARK    8  A    between atoms: C_21  and  C_22
REMARK    9  A    between atoms: C_25  and  S_26
REMARK   10  A    between atoms: S_26  and  C_27
REMARK   11  A    between atoms: C_27  and  O_28
REMARK   12  A    between atoms: O_28  and  C_29
REMARK   13  A    between atoms: C_29  and  C_30
REMARK                            x       y       z     vdW  Elec       q    Type
REMARK                         _______ _______ _______ _____ _____    ______ ____
ROOT
ATOM      1  C   UNL     1       0.394   9.980  21.464  0.00  0.00    +0.000 A 
ATOM      2  N   UNL     1       0.537  10.046  22.816  0.00  0.00    +0.000 NA
ATOM      3  N   UNL     1      -0.161  11.089  23.247  0.00  0.00    +0.000 NA
ATOM      4  N   UNL     1      -0.847  11.626  22.203  0.00  0.00    +0.000 N 
ATOM      5  C   UNL     1      -0.472  10.971  21.038  0.00  0.00    +0.000 A 
ENDROOT
BRANCH   4   6
ATOM      6  C   UNL     1      -1.898  12.561  22.437  0.00  0.00    +0.000 A 
ATOM      7  C   UNL     1      -3.111  12.107  22.991  0.00  0.00    +0.000 A 
ATOM      8  C   UNL     1      -4.139  13.003  23.298  0.00  0.00    +0.000 A 
ATOM      9  C   UNL     1      -3.966  14.363  23.076  0.00  0.00    +0.000 A 
ATOM     10  C   UNL     1      -2.772  14.829  22.529  0.00  0.00    +0.000 A 
ATOM     11  C   UNL     1      -1.737  13.938  22.202  0.00  0.00    +0.000 A 
ATOM     12 CL   UNL     1      -0.372  14.637  21.401  0.00  0.00    +0.000 Cl
ENDBRANCH   4   6
BRANCH   1  16
ATOM     13  C   UNL     1       1.945   7.166  19.850  0.00  0.00    +0.000 A 
ATOM     14  N   UNL     1       2.048   8.063  18.894  0.00  0.00    +0.000 NA
ATOM     15  N   UNL     1       1.484   9.219  19.374  0.00  0.00    +0.000 NA
ATOM     16  C   UNL     1       1.085   8.973  20.608  0.00  0.00    +0.000 A 
ATOM     17  O   UNL     1       1.380   7.681  20.989  0.00  0.00    +0.000 OA
BRANCH  13  18
ATOM     18  S   UNL     1       2.502   5.536  19.666  0.00  0.00    +0.000 S 
BRANCH  18  19
ATOM     19  C   UNL     1       4.070   5.792  18.806  0.00  0.00    +0.000 C 
BRANCH  19  20
ATOM     20  O   UNL     1       3.860   5.711  17.398  0.00  0.00    +0.000 OA
BRANCH  20  22
ATOM     21  C   UNL     1       5.461   5.658  15.637  0.00  0.00    +0.000 C 
ATOM     22  C   UNL     1       4.754   6.532  16.657  0.00  0.00    +0.000 C 
ENDBRANCH  20  22
ENDBRANCH  19  20
ENDBRANCH  18  19
ENDBRANCH  13  18
ENDBRANCH   1  16
BRANCH   5  23
ATOM     23  C   UNL     1      -0.965  11.228  19.733  0.00  0.00    +0.000 A 
ATOM     24  N   UNL     1      -0.646  12.313  19.059  0.00  0.00    +0.000 NA
ATOM     25  N   UNL     1      -1.224  12.205  17.821  0.00  0.00    +0.000 NA
ATOM     26  C   UNL     1      -1.851  11.050  17.793  0.00  0.00    +0.000 A 
ATOM     27  O   UNL     1      -1.723  10.363  18.977  0.00  0.00    +0.000 OA
BRANCH  26  28
ATOM     28  S   UNL     1      -2.683  10.482  16.387  0.00  0.00    +0.000 S 
BRANCH  28  29
ATOM     29  C   UNL     1      -4.253  11.361  16.507  0.00  0.00    +0.000 C 
BRANCH  29  30
ATOM     30  O   UNL     1      -4.700  11.328  17.857  0.00  0.00    +0.000 OA
BRANCH  30  31
ATOM     31  C   UNL     1      -6.109  11.189  17.975  0.00  0.00    +0.000 C 
ATOM     32  C   UNL     1      -6.445  11.179  19.454  0.00  0.00    +0.000 C 
ENDBRANCH  30  31
ENDBRANCH  29  30
ENDBRANCH  28  29
ENDBRANCH  26  28
ENDBRANCH   5  23
TORSDOF 11
ENDMDL
MODEL 8
REMARK VINA RESULT:      -6.2      4.423      7.624
REMARK  Name = 
REMARK  13 active torsions:
REMARK  status: ('A' for Active; 'I' for Inactive)
REMARK    1  A    between atoms: C_1  and  C_2
REMARK    2  A    between atoms: C_2  and  O_3
REMARK    3  A    between atoms: O_3  and  C_4
REMARK    4  A    between atoms: C_4  and  S_5
REMARK    5  A    between atoms: S_5  and  C_6
REMARK    6  A    between atoms: C_9  and  C_10
REMARK    7  A    between atoms: N_13  and  C_14
REMARK    8  A    between atoms: C_21  and  C_22
REMARK    9  A    between atoms: C_25  and  S_26
REMARK   10  A    between atoms: S_26  and  C_27
REMARK   11  A    between atoms: C_27  and  O_28
REMARK   12  A    between atoms: O_28  and  C_29
REMARK   13  A    between atoms: C_29  and  C_30
REMARK                            x       y       z     vdW  Elec       q    Type
REMARK                         _______ _______ _______ _____ _____    ______ ____
ROOT
ATOM      1  C   UNL     1       3.666   7.673  17.420  0.00  0.00    +0.000 A 
ATOM      2  N   UNL     1       3.413   8.956  17.044  0.00  0.00    +0.000 NA
ATOM      3  N   UNL     1       2.391   9.397  17.767  0.00  0.00    +0.000 NA
ATOM      4  N   UNL     1       2.058   8.453  18.687  0.00  0.00    +0.000 N 
ATOM      5  C   UNL     1       2.821   7.316  18.457  0.00  0.00    +0.000 A 
ENDROOT
BRANCH   4   6
ATOM      6  C   UNL     1       1.201   8.781  19.778  0.00  0.00    +0.000 A 
ATOM      7  C   UNL     1       1.549   8.361  21.077  0.00  0.00    +0.000 A 
ATOM      8  C   UNL     1       0.771   8.723  22.180  0.00  0.00    +0.000 A 
ATOM      9  C   UNL     1      -0.352   9.521  22.008  0.00  0.00    +0.000 A 
ATOM     10  C   UNL     1      -0.710   9.945  20.729  0.00  0.00    +0.000 A 
ATOM     11  C   UNL     1       0.054   9.578  19.611  0.00  0.00    +0.000 A 
ATOM     12 CL   UNL     1      -0.586  10.055  18.076  0.00  0.00    +0.000 Cl
ENDBRANCH   4   6
BRANCH   1  16
ATOM     13  C   UNL     1       5.711   5.275  15.690  0.00  0.00    +0.000 A 
ATOM     14  N   UNL     1       6.637   6.117  16.091  0.00  0.00    +0.000 NA
ATOM     15  N   UNL     1       5.993   7.113  16.782  0.00  0.00    +0.000 NA
ATOM     16  C   UNL     1       4.708   6.814  16.786  0.00  0.00    +0.000 A 
ATOM     17  O   UNL     1       4.460   5.628  16.129  0.00  0.00    +0.000 OA
BRANCH  13  18
ATOM     18  S   UNL     1       6.073   3.870  14.743  0.00  0.00    +0.000 S 
BRANCH  18  19
ATOM     19  C   UNL     1       7.064   4.585  13.412  0.00  0.00    +0.000 C 
BRANCH  19  20
ATOM     20  O   UNL     1       6.839   3.855  12.208  0.00  0.00    +0.000 OA
BRANCH  20  22
ATOM     21  C   UNL     1       5.740   1.894  11.421  0.00  0.00    +0.000 C 
ATOM     22  C   UNL     1       5.580   3.195  12.188  0.00  0.00    +0.000 C 
ENDBRANCH  20  22
ENDBRANCH  19  20
ENDBRANCH  18  19
ENDBRANCH  13  18
ENDBRANCH   1  16
BRANCH   5  23
ATOM     23  C   UNL     1       2.781   6.110  19.203  0.00  0.00    +0.000 A 
ATOM     24  N   UNL     1       3.817   5.666  19.883  0.00  0.00    +0.000 NA
ATOM     25  N   UNL     1       3.412   4.534  20.542  0.00  0.00    +0.000 NA
ATOM     26  C   UNL     1       2.144   4.353  20.247  0.00  0.00    +0.000 A 
ATOM     27  O   UNL     1       1.666   5.327  19.403  0.00  0.00    +0.000 OA
BRANCH  26  28
ATOM     28  S   UNL     1       1.215   3.055  20.911  0.00  0.00    +0.000 S 
BRANCH  28  29
ATOM     29  C   UNL     1       1.557   1.722  19.747  0.00  0.00    +0.000 C 
BRANCH  29  30
ATOM     30  O   UNL     1       1.302   2.185  18.426  0.00  0.00    +0.000 OA
BRANCH  30  31
ATOM     31  C   UNL     1       2.476   2.276  17.631  0.00  0.00    +0.000 C 
ATOM     32  C   UNL     1       3.572   1.506  18.343  0.00  0.00    +0.000 C 
ENDBRANCH  30  31
ENDBRANCH  29  30
ENDBRANCH  28  29
ENDBRANCH  26  28
ENDBRANCH   5  23
TORSDOF 11
ENDMDL
MODEL 9
REMARK VINA RESULT:      -6.2      2.310      2.691
REMARK  Name = 
REMARK  13 active torsions:
REMARK  status: ('A' for Active; 'I' for Inactive)
REMARK    1  A    between atoms: C_1  and  C_2
REMARK    2  A    between atoms: C_2  and  O_3
REMARK    3  A    between atoms: O_3  and  C_4
REMARK    4  A    between atoms: C_4  and  S_5
REMARK    5  A    between atoms: S_5  and  C_6
REMARK    6  A    between atoms: C_9  and  C_10
REMARK    7  A    between atoms: N_13  and  C_14
REMARK    8  A    between atoms: C_21  and  C_22
REMARK    9  A    between atoms: C_25  and  S_26
REMARK   10  A    between atoms: S_26  and  C_27
REMARK   11  A    between atoms: C_27  and  O_28
REMARK   12  A    between atoms: O_28  and  C_29
REMARK   13  A    between atoms: C_29  and  C_30
REMARK                            x       y       z     vdW  Elec       q    Type
REMARK                         _______ _______ _______ _____ _____    ______ ____
ROOT
ATOM      1  C   UNL     1       0.595  10.960  20.198  0.00  0.00    +0.000 A 
ATOM      2  N   UNL     1       1.160  11.496  21.315  0.00  0.00    +0.000 NA
ATOM      3  N   UNL     1       0.300  12.366  21.827  0.00  0.00    +0.000 NA
ATOM      4  N   UNL     1      -0.860  12.312  21.120  0.00  0.00    +0.000 N 
ATOM      5  C   UNL     1      -0.686  11.460  20.038  0.00  0.00    +0.000 A 
ENDROOT
BRANCH   4   6
ATOM      6  C   UNL     1      -2.045  12.918  21.633  0.00  0.00    +0.000 A 
ATOM      7  C   UNL     1      -2.863  12.188  22.518  0.00  0.00    +0.000 A 
ATOM      8  C   UNL     1      -3.994  12.771  23.095  0.00  0.00    +0.000 A 
ATOM      9  C   UNL     1      -4.316  14.093  22.814  0.00  0.00    +0.000 A 
ATOM     10  C   UNL     1      -3.517  14.829  21.941  0.00  0.00    +0.000 A 
ATOM     11  C   UNL     1      -2.386  14.251  21.343  0.00  0.00    +0.000 A 
ATOM     12 CL   UNL     1      -1.572  15.233  20.174  0.00  0.00    +0.000 Cl
ENDBRANCH   4   6
BRANCH   1  16
ATOM     13  C   UNL     1       2.180   8.212  18.504  0.00  0.00    +0.000 A 
ATOM     14  N   UNL     1       2.212   9.117  17.552  0.00  0.00    +0.000 NA
ATOM     15  N   UNL     1       1.628  10.250  18.062  0.00  0.00    +0.000 NA
ATOM     16  C   UNL     1       1.287   9.983  19.308  0.00  0.00    +0.000 A 
ATOM     17  O   UNL     1       1.643   8.701  19.669  0.00  0.00    +0.000 OA
BRANCH  13  18
ATOM     18  S   UNL     1       2.786   6.605  18.287  0.00  0.00    +0.000 S 
BRANCH  18  19
ATOM     19  C   UNL     1       4.243   6.911  17.264  0.00  0.00    +0.000 C 
BRANCH  19  20
ATOM     20  O   UNL     1       4.997   5.706  17.137  0.00  0.00    +0.000 OA
BRANCH  20  22
ATOM     21  C   UNL     1       7.141   6.338  17.955  0.00  0.00    +0.000 C 
ATOM     22  C   UNL     1       6.341   5.934  16.731  0.00  0.00    +0.000 C 
ENDBRANCH  20  22
ENDBRANCH  19  20
ENDBRANCH  18  19
ENDBRANCH  13  18
ENDBRANCH   1  16
BRANCH   5  23
ATOM     23  C   UNL     1      -1.660  11.127  19.063  0.00  0.00    +0.000 A 
ATOM     24  N   UNL     1      -1.839   9.895  18.636  0.00  0.00    +0.000 NA
ATOM     25  N   UNL     1      -2.899   9.918  17.766  0.00  0.00    +0.000 NA
ATOM     26  C   UNL     1      -3.327  11.160  17.721  0.00  0.00    +0.000 A 
ATOM     27  O   UNL     1      -2.591  11.991  18.532  0.00  0.00    +0.000 OA
BRANCH  26  28
ATOM     28  S   UNL     1      -4.696  11.634  16.776  0.00  0.00    +0.000 S 
BRANCH  28  29
ATOM     29  C   UNL     1      -5.815  12.269  18.037  0.00  0.00    +0.000 C 
BRANCH  29  30
ATOM     30  O   UNL     1      -6.960  11.427  18.107  0.00  0.00    +0.000 OA
BRANCH  30  31
ATOM     31  C   UNL     1      -6.780  10.311  18.967  0.00  0.00    +0.000 C 
ATOM     32  C   UNL     1      -7.313  10.697  20.334  0.00  0.00    +0.000 C 
ENDBRANCH  30  31
ENDBRANCH  29  30
ENDBRANCH  28  29
ENDBRANCH  26  28
ENDBRANCH   5  23
TORSDOF 11
ENDMDL
