MODEL 1
REMARK VINA RESULT:      -7.6      0.000      0.000
REMARK  Name = 
REMARK  4 active torsions:
REMARK  status: ('A' for Active; 'I' for Inactive)
REMARK    1  A    between atoms: C_2  and  C_10
REMARK    2  A    between atoms: N_3  and  C_4
REMARK    3  A    between atoms: C_14  and  S_15
REMARK    4  A    between atoms: S_15  and  N_18
REMARK                            x       y       z     vdW  Elec       q    Type
REMARK                         _______ _______ _______ _____ _____    ______ ____
ROOT
ATOM      1  C   UNL     1       6.445   4.521  15.805  0.00  0.00    +0.000 A 
ATOM      2  C   UNL     1       7.190   5.022  16.885  0.00  0.00    +0.000 A 
ATOM      3  C   UNL     1       6.726   4.840  18.190  0.00  0.00    +0.000 A 
ATOM      4  C   UNL     1       5.527   4.163  18.423  0.00  0.00    +0.000 A 
ATOM      5  C   UNL     1       4.763   3.703  17.341  0.00  0.00    +0.000 A 
ATOM      6  C   UNL     1       5.220   3.879  16.035  0.00  0.00    +0.000 A 
ENDROOT
BRANCH   1   8
ATOM      7  O   UNL     1       7.679   5.507  14.072  0.00  0.00    +0.000 OA
ATOM      8  C   UNL     1       6.909   4.610  14.398  0.00  0.00    +0.000 C 
ATOM      9  N   UNL     1       6.374   3.700  13.519  0.00  0.00    +0.000 N 
ATOM     10  H   UNL     1       5.785   2.953  13.867  0.00  0.00    +0.000 HD
BRANCH   9  11
ATOM     11  C   UNL     1       6.656   3.751  12.088  0.00  0.00    +0.000 C 
ATOM     12  C   UNL     1       7.167   2.397  11.587  0.00  0.00    +0.000 C 
ATOM     13  C   UNL     1       6.070   1.334  11.610  0.00  0.00    +0.000 C 
ATOM     14  C   UNL     1       4.842   1.779  10.821  0.00  0.00    +0.000 C 
ATOM     15  C   UNL     1       4.315   3.131  11.293  0.00  0.00    +0.000 C 
ATOM     16  C   UNL     1       5.415   4.194  11.306  0.00  0.00    +0.000 C 
ENDBRANCH   9  11
ENDBRANCH   1   8
BRANCH   5  17
ATOM     17  S   UNL     1       3.290   2.733  17.647  0.00  0.00    +0.000 S 
ATOM     18  O   UNL     1       2.291   3.157  16.695  0.00  0.00    +0.000 OA
ATOM     19  O   UNL     1       3.713   1.347  17.712  0.00  0.00    +0.000 OA
BRANCH  17  20
ATOM     20  N   UNL     1       2.782   3.208  19.216  0.00  0.00    +0.000 NA
ATOM     21  C   UNL     1       1.487   3.929  19.272  0.00  0.00    +0.000 C 
ATOM     22  C   UNL     1       1.148   4.413  20.677  0.00  0.00    +0.000 C 
ATOM     23  C   UNL     1       1.265   3.290  21.695  0.00  0.00    +0.000 C 
ATOM     24  C   UNL     1       2.678   2.733  21.670  0.00  0.00    +0.000 C 
ATOM     25  C   UNL     1       3.051   2.213  20.286  0.00  0.00    +0.000 C 
ENDBRANCH  17  20
ENDBRANCH   5  17
TORSDOF 4
ENDMDL
MODEL 2
REMARK VINA RESULT:      -7.5      4.493      8.405
REMARK  Name = 
REMARK  4 active torsions:
REMARK  status: ('A' for Active; 'I' for Inactive)
REMARK    1  A    between atoms: C_2  and  C_10
REMARK    2  A    between atoms: N_3  and  C_4
REMARK    3  A    between atoms: C_14  and  S_15
REMARK    4  A    between atoms: S_15  and  N_18
REMARK                            x       y       z     vdW  Elec       q    Type
REMARK                         _______ _______ _______ _____ _____    ______ ____
ROOT
ATOM      1  C   UNL     1       2.343   7.046  19.175  0.00  0.00    +0.000 A 
ATOM      2  C   UNL     1       1.488   6.447  20.115  0.00  0.00    +0.000 A 
ATOM      3  C   UNL     1       1.858   5.243  20.718  0.00  0.00    +0.000 A 
ATOM      4  C   UNL     1       3.073   4.636  20.391  0.00  0.00    +0.000 A 
ATOM      5  C   UNL     1       3.903   5.213  19.421  0.00  0.00    +0.000 A 
ATOM      6  C   UNL     1       3.542   6.415  18.815  0.00  0.00    +0.000 A 
ENDROOT
BRANCH   1   8
ATOM      7  O   UNL     1       2.496   8.607  17.432  0.00  0.00    +0.000 OA
ATOM      8  C   UNL     1       2.053   8.360  18.548  0.00  0.00    +0.000 C 
ATOM      9  N   UNL     1       1.352   9.260  19.312  0.00  0.00    +0.000 N 
ATOM     10  H   UNL     1       0.970   8.971  20.204  0.00  0.00    +0.000 HD
BRANCH   9  11
ATOM     11  C   UNL     1       1.102  10.626  18.862  0.00  0.00    +0.000 C 
ATOM     12  C   UNL     1      -0.259  10.728  18.167  0.00  0.00    +0.000 C 
ATOM     13  C   UNL     1      -1.412  10.552  19.153  0.00  0.00    +0.000 C 
ATOM     14  C   UNL     1      -1.316  11.542  20.311  0.00  0.00    +0.000 C 
ATOM     15  C   UNL     1       0.035  11.468  21.017  0.00  0.00    +0.000 C 
ATOM     16  C   UNL     1       1.197  11.610  20.033  0.00  0.00    +0.000 C 
ENDBRANCH   9  11
ENDBRANCH   1   8
BRANCH   5  17
ATOM     17  S   UNL     1       5.510   4.496  19.093  0.00  0.00    +0.000 S 
ATOM     18  O   UNL     1       6.490   5.307  19.776  0.00  0.00    +0.000 OA
ATOM     19  O   UNL     1       5.397   3.077  19.373  0.00  0.00    +0.000 OA
BRANCH  17  20
ATOM     20  N   UNL     1       5.729   4.688  17.402  0.00  0.00    +0.000 NA
ATOM     21  C   UNL     1       7.139   4.678  16.939  0.00  0.00    +0.000 C 
ATOM     22  C   UNL     1       7.266   4.958  15.447  0.00  0.00    +0.000 C 
ATOM     23  C   UNL     1       6.351   4.059  14.632  0.00  0.00    +0.000 C 
ATOM     24  C   UNL     1       4.913   4.269  15.075  0.00  0.00    +0.000 C 
ATOM     25  C   UNL     1       4.735   3.975  16.560  0.00  0.00    +0.000 C 
ENDBRANCH  17  20
ENDBRANCH   5  17
TORSDOF 4
ENDMDL
MODEL 3
REMARK VINA RESULT:      -7.4      4.540      8.386
REMARK  Name = 
REMARK  4 active torsions:
REMARK  status: ('A' for Active; 'I' for Inactive)
REMARK    1  A    between atoms: C_2  and  C_10
REMARK    2  A    between atoms: N_3  and  C_4
REMARK    3  A    between atoms: C_14  and  S_15
REMARK    4  A    between atoms: S_15  and  N_18
REMARK                            x       y       z     vdW  Elec       q    Type
REMARK                         _______ _______ _______ _____ _____    ______ ____
ROOT
ATOM      1  C   UNL     1       2.129   7.265  19.097  0.00  0.00    +0.000 A 
ATOM      2  C   UNL     1       1.658   6.927  20.377  0.00  0.00    +0.000 A 
ATOM      3  C   UNL     1       1.968   5.679  20.921  0.00  0.00    +0.000 A 
ATOM      4  C   UNL     1       2.744   4.769  20.200  0.00  0.00    +0.000 A 
ATOM      5  C   UNL     1       3.175   5.091  18.906  0.00  0.00    +0.000 A 
ATOM      6  C   UNL     1       2.872   6.336  18.355  0.00  0.00    +0.000 A 
ENDROOT
BRANCH   1   8
ATOM      7  O   UNL     1       2.432   8.865  17.410  0.00  0.00    +0.000 OA
ATOM      8  C   UNL     1       1.904   8.598  18.484  0.00  0.00    +0.000 C 
ATOM      9  N   UNL     1       1.159   9.489  19.216  0.00  0.00    +0.000 N 
ATOM     10  H   UNL     1       0.709   9.185  20.070  0.00  0.00    +0.000 HD
BRANCH   9  11
ATOM     11  C   UNL     1       0.961  10.869  18.783  0.00  0.00    +0.000 C 
ATOM     12  C   UNL     1      -0.474  11.084  18.293  0.00  0.00    +0.000 C 
ATOM     13  C   UNL     1      -1.480  11.012  19.441  0.00  0.00    +0.000 C 
ATOM     14  C   UNL     1      -1.131  11.996  20.554  0.00  0.00    +0.000 C 
ATOM     15  C   UNL     1       0.298  11.811  21.056  0.00  0.00    +0.000 C 
ATOM     16  C   UNL     1       1.310  11.847  19.910  0.00  0.00    +0.000 C 
ENDBRANCH   9  11
ENDBRANCH   1   8
BRANCH   5  17
ATOM     17  S   UNL     1       4.268   3.973  18.034  0.00  0.00    +0.000 S 
ATOM     18  O   UNL     1       4.428   2.799  18.859  0.00  0.00    +0.000 OA
ATOM     19  O   UNL     1       3.757   3.865  16.681  0.00  0.00    +0.000 OA
BRANCH  17  20
ATOM     20  N   UNL     1       5.769   4.802  17.971  0.00  0.00    +0.000 NA
ATOM     21  C   UNL     1       5.929   5.739  16.831  0.00  0.00    +0.000 C 
ATOM     22  C   UNL     1       7.319   6.359  16.776  0.00  0.00    +0.000 C 
ATOM     23  C   UNL     1       7.716   6.957  18.116  0.00  0.00    +0.000 C 
ATOM     24  C   UNL     1       7.677   5.874  19.181  0.00  0.00    +0.000 C 
ATOM     25  C   UNL     1       6.294   5.242  19.288  0.00  0.00    +0.000 C 
ENDBRANCH  17  20
ENDBRANCH   5  17
TORSDOF 4
ENDMDL
MODEL 4
REMARK VINA RESULT:      -7.3      4.198      8.233
REMARK  Name = 
REMARK  4 active torsions:
REMARK  status: ('A' for Active; 'I' for Inactive)
REMARK    1  A    between atoms: C_2  and  C_10
REMARK    2  A    between atoms: N_3  and  C_4
REMARK    3  A    between atoms: C_14  and  S_15
REMARK    4  A    between atoms: S_15  and  N_18
REMARK                            x       y       z     vdW  Elec       q    Type
REMARK                         _______ _______ _______ _____ _____    ______ ____
ROOT
ATOM      1  C   UNL     1       2.172   6.782  19.314  0.00  0.00    +0.000 A 
ATOM      2  C   UNL     1       1.525   6.461  20.518  0.00  0.00    +0.000 A 
ATOM      3  C   UNL     1       1.738   5.212  21.107  0.00  0.00    +0.000 A 
ATOM      4  C   UNL     1       2.591   4.286  20.503  0.00  0.00    +0.000 A 
ATOM      5  C   UNL     1       3.200   4.592  19.279  0.00  0.00    +0.000 A 
ATOM      6  C   UNL     1       2.995   5.837  18.685  0.00  0.00    +0.000 A 
ENDROOT
BRANCH   1   8
ATOM      7  O   UNL     1       2.725   8.364  17.673  0.00  0.00    +0.000 OA
ATOM      8  C   UNL     1       2.054   8.114  18.668  0.00  0.00    +0.000 C 
ATOM      9  N   UNL     1       1.233   9.023  19.289  0.00  0.00    +0.000 N 
ATOM     10  H   UNL     1       0.666   8.732  20.077  0.00  0.00    +0.000 HD
BRANCH   9  11
ATOM     11  C   UNL     1       1.118  10.402  18.826  0.00  0.00    +0.000 C 
ATOM     12  C   UNL     1      -0.119  10.576  17.939  0.00  0.00    +0.000 C 
ATOM     13  C   UNL     1      -1.413  10.451  18.743  0.00  0.00    +0.000 C 
ATOM     14  C   UNL     1      -1.441  11.427  19.915  0.00  0.00    +0.000 C 
ATOM     15  C   UNL     1      -0.215  11.283  20.812  0.00  0.00    +0.000 C 
ATOM     16  C   UNL     1       1.086  11.373  20.012  0.00  0.00    +0.000 C 
ENDBRANCH   9  11
ENDBRANCH   1   8
BRANCH   5  17
ATOM     17  S   UNL     1       4.384   3.452  18.570  0.00  0.00    +0.000 S 
ATOM     18  O   UNL     1       5.324   3.106  19.611  0.00  0.00    +0.000 OA
ATOM     19  O   UNL     1       3.616   2.424  17.893  0.00  0.00    +0.000 OA
BRANCH  17  20
ATOM     20  N   UNL     1       5.207   4.372  17.379  0.00  0.00    +0.000 NA
ATOM     21  C   UNL     1       6.580   4.802  17.745  0.00  0.00    +0.000 C 
ATOM     22  C   UNL     1       7.211   5.701  16.690  0.00  0.00    +0.000 C 
ATOM     23  C   UNL     1       7.115   5.085  15.303  0.00  0.00    +0.000 C 
ATOM     24  C   UNL     1       5.656   4.838  14.963  0.00  0.00    +0.000 C 
ATOM     25  C   UNL     1       4.989   3.920  15.981  0.00  0.00    +0.000 C 
ENDBRANCH  17  20
ENDBRANCH   5  17
TORSDOF 4
ENDMDL
MODEL 5
REMARK VINA RESULT:      -7.3      5.068      7.675
REMARK  Name = 
REMARK  4 active torsions:
REMARK  status: ('A' for Active; 'I' for Inactive)
REMARK    1  A    between atoms: C_2  and  C_10
REMARK    2  A    between atoms: N_3  and  C_4
REMARK    3  A    between atoms: C_14  and  S_15
REMARK    4  A    between atoms: S_15  and  N_18
REMARK                            x       y       z     vdW  Elec       q    Type
REMARK                         _______ _______ _______ _____ _____    ______ ____
ROOT
ATOM      1  C   UNL     1       7.863   8.186  18.069  0.00  0.00    +0.000 A 
ATOM      2  C   UNL     1       8.483   7.448  19.091  0.00  0.00    +0.000 A 
ATOM      3  C   UNL     1       8.289   6.066  19.162  0.00  0.00    +0.000 A 
ATOM      4  C   UNL     1       7.483   5.419  18.223  0.00  0.00    +0.000 A 
ATOM      5  C   UNL     1       6.831   6.164  17.231  0.00  0.00    +0.000 A 
ATOM      6  C   UNL     1       7.020   7.543  17.151  0.00  0.00    +0.000 A 
ENDROOT
BRANCH   1   8
ATOM      7  O   UNL     1       7.376  10.263  17.096  0.00  0.00    +0.000 OA
ATOM      8  C   UNL     1       8.081   9.643  17.884  0.00  0.00    +0.000 C 
ATOM      9  N   UNL     1       9.134  10.195  18.571  0.00  0.00    +0.000 N 
ATOM     10  H   UNL     1       9.642   9.636  19.246  0.00  0.00    +0.000 HD
BRANCH   9  11
ATOM     11  C   UNL     1       9.529  11.588  18.390  0.00  0.00    +0.000 C 
ATOM     12  C   UNL     1       9.442  12.354  19.712  0.00  0.00    +0.000 C 
ATOM     13  C   UNL     1      10.511  11.896  20.703  0.00  0.00    +0.000 C 
ATOM     14  C   UNL     1      11.911  11.999  20.105  0.00  0.00    +0.000 C 
ATOM     15  C   UNL     1      12.025  11.251  18.780  0.00  0.00    +0.000 C 
ATOM     16  C   UNL     1      10.938  11.679  17.793  0.00  0.00    +0.000 C 
ENDBRANCH   9  11
ENDBRANCH   1   8
BRANCH   5  17
ATOM     17  S   UNL     1       5.897   5.318  15.959  0.00  0.00    +0.000 S 
ATOM     18  O   UNL     1       5.632   6.275  14.912  0.00  0.00    +0.000 OA
ATOM     19  O   UNL     1       6.607   4.085  15.675  0.00  0.00    +0.000 OA
BRANCH  17  20
ATOM     20  N   UNL     1       4.411   4.913  16.716  0.00  0.00    +0.000 NA
ATOM     21  C   UNL     1       4.320   3.525  17.234  0.00  0.00    +0.000 C 
ATOM     22  C   UNL     1       2.942   3.201  17.796  0.00  0.00    +0.000 C 
ATOM     23  C   UNL     1       2.485   4.254  18.792  0.00  0.00    +0.000 C 
ATOM     24  C   UNL     1       2.456   5.612  18.111  0.00  0.00    +0.000 C 
ATOM     25  C   UNL     1       3.825   5.988  17.554  0.00  0.00    +0.000 C 
ENDBRANCH  17  20
ENDBRANCH   5  17
TORSDOF 4
ENDMDL
MODEL 6
REMARK VINA RESULT:      -7.3      6.049      8.571
REMARK  Name = 
REMARK  4 active torsions:
REMARK  status: ('A' for Active; 'I' for Inactive)
REMARK    1  A    between atoms: C_2  and  C_10
REMARK    2  A    between atoms: N_3  and  C_4
REMARK    3  A    between atoms: C_14  and  S_15
REMARK    4  A    between atoms: S_15  and  N_18
REMARK                            x       y       z     vdW  Elec       q    Type
REMARK                         _______ _______ _______ _____ _____    ______ ____
ROOT
ATOM      1  C   UNL     1       1.779   8.028  19.766  0.00  0.00    +0.000 A 
ATOM      2  C   UNL     1       1.299   7.683  21.041  0.00  0.00    +0.000 A 
ATOM      3  C   UNL     1       0.532   8.601  21.762  0.00  0.00    +0.000 A 
ATOM      4  C   UNL     1       0.242   9.856  21.222  0.00  0.00    +0.000 A 
ATOM      5  C   UNL     1       0.760  10.213  19.969  0.00  0.00    +0.000 A 
ATOM      6  C   UNL     1       1.525   9.303  19.241  0.00  0.00    +0.000 A 
ENDROOT
BRANCH   1   8
ATOM      7  O   UNL     1       3.039   7.481  17.865  0.00  0.00    +0.000 OA
ATOM      8  C   UNL     1       2.536   7.081  18.910  0.00  0.00    +0.000 C 
ATOM      9  N   UNL     1       2.561   5.771  19.321  0.00  0.00    +0.000 N 
ATOM     10  H   UNL     1       2.171   5.520  20.221  0.00  0.00    +0.000 HD
BRANCH   9  11
ATOM     11  C   UNL     1       3.169   4.719  18.512  0.00  0.00    +0.000 C 
ATOM     12  C   UNL     1       3.910   3.713  19.398  0.00  0.00    +0.000 C 
ATOM     13  C   UNL     1       2.944   2.883  20.242  0.00  0.00    +0.000 C 
ATOM     14  C   UNL     1       1.903   2.181  19.374  0.00  0.00    +0.000 C 
ATOM     15  C   UNL     1       1.154   3.159  18.474  0.00  0.00    +0.000 C 
ATOM     16  C   UNL     1       2.114   4.019  17.649  0.00  0.00    +0.000 C 
ENDBRANCH   9  11
ENDBRANCH   1   8
BRANCH   5  17
ATOM     17  S   UNL     1       0.287  11.773  19.230  0.00  0.00    +0.000 S 
ATOM     18  O   UNL     1      -0.039  12.678  20.306  0.00  0.00    +0.000 OA
ATOM     19  O   UNL     1       1.320  12.106  18.268  0.00  0.00    +0.000 OA
BRANCH  17  20
ATOM     20  N   UNL     1      -1.151  11.419  18.363  0.00  0.00    +0.000 NA
ATOM     21  C   UNL     1      -1.147  10.131  17.626  0.00  0.00    +0.000 C 
ATOM     22  C   UNL     1      -2.408   9.929  16.796  0.00  0.00    +0.000 C 
ATOM     23  C   UNL     1      -3.662  10.152  17.625  0.00  0.00    +0.000 C 
ATOM     24  C   UNL     1      -3.643  11.558  18.199  0.00  0.00    +0.000 C 
ATOM     25  C   UNL     1      -2.407  11.796  19.059  0.00  0.00    +0.000 C 
ENDBRANCH  17  20
ENDBRANCH   5  17
TORSDOF 4
ENDMDL
MODEL 7
REMARK VINA RESULT:      -7.3      1.359      1.885
REMARK  Name = 
REMARK  4 active torsions:
REMARK  status: ('A' for Active; 'I' for Inactive)
REMARK    1  A    between atoms: C_2  and  C_10
REMARK    2  A    between atoms: N_3  and  C_4
REMARK    3  A    between atoms: C_14  and  S_15
REMARK    4  A    between atoms: S_15  and  N_18
REMARK                            x       y       z     vdW  Elec       q    Type
REMARK                         _______ _______ _______ _____ _____    ______ ____
ROOT
ATOM      1  C   UNL     1       6.604   4.572  15.812  0.00  0.00    +0.000 A 
ATOM      2  C   UNL     1       7.531   4.745  16.852  0.00  0.00    +0.000 A 
ATOM      3  C   UNL     1       7.121   4.582  18.178  0.00  0.00    +0.000 A 
ATOM      4  C   UNL     1       5.797   4.248  18.470  0.00  0.00    +0.000 A 
ATOM      5  C   UNL     1       4.865   4.119  17.432  0.00  0.00    +0.000 A 
ATOM      6  C   UNL     1       5.265   4.278  16.106  0.00  0.00    +0.000 A 
ENDROOT
BRANCH   1   8
ATOM      7  O   UNL     1       7.760   5.526  14.008  0.00  0.00    +0.000 OA
ATOM      8  C   UNL     1       6.980   4.655  14.378  0.00  0.00    +0.000 C 
ATOM      9  N   UNL     1       6.357   3.772  13.530  0.00  0.00    +0.000 N 
ATOM     10  H   UNL     1       5.764   3.044  13.911  0.00  0.00    +0.000 HD
BRANCH   9  11
ATOM     11  C   UNL     1       6.548   3.824  12.084  0.00  0.00    +0.000 C 
ATOM     12  C   UNL     1       7.136   2.508  11.567  0.00  0.00    +0.000 C 
ATOM     13  C   UNL     1       6.131   1.361  11.667  0.00  0.00    +0.000 C 
ATOM     14  C   UNL     1       4.827   1.695  10.949  0.00  0.00    +0.000 C 
ATOM     15  C   UNL     1       4.222   3.007  11.439  0.00  0.00    +0.000 C 
ATOM     16  C   UNL     1       5.230   4.155  11.374  0.00  0.00    +0.000 C 
ENDBRANCH   9  11
ENDBRANCH   1   8
BRANCH   5  17
ATOM     17  S   UNL     1       3.200   3.573  17.801  0.00  0.00    +0.000 S 
ATOM     18  O   UNL     1       2.538   3.331  16.541  0.00  0.00    +0.000 OA
ATOM     19  O   UNL     1       3.319   2.520  18.791  0.00  0.00    +0.000 OA
BRANCH  17  20
ATOM     20  N   UNL     1       2.461   4.928  18.552  0.00  0.00    +0.000 NA
ATOM     21  C   UNL     1       2.304   4.829  20.025  0.00  0.00    +0.000 C 
ATOM     22  C   UNL     1       1.548   6.014  20.612  0.00  0.00    +0.000 C 
ATOM     23  C   UNL     1       2.140   7.336  20.150  0.00  0.00    +0.000 C 
ATOM     24  C   UNL     1       2.101   7.401  18.633  0.00  0.00    +0.000 C 
ATOM     25  C   UNL     1       2.868   6.245  18.002  0.00  0.00    +0.000 C 
ENDBRANCH  17  20
ENDBRANCH   5  17
TORSDOF 4
ENDMDL
MODEL 8
REMARK VINA RESULT:      -7.3      4.079      8.115
REMARK  Name = 
REMARK  4 active torsions:
REMARK  status: ('A' for Active; 'I' for Inactive)
REMARK    1  A    between atoms: C_2  and  C_10
REMARK    2  A    between atoms: N_3  and  C_4
REMARK    3  A    between atoms: C_14  and  S_15
REMARK    4  A    between atoms: S_15  and  N_18
REMARK                            x       y       z     vdW  Elec       q    Type
REMARK                         _______ _______ _______ _____ _____    ______ ____
ROOT
ATOM      1  C   UNL     1       2.148   6.736  19.264  0.00  0.00    +0.000 A 
ATOM      2  C   UNL     1       1.884   6.417  20.606  0.00  0.00    +0.000 A 
ATOM      3  C   UNL     1       2.055   5.104  21.051  0.00  0.00    +0.000 A 
ATOM      4  C   UNL     1       2.488   4.112  20.169  0.00  0.00    +0.000 A 
ATOM      5  C   UNL     1       2.709   4.425  18.821  0.00  0.00    +0.000 A 
ATOM      6  C   UNL     1       2.542   5.733  18.368  0.00  0.00    +0.000 A 
ENDROOT
BRANCH   1   8
ATOM      7  O   UNL     1       2.728   8.436  17.756  0.00  0.00    +0.000 OA
ATOM      8  C   UNL     1       2.061   8.121  18.735  0.00  0.00    +0.000 C 
ATOM      9  N   UNL     1       1.274   8.997  19.442  0.00  0.00    +0.000 N 
ATOM     10  H   UNL     1       0.709   8.656  20.210  0.00  0.00    +0.000 HD
BRANCH   9  11
ATOM     11  C   UNL     1       1.194  10.413  19.099  0.00  0.00    +0.000 C 
ATOM     12  C   UNL     1      -0.004  10.684  18.186  0.00  0.00    +0.000 C 
ATOM     13  C   UNL     1      -1.330  10.508  18.925  0.00  0.00    +0.000 C 
ATOM     14  C   UNL     1      -1.393  11.377  20.177  0.00  0.00    +0.000 C 
ATOM     15  C   UNL     1      -0.205  11.135  21.104  0.00  0.00    +0.000 C 
ATOM     16  C   UNL     1       1.127  11.275  20.365  0.00  0.00    +0.000 C 
ENDBRANCH   9  11
ENDBRANCH   1   8
BRANCH   5  17
ATOM     17  S   UNL     1       3.377   3.179  17.722  0.00  0.00    +0.000 S 
ATOM     18  O   UNL     1       3.578   1.981  18.502  0.00  0.00    +0.000 OA
ATOM     19  O   UNL     1       2.529   3.165  16.546  0.00  0.00    +0.000 OA
BRANCH  17  20
ATOM     20  N   UNL     1       4.913   3.792  17.263  0.00  0.00    +0.000 NA
ATOM     21  C   UNL     1       4.954   4.482  15.949  0.00  0.00    +0.000 C 
ATOM     22  C   UNL     1       6.363   4.907  15.556  0.00  0.00    +0.000 C 
ATOM     23  C   UNL     1       7.043   5.682  16.673  0.00  0.00    +0.000 C 
ATOM     24  C   UNL     1       7.094   4.822  17.924  0.00  0.00    +0.000 C 
ATOM     25  C   UNL     1       5.700   4.395  18.368  0.00  0.00    +0.000 C 
ENDBRANCH  17  20
ENDBRANCH   5  17
TORSDOF 4
ENDMDL
MODEL 9
REMARK VINA RESULT:      -7.2      6.788      9.061
REMARK  Name = 
REMARK  4 active torsions:
REMARK  status: ('A' for Active; 'I' for Inactive)
REMARK    1  A    between atoms: C_2  and  C_10
REMARK    2  A    between atoms: N_3  and  C_4
REMARK    3  A    between atoms: C_14  and  S_15
REMARK    4  A    between atoms: S_15  and  N_18
REMARK                            x       y       z     vdW  Elec       q    Type
REMARK                         _______ _______ _______ _____ _____    ______ ____
ROOT
ATOM      1  C   UNL     1       1.336   8.885  19.496  0.00  0.00    +0.000 A 
ATOM      2  C   UNL     1       1.225   8.411  20.813  0.00  0.00    +0.000 A 
ATOM      3  C   UNL     1       0.420   9.094  21.728  0.00  0.00    +0.000 A 
ATOM      4  C   UNL     1      -0.272  10.242  21.337  0.00  0.00    +0.000 A 
ATOM      5  C   UNL     1      -0.124  10.737  20.034  0.00  0.00    +0.000 A 
ATOM      6  C   UNL     1       0.676  10.061  19.114  0.00  0.00    +0.000 A 
ENDROOT
BRANCH   1   8
ATOM      7  O   UNL     1       2.325   8.725  17.375  0.00  0.00    +0.000 OA
ATOM      8  C   UNL     1       2.111   8.173  18.448  0.00  0.00    +0.000 C 
ATOM      9  N   UNL     1       2.483   6.882  18.735  0.00  0.00    +0.000 N 
ATOM     10  H   UNL     1       2.321   6.507  19.661  0.00  0.00    +0.000 HD
BRANCH   9  11
ATOM     11  C   UNL     1       3.146   6.033  17.750  0.00  0.00    +0.000 C 
ATOM     12  C   UNL     1       4.657   5.991  17.997  0.00  0.00    +0.000 C 
ATOM     13  C   UNL     1       4.999   5.237  19.281  0.00  0.00    +0.000 C 
ATOM     14  C   UNL     1       4.409   3.830  19.279  0.00  0.00    +0.000 C 
ATOM     15  C   UNL     1       2.904   3.840  19.026  0.00  0.00    +0.000 C 
ATOM     16  C   UNL     1       2.548   4.622  17.761  0.00  0.00    +0.000 C 
ENDBRANCH   9  11
ENDBRANCH   1   8
BRANCH   5  17
ATOM     17  S   UNL     1      -1.105  12.138  19.504  0.00  0.00    +0.000 S 
ATOM     18  O   UNL     1      -1.680  12.732  20.687  0.00  0.00    +0.000 OA
ATOM     19  O   UNL     1      -0.266  12.918  18.614  0.00  0.00    +0.000 OA
BRANCH  17  20
ATOM     20  N   UNL     1      -2.370  11.447  18.572  0.00  0.00    +0.000 NA
ATOM     21  C   UNL     1      -3.739  11.889  18.937  0.00  0.00    +0.000 C 
ATOM     22  C   UNL     1      -4.818  11.160  18.144  0.00  0.00    +0.000 C 
ATOM     23  C   UNL     1      -4.539  11.208  16.651  0.00  0.00    +0.000 C 
ATOM     24  C   UNL     1      -3.184  10.582  16.371  0.00  0.00    +0.000 C 
ATOM     25  C   UNL     1      -2.069  11.298  17.126  0.00  0.00    +0.000 C 
ENDBRANCH  17  20
ENDBRANCH   5  17
TORSDOF 4
ENDMDL
