MODEL 1
REMARK VINA RESULT:      -5.9      0.000      0.000
REMARK  Name = 
REMARK  5 active torsions:
REMARK  status: ('A' for Active; 'I' for Inactive)
REMARK    1  A    between atoms: C_1  and  N_2
REMARK    2  A    between atoms: N_2  and  C_3
REMARK    3  A    between atoms: N_2  and  C_4
REMARK    4  A    between atoms: C_4  and  S_5
REMARK    5  A    between atoms: S_5  and  C_6
REMARK                            x       y       z     vdW  Elec       q    Type
REMARK                         _______ _______ _______ _____ _____    ______ ____
ROOT
ATOM      1  C   UNL     1       3.743   3.853  17.312  0.00  0.00    +0.000 C 
ATOM      2  N   UNL     1       4.324   3.221  18.500  0.00  0.00    +0.000 N 
ATOM      3  C   UNL     1       3.318   3.098  19.487  0.00  0.00    +0.000 A 
ATOM      4  C   UNL     1       3.547   2.461  20.701  0.00  0.00    +0.000 A 
ATOM      5  C   UNL     1       2.530   2.425  21.654  0.00  0.00    +0.000 A 
ATOM      6  C   UNL     1       1.296   3.037  21.398  0.00  0.00    +0.000 A 
ATOM      7  C   UNL     1       1.076   3.706  20.192  0.00  0.00    +0.000 A 
ATOM      8  C   UNL     1       2.099   3.733  19.254  0.00  0.00    +0.000 A 
ATOM      9  S   UNL     1       2.118   4.560  17.702  0.00  0.00    +0.000 S 
ATOM     10  H   UNL     1       5.025   3.865  18.869  0.00  0.00    +0.000 HD
ENDROOT
BRANCH   1  11
ATOM     11  S   UNL     1       4.902   5.114  16.738  0.00  0.00    +0.000 S 
BRANCH  11  12
ATOM     12  C   UNL     1       5.621   5.553  18.349  0.00  0.00    +0.000 C 
BRANCH  12  14
ATOM     13  C   UNL     1       7.543   4.547  17.322  0.00  0.00    +0.000 C 
ATOM     14  N   UNL     1       6.913   4.898  18.600  0.00  0.00    +0.000 NA
ATOM     15  C   UNL     1       7.823   5.746  19.372  0.00  0.00    +0.000 C 
ENDBRANCH  12  14
ENDBRANCH  11  12
ENDBRANCH   1  11
TORSDOF 3
ENDMDL
MODEL 2
REMARK VINA RESULT:      -5.8      2.052      5.621
REMARK  Name = 
REMARK  5 active torsions:
REMARK  status: ('A' for Active; 'I' for Inactive)
REMARK    1  A    between atoms: C_1  and  N_2
REMARK    2  A    between atoms: N_2  and  C_3
REMARK    3  A    between atoms: N_2  and  C_4
REMARK    4  A    between atoms: C_4  and  S_5
REMARK    5  A    between atoms: S_5  and  C_6
REMARK                            x       y       z     vdW  Elec       q    Type
REMARK                         _______ _______ _______ _____ _____    ______ ____
ROOT
ATOM      1  C   UNL     1       4.373   3.928  18.960  0.00  0.00    +0.000 C 
ATOM      2  N   UNL     1       5.817   4.018  18.721  0.00  0.00    +0.000 N 
ATOM      3  C   UNL     1       6.033   4.361  17.365  0.00  0.00    +0.000 A 
ATOM      4  C   UNL     1       7.304   4.599  16.856  0.00  0.00    +0.000 A 
ATOM      5  C   UNL     1       7.452   4.876  15.498  0.00  0.00    +0.000 A 
ATOM      6  C   UNL     1       6.336   4.899  14.652  0.00  0.00    +0.000 A 
ATOM      7  C   UNL     1       5.062   4.628  15.157  0.00  0.00    +0.000 A 
ATOM      8  C   UNL     1       4.931   4.354  16.511  0.00  0.00    +0.000 A 
ATOM      9  S   UNL     1       3.471   3.908  17.385  0.00  0.00    +0.000 S 
ATOM     10  H   UNL     1       6.202   3.082  18.855  0.00  0.00    +0.000 HD
ENDROOT
BRANCH   1  11
ATOM     11  S   UNL     1       4.069   2.432  19.926  0.00  0.00    +0.000 S 
BRANCH  11  12
ATOM     12  C   UNL     1       2.326   2.184  19.472  0.00  0.00    +0.000 C 
BRANCH  12  14
ATOM     13  C   UNL     1       2.065   2.676  21.807  0.00  0.00    +0.000 C 
ATOM     14  N   UNL     1       1.390   2.655  20.504  0.00  0.00    +0.000 NA
ATOM     15  C   UNL     1       0.867   3.990  20.207  0.00  0.00    +0.000 C 
ENDBRANCH  12  14
ENDBRANCH  11  12
ENDBRANCH   1  11
TORSDOF 3
ENDMDL
MODEL 3
REMARK VINA RESULT:      -5.7      1.789      5.534
REMARK  Name = 
REMARK  5 active torsions:
REMARK  status: ('A' for Active; 'I' for Inactive)
REMARK    1  A    between atoms: C_1  and  N_2
REMARK    2  A    between atoms: N_2  and  C_3
REMARK    3  A    between atoms: N_2  and  C_4
REMARK    4  A    between atoms: C_4  and  S_5
REMARK    5  A    between atoms: S_5  and  C_6
REMARK                            x       y       z     vdW  Elec       q    Type
REMARK                         _______ _______ _______ _____ _____    ______ ____
ROOT
ATOM      1  C   UNL     1       3.763   4.448  17.645  0.00  0.00    +0.000 C 
ATOM      2  N   UNL     1       4.296   5.629  16.960  0.00  0.00    +0.000 N 
ATOM      3  C   UNL     1       5.562   5.942  17.512  0.00  0.00    +0.000 A 
ATOM      4  C   UNL     1       6.353   6.969  17.012  0.00  0.00    +0.000 A 
ATOM      5  C   UNL     1       7.564   7.262  17.639  0.00  0.00    +0.000 A 
ATOM      6  C   UNL     1       7.971   6.542  18.769  0.00  0.00    +0.000 A 
ATOM      7  C   UNL     1       7.160   5.532  19.292  0.00  0.00    +0.000 A 
ATOM      8  C   UNL     1       5.958   5.251  18.657  0.00  0.00    +0.000 A 
ATOM      9  S   UNL     1       4.724   4.096  19.143  0.00  0.00    +0.000 S 
ATOM     10  H   UNL     1       3.676   6.409  17.181  0.00  0.00    +0.000 HD
ENDROOT
BRANCH   1  11
ATOM     11  S   UNL     1       2.026   4.769  18.022  0.00  0.00    +0.000 S 
BRANCH  11  12
ATOM     12  C   UNL     1       2.130   4.644  19.833  0.00  0.00    +0.000 C 
BRANCH  12  14
ATOM     13  C   UNL     1       0.793   2.710  19.349  0.00  0.00    +0.000 C 
ATOM     14  N   UNL     1       1.198   3.656  20.396  0.00  0.00    +0.000 NA
ATOM     15  C   UNL     1       1.784   2.918  21.516  0.00  0.00    +0.000 C 
ENDBRANCH  12  14
ENDBRANCH  11  12
ENDBRANCH   1  11
TORSDOF 3
ENDMDL
MODEL 4
REMARK VINA RESULT:      -5.6      1.754      5.486
REMARK  Name = 
REMARK  5 active torsions:
REMARK  status: ('A' for Active; 'I' for Inactive)
REMARK    1  A    between atoms: C_1  and  N_2
REMARK    2  A    between atoms: N_2  and  C_3
REMARK    3  A    between atoms: N_2  and  C_4
REMARK    4  A    between atoms: C_4  and  S_5
REMARK    5  A    between atoms: S_5  and  C_6
REMARK                            x       y       z     vdW  Elec       q    Type
REMARK                         _______ _______ _______ _____ _____    ______ ____
ROOT
ATOM      1  C   UNL     1       3.859   3.651  17.716  0.00  0.00    +0.000 C 
ATOM      2  N   UNL     1       4.334   4.705  16.815  0.00  0.00    +0.000 N 
ATOM      3  C   UNL     1       5.508   5.276  17.363  0.00  0.00    +0.000 A 
ATOM      4  C   UNL     1       6.238   6.251  16.693  0.00  0.00    +0.000 A 
ATOM      5  C   UNL     1       7.352   6.814  17.314  0.00  0.00    +0.000 A 
ATOM      6  C   UNL     1       7.724   6.413  18.603  0.00  0.00    +0.000 A 
ATOM      7  C   UNL     1       6.972   5.456  19.290  0.00  0.00    +0.000 A 
ATOM      8  C   UNL     1       5.865   4.906  18.658  0.00  0.00    +0.000 A 
ATOM      9  S   UNL     1       4.711   3.752  19.315  0.00  0.00    +0.000 S 
ATOM     10  H   UNL     1       3.623   5.438  16.810  0.00  0.00    +0.000 HD
ENDROOT
BRANCH   1  11
ATOM     11  S   UNL     1       2.072   3.845  17.895  0.00  0.00    +0.000 S 
BRANCH  11  12
ATOM     12  C   UNL     1       1.801   2.566  19.159  0.00  0.00    +0.000 C 
BRANCH  12  14
ATOM     13  C   UNL     1       1.778   2.556  21.559  0.00  0.00    +0.000 C 
ATOM     14  N   UNL     1       1.117   3.077  20.356  0.00  0.00    +0.000 NA
ATOM     15  C   UNL     1       1.106   4.540  20.404  0.00  0.00    +0.000 C 
ENDBRANCH  12  14
ENDBRANCH  11  12
ENDBRANCH   1  11
TORSDOF 3
ENDMDL
MODEL 5
REMARK VINA RESULT:      -5.6      1.493      1.644
REMARK  Name = 
REMARK  5 active torsions:
REMARK  status: ('A' for Active; 'I' for Inactive)
REMARK    1  A    between atoms: C_1  and  N_2
REMARK    2  A    between atoms: N_2  and  C_3
REMARK    3  A    between atoms: N_2  and  C_4
REMARK    4  A    between atoms: C_4  and  S_5
REMARK    5  A    between atoms: S_5  and  C_6
REMARK                            x       y       z     vdW  Elec       q    Type
REMARK                         _______ _______ _______ _____ _____    ______ ____
ROOT
ATOM      1  C   UNL     1       4.539   4.098  16.888  0.00  0.00    +0.000 C 
ATOM      2  N   UNL     1       4.505   2.987  17.844  0.00  0.00    +0.000 N 
ATOM      3  C   UNL     1       3.681   3.351  18.936  0.00  0.00    +0.000 A 
ATOM      4  C   UNL     1       3.390   2.469  19.970  0.00  0.00    +0.000 A 
ATOM      5  C   UNL     1       2.619   2.911  21.045  0.00  0.00    +0.000 A 
ATOM      6  C   UNL     1       2.157   4.232  21.091  0.00  0.00    +0.000 A 
ATOM      7  C   UNL     1       2.477   5.129  20.069  0.00  0.00    +0.000 A 
ATOM      8  C   UNL     1       3.245   4.674  19.006  0.00  0.00    +0.000 A 
ATOM      9  S   UNL     1       3.852   5.600  17.639  0.00  0.00    +0.000 S 
ATOM     10  H   UNL     1       5.452   2.878  18.211  0.00  0.00    +0.000 HD
ENDROOT
BRANCH   1  11
ATOM     11  S   UNL     1       6.255   4.329  16.376  0.00  0.00    +0.000 S 
BRANCH  11  12
ATOM     12  C   UNL     1       6.391   6.108  16.729  0.00  0.00    +0.000 C 
BRANCH  12  14
ATOM     13  C   UNL     1       7.728   7.917  17.564  0.00  0.00    +0.000 C 
ATOM     14  N   UNL     1       7.621   6.458  17.455  0.00  0.00    +0.000 NA
ATOM     15  C   UNL     1       7.660   5.867  18.794  0.00  0.00    +0.000 C 
ENDBRANCH  12  14
ENDBRANCH  11  12
ENDBRANCH   1  11
TORSDOF 3
ENDMDL
MODEL 6
REMARK VINA RESULT:      -5.6      1.714      1.905
REMARK  Name = 
REMARK  5 active torsions:
REMARK  status: ('A' for Active; 'I' for Inactive)
REMARK    1  A    between atoms: C_1  and  N_2
REMARK    2  A    between atoms: N_2  and  C_3
REMARK    3  A    between atoms: N_2  and  C_4
REMARK    4  A    between atoms: C_4  and  S_5
REMARK    5  A    between atoms: S_5  and  C_6
REMARK                            x       y       z     vdW  Elec       q    Type
REMARK                         _______ _______ _______ _____ _____    ______ ____
ROOT
ATOM      1  C   UNL     1       3.858   4.471  16.721  0.00  0.00    +0.000 C 
ATOM      2  N   UNL     1       3.128   3.264  17.120  0.00  0.00    +0.000 N 
ATOM      3  C   UNL     1       2.419   3.535  18.314  0.00  0.00    +0.000 A 
ATOM      4  C   UNL     1       1.567   2.603  18.896  0.00  0.00    +0.000 A 
ATOM      5  C   UNL     1       0.943   2.913  20.104  0.00  0.00    +0.000 A 
ATOM      6  C   UNL     1       1.183   4.141  20.733  0.00  0.00    +0.000 A 
ATOM      7  C   UNL     1       2.064   5.065  20.165  0.00  0.00    +0.000 A 
ATOM      8  C   UNL     1       2.678   4.742  18.963  0.00  0.00    +0.000 A 
ATOM      9  S   UNL     1       3.876   5.677  18.078  0.00  0.00    +0.000 S 
ATOM     10  H   UNL     1       3.826   2.553  17.345  0.00  0.00    +0.000 HD
ENDROOT
BRANCH   1  11
ATOM     11  S   UNL     1       5.527   3.972  16.245  0.00  0.00    +0.000 S 
BRANCH  11  12
ATOM     12  C   UNL     1       6.251   5.632  16.073  0.00  0.00    +0.000 C 
BRANCH  12  14
ATOM     13  C   UNL     1       7.444   7.117  17.534  0.00  0.00    +0.000 C 
ATOM     14  N   UNL     1       7.476   5.810  16.867  0.00  0.00    +0.000 NA
ATOM     15  C   UNL     1       7.641   4.757  17.872  0.00  0.00    +0.000 C 
ENDBRANCH  12  14
ENDBRANCH  11  12
ENDBRANCH   1  11
TORSDOF 3
ENDMDL
MODEL 7
REMARK VINA RESULT:      -5.5      1.260      1.438
REMARK  Name = 
REMARK  5 active torsions:
REMARK  status: ('A' for Active; 'I' for Inactive)
REMARK    1  A    between atoms: C_1  and  N_2
REMARK    2  A    between atoms: N_2  and  C_3
REMARK    3  A    between atoms: N_2  and  C_4
REMARK    4  A    between atoms: C_4  and  S_5
REMARK    5  A    between atoms: S_5  and  C_6
REMARK                            x       y       z     vdW  Elec       q    Type
REMARK                         _______ _______ _______ _____ _____    ______ ____
ROOT
ATOM      1  C   UNL     1       3.723   4.908  17.610  0.00  0.00    +0.000 C 
ATOM      2  N   UNL     1       4.343   4.177  18.719  0.00  0.00    +0.000 N 
ATOM      3  C   UNL     1       3.323   3.683  19.566  0.00  0.00    +0.000 A 
ATOM      4  C   UNL     1       3.599   2.878  20.665  0.00  0.00    +0.000 A 
ATOM      5  C   UNL     1       2.552   2.472  21.492  0.00  0.00    +0.000 A 
ATOM      6  C   UNL     1       1.240   2.884  21.229  0.00  0.00    +0.000 A 
ATOM      7  C   UNL     1       0.966   3.720  20.144  0.00  0.00    +0.000 A 
ATOM      8  C   UNL     1       2.019   4.115  19.330  0.00  0.00    +0.000 A 
ATOM      9  S   UNL     1       1.968   5.215  17.958  0.00  0.00    +0.000 S 
ATOM     10  H   UNL     1       4.878   4.856  19.264  0.00  0.00    +0.000 HD
ENDROOT
BRANCH   1  11
ATOM     11  S   UNL     1       4.641   6.447  17.385  0.00  0.00    +0.000 S 
BRANCH  11  12
ATOM     12  C   UNL     1       5.762   5.885  16.068  0.00  0.00    +0.000 C 
BRANCH  12  14
ATOM     13  C   UNL     1       7.425   6.989  17.401  0.00  0.00    +0.000 C 
ATOM     14  N   UNL     1       7.173   5.874  16.480  0.00  0.00    +0.000 NA
ATOM     15  C   UNL     1       7.550   4.616  17.128  0.00  0.00    +0.000 C 
ENDBRANCH  12  14
ENDBRANCH  11  12
ENDBRANCH   1  11
TORSDOF 3
ENDMDL
MODEL 8
REMARK VINA RESULT:      -5.5      0.874      1.127
REMARK  Name = 
REMARK  5 active torsions:
REMARK  status: ('A' for Active; 'I' for Inactive)
REMARK    1  A    between atoms: C_1  and  N_2
REMARK    2  A    between atoms: N_2  and  C_3
REMARK    3  A    between atoms: N_2  and  C_4
REMARK    4  A    between atoms: C_4  and  S_5
REMARK    5  A    between atoms: S_5  and  C_6
REMARK                            x       y       z     vdW  Elec       q    Type
REMARK                         _______ _______ _______ _____ _____    ______ ____
ROOT
ATOM      1  C   UNL     1       4.161   3.325  17.269  0.00  0.00    +0.000 C 
ATOM      2  N   UNL     1       4.617   3.148  18.651  0.00  0.00    +0.000 N 
ATOM      3  C   UNL     1       3.485   3.001  19.487  0.00  0.00    +0.000 A 
ATOM      4  C   UNL     1       3.600   2.736  20.847  0.00  0.00    +0.000 A 
ATOM      5  C   UNL     1       2.446   2.660  21.626  0.00  0.00    +0.000 A 
ATOM      6  C   UNL     1       1.186   2.865  21.049  0.00  0.00    +0.000 A 
ATOM      7  C   UNL     1       1.072   3.165  19.689  0.00  0.00    +0.000 A 
ATOM      8  C   UNL     1       2.230   3.236  18.927  0.00  0.00    +0.000 A 
ATOM      9  S   UNL     1       2.380   3.667  17.229  0.00  0.00    +0.000 S 
ATOM     10  H   UNL     1       5.080   4.015  18.927  0.00  0.00    +0.000 HD
ENDROOT
BRANCH   1  11
ATOM     11  S   UNL     1       5.119   4.674  16.543  0.00  0.00    +0.000 S 
BRANCH  11  12
ATOM     12  C   UNL     1       6.533   4.627  17.686  0.00  0.00    +0.000 C 
BRANCH  12  14
ATOM     13  C   UNL     1       7.640   5.703  19.524  0.00  0.00    +0.000 C 
ATOM     14  N   UNL     1       6.770   5.912  18.361  0.00  0.00    +0.000 NA
ATOM     15  C   UNL     1       7.381   6.900  17.470  0.00  0.00    +0.000 C 
ENDBRANCH  12  14
ENDBRANCH  11  12
ENDBRANCH   1  11
TORSDOF 3
ENDMDL
MODEL 9
REMARK VINA RESULT:      -5.5      2.007      2.408
REMARK  Name = 
REMARK  5 active torsions:
REMARK  status: ('A' for Active; 'I' for Inactive)
REMARK    1  A    between atoms: C_1  and  N_2
REMARK    2  A    between atoms: N_2  and  C_3
REMARK    3  A    between atoms: N_2  and  C_4
REMARK    4  A    between atoms: C_4  and  S_5
REMARK    5  A    between atoms: S_5  and  C_6
REMARK                            x       y       z     vdW  Elec       q    Type
REMARK                         _______ _______ _______ _____ _____    ______ ____
ROOT
ATOM      1  C   UNL     1       3.525   6.030  17.622  0.00  0.00    +0.000 C 
ATOM      2  N   UNL     1       3.452   4.588  17.367  0.00  0.00    +0.000 N 
ATOM      3  C   UNL     1       2.552   4.007  18.292  0.00  0.00    +0.000 A 
ATOM      4  C   UNL     1       2.213   2.660  18.248  0.00  0.00    +0.000 A 
ATOM      5  C   UNL     1       1.366   2.139  19.225  0.00  0.00    +0.000 A 
ATOM      6  C   UNL     1       0.875   2.959  20.249  0.00  0.00    +0.000 A 
ATOM      7  C   UNL     1       1.242   4.306  20.313  0.00  0.00    +0.000 A 
ATOM      8  C   UNL     1       2.086   4.809  19.333  0.00  0.00    +0.000 A 
ATOM      9  S   UNL     1       2.760   6.430  19.218  0.00  0.00    +0.000 S 
ATOM     10  H   UNL     1       4.375   4.201  17.568  0.00  0.00    +0.000 HD
ENDROOT
BRANCH   1  11
ATOM     11  S   UNL     1       5.266   6.509  17.574  0.00  0.00    +0.000 S 
BRANCH  11  12
ATOM     12  C   UNL     1       5.610   6.049  15.848  0.00  0.00    +0.000 C 
BRANCH  12  14
ATOM     13  C   UNL     1       7.272   4.572  16.752  0.00  0.00    +0.000 C 
ATOM     14  N   UNL     1       6.960   5.499  15.658  0.00  0.00    +0.000 NA
ATOM     15  C   UNL     1       7.098   4.802  14.377  0.00  0.00    +0.000 C 
ENDBRANCH  12  14
ENDBRANCH  11  12
ENDBRANCH   1  11
TORSDOF 3
ENDMDL
