MODEL 1
REMARK VINA RESULT:      -8.4      0.000      0.000
REMARK  Name = 
REMARK  5 active torsions:
REMARK  status: ('A' for Active; 'I' for Inactive)
REMARK    1  A    between atoms: O_1  and  C_2
REMARK    2  A    between atoms: C_4  and  C_5
REMARK    3  A    between atoms: C_6  and  C_7
REMARK    4  A    between atoms: C_14  and  C_15
REMARK    5  A    between atoms: C_16  and  C_17
REMARK                            x       y       z     vdW  Elec       q    Type
REMARK                         _______ _______ _______ _____ _____    ______ ____
ROOT
ATOM      1  C   UNL     1       3.406   4.099  19.577  0.00  0.00    +0.000 A 
ATOM      2  C   UNL     1       4.123   4.164  18.386  0.00  0.00    +0.000 A 
ATOM      3  C   UNL     1       4.159   5.361  17.659  0.00  0.00    +0.000 A 
ATOM      4  C   UNL     1       3.448   6.470  18.142  0.00  0.00    +0.000 A 
ATOM      5  C   UNL     1       2.743   6.413  19.353  0.00  0.00    +0.000 A 
ATOM      6  C   UNL     1       2.718   5.207  20.061  0.00  0.00    +0.000 A 
ENDROOT
BRANCH   1   7
ATOM      7  O   UNL     1       3.344   2.948  20.306  0.00  0.00    +0.000 OA
ATOM      8  H   UNL     1       2.589   2.421  19.995  0.00  0.00    +0.000 HD
ENDBRANCH   1   7
BRANCH   3   9
ATOM      9  C   UNL     1       4.870   5.389  16.370  0.00  0.00    +0.000 C 
ATOM     10  C   UNL     1       5.187   4.296  15.655  0.00  0.00    +0.000 C 
BRANCH  10  11
ATOM     11  C   UNL     1       5.955   4.326  14.401  0.00  0.00    +0.000 A 
ATOM     12  C   UNL     1       5.534   3.519  13.333  0.00  0.00    +0.000 A 
ATOM     13  C   UNL     1       6.245   3.498  12.130  0.00  0.00    +0.000 A 
ATOM     14  C   UNL     1       7.376   4.295  11.976  0.00  0.00    +0.000 A 
ATOM     15  C   UNL     1       7.787   5.126  13.015  0.00  0.00    +0.000 A 
ATOM     16  C   UNL     1       7.075   5.147  14.218  0.00  0.00    +0.000 A 
ENDBRANCH  10  11
ENDBRANCH   3   9
BRANCH   5  17
ATOM     17  C   UNL     1       1.996   7.602  19.791  0.00  0.00    +0.000 C 
ATOM     18  C   UNL     1       1.391   7.712  20.983  0.00  0.00    +0.000 C 
BRANCH  18  19
ATOM     19  C   UNL     1       0.640   8.917  21.335  0.00  0.00    +0.000 A 
ATOM     20  C   UNL     1       0.218   9.109  22.653  0.00  0.00    +0.000 A 
ATOM     21  C   UNL     1      -0.520  10.243  22.997  0.00  0.00    +0.000 A 
ATOM     22  C   UNL     1      -0.839  11.189  22.023  0.00  0.00    +0.000 A 
ATOM     23  C   UNL     1      -0.419  11.003  20.706  0.00  0.00    +0.000 A 
ATOM     24  C   UNL     1       0.320   9.869  20.360  0.00  0.00    +0.000 A 
ENDBRANCH  18  19
ENDBRANCH   5  17
TORSDOF 5
ENDMDL
MODEL 2
REMARK VINA RESULT:      -8.4      0.178      9.437
REMARK  Name = 
REMARK  5 active torsions:
REMARK  status: ('A' for Active; 'I' for Inactive)
REMARK    1  A    between atoms: O_1  and  C_2
REMARK    2  A    between atoms: C_4  and  C_5
REMARK    3  A    between atoms: C_6  and  C_7
REMARK    4  A    between atoms: C_14  and  C_15
REMARK    5  A    between atoms: C_16  and  C_17
REMARK                            x       y       z     vdW  Elec       q    Type
REMARK                         _______ _______ _______ _____ _____    ______ ____
ROOT
ATOM      1  C   UNL     1       3.323   4.112  19.751  0.00  0.00    +0.000 A 
ATOM      2  C   UNL     1       2.655   5.263  20.159  0.00  0.00    +0.000 A 
ATOM      3  C   UNL     1       2.673   6.404  19.345  0.00  0.00    +0.000 A 
ATOM      4  C   UNL     1       3.387   6.365  18.138  0.00  0.00    +0.000 A 
ATOM      5  C   UNL     1       4.042   5.198  17.715  0.00  0.00    +0.000 A 
ATOM      6  C   UNL     1       4.014   4.073  18.544  0.00  0.00    +0.000 A 
ENDROOT
BRANCH   1   7
ATOM      7  O   UNL     1       3.333   2.987  20.522  0.00  0.00    +0.000 OA
ATOM      8  H   UNL     1       4.143   2.484  20.332  0.00  0.00    +0.000 HD
ENDBRANCH   1   7
BRANCH   3   9
ATOM      9  C   UNL     1       2.015   7.629  19.825  0.00  0.00    +0.000 C 
ATOM     10  C   UNL     1       1.303   7.712  20.961  0.00  0.00    +0.000 C 
BRANCH  10  11
ATOM     11  C   UNL     1       0.593   8.923  21.402  0.00  0.00    +0.000 A 
ATOM     12  C   UNL     1       0.427   9.977  20.491  0.00  0.00    +0.000 A 
ATOM     13  C   UNL     1      -0.221  11.155  20.871  0.00  0.00    +0.000 A 
ATOM     14  C   UNL     1      -0.723  11.287  22.163  0.00  0.00    +0.000 A 
ATOM     15  C   UNL     1      -0.594  10.238  23.069  0.00  0.00    +0.000 A 
ATOM     16  C   UNL     1       0.053   9.059  22.687  0.00  0.00    +0.000 A 
ENDBRANCH  10  11
ENDBRANCH   3   9
BRANCH   5  17
ATOM     17  C   UNL     1       4.794   5.230  16.451  0.00  0.00    +0.000 C 
ATOM     18  C   UNL     1       5.096   4.142  15.728  0.00  0.00    +0.000 C 
BRANCH  18  19
ATOM     19  C   UNL     1       5.875   4.252  14.495  0.00  0.00    +0.000 A 
ATOM     20  C   UNL     1       5.482   3.536  13.361  0.00  0.00    +0.000 A 
ATOM     21  C   UNL     1       6.232   3.613  12.187  0.00  0.00    +0.000 A 
ATOM     22  C   UNL     1       7.378   4.406  12.141  0.00  0.00    +0.000 A 
ATOM     23  C   UNL     1       7.773   5.125  13.270  0.00  0.00    +0.000 A 
ATOM     24  C   UNL     1       7.025   5.049  14.447  0.00  0.00    +0.000 A 
ENDBRANCH  18  19
ENDBRANCH   5  17
TORSDOF 5
ENDMDL
MODEL 3
REMARK VINA RESULT:      -8.4      0.180      9.417
REMARK  Name = 
REMARK  5 active torsions:
REMARK  status: ('A' for Active; 'I' for Inactive)
REMARK    1  A    between atoms: O_1  and  C_2
REMARK    2  A    between atoms: C_4  and  C_5
REMARK    3  A    between atoms: C_6  and  C_7
REMARK    4  A    between atoms: C_14  and  C_15
REMARK    5  A    between atoms: C_16  and  C_17
REMARK                            x       y       z     vdW  Elec       q    Type
REMARK                         _______ _______ _______ _____ _____    ______ ____
ROOT
ATOM      1  C   UNL     1       3.331   4.080  19.701  0.00  0.00    +0.000 A 
ATOM      2  C   UNL     1       2.680   5.237  20.120  0.00  0.00    +0.000 A 
ATOM      3  C   UNL     1       2.713   6.384  19.317  0.00  0.00    +0.000 A 
ATOM      4  C   UNL     1       3.425   6.346  18.109  0.00  0.00    +0.000 A 
ATOM      5  C   UNL     1       4.063   5.175  17.675  0.00  0.00    +0.000 A 
ATOM      6  C   UNL     1       4.020   4.042  18.494  0.00  0.00    +0.000 A 
ENDROOT
BRANCH   1   7
ATOM      7  O   UNL     1       3.325   2.948  20.462  0.00  0.00    +0.000 OA
ATOM      8  H   UNL     1       4.223   2.576  20.476  0.00  0.00    +0.000 HD
ENDBRANCH   1   7
BRANCH   3   9
ATOM      9  C   UNL     1       2.073   7.615  19.809  0.00  0.00    +0.000 C 
ATOM     10  C   UNL     1       1.327   7.688  20.924  0.00  0.00    +0.000 C 
BRANCH  10  11
ATOM     11  C   UNL     1       0.636   8.906  21.375  0.00  0.00    +0.000 A 
ATOM     12  C   UNL     1       0.499   9.975  20.477  0.00  0.00    +0.000 A 
ATOM     13  C   UNL     1      -0.130  11.160  20.867  0.00  0.00    +0.000 A 
ATOM     14  C   UNL     1      -0.643  11.284  22.156  0.00  0.00    +0.000 A 
ATOM     15  C   UNL     1      -0.542  10.220  23.049  0.00  0.00    +0.000 A 
ATOM     16  C   UNL     1       0.086   9.034  22.657  0.00  0.00    +0.000 A 
ENDBRANCH  10  11
ENDBRANCH   3   9
BRANCH   5  17
ATOM     17  C   UNL     1       4.816   5.208  16.411  0.00  0.00    +0.000 C 
ATOM     18  C   UNL     1       5.163   4.116  15.715  0.00  0.00    +0.000 C 
BRANCH  18  19
ATOM     19  C   UNL     1       5.939   4.229  14.479  0.00  0.00    +0.000 A 
ATOM     20  C   UNL     1       7.051   5.073  14.434  0.00  0.00    +0.000 A 
ATOM     21  C   UNL     1       7.784   5.208  13.255  0.00  0.00    +0.000 A 
ATOM     22  C   UNL     1       7.409   4.497  12.115  0.00  0.00    +0.000 A 
ATOM     23  C   UNL     1       6.300   3.650  12.155  0.00  0.00    +0.000 A 
ATOM     24  C   UNL     1       5.565   3.515  13.335  0.00  0.00    +0.000 A 
ENDBRANCH  18  19
ENDBRANCH   5  17
TORSDOF 5
ENDMDL
MODEL 4
REMARK VINA RESULT:      -8.2      0.398      1.080
REMARK  Name = 
REMARK  5 active torsions:
REMARK  status: ('A' for Active; 'I' for Inactive)
REMARK    1  A    between atoms: O_1  and  C_2
REMARK    2  A    between atoms: C_4  and  C_5
REMARK    3  A    between atoms: C_6  and  C_7
REMARK    4  A    between atoms: C_14  and  C_15
REMARK    5  A    between atoms: C_16  and  C_17
REMARK                            x       y       z     vdW  Elec       q    Type
REMARK                         _______ _______ _______ _____ _____    ______ ____
ROOT
ATOM      1  C   UNL     1       3.090   4.129  19.718  0.00  0.00    +0.000 A 
ATOM      2  C   UNL     1       3.757   4.143  18.496  0.00  0.00    +0.000 A 
ATOM      3  C   UNL     1       3.853   5.337  17.770  0.00  0.00    +0.000 A 
ATOM      4  C   UNL     1       3.253   6.496  18.285  0.00  0.00    +0.000 A 
ATOM      5  C   UNL     1       2.600   6.488  19.527  0.00  0.00    +0.000 A 
ATOM      6  C   UNL     1       2.513   5.285  20.234  0.00  0.00    +0.000 A 
ENDROOT
BRANCH   1   7
ATOM      7  O   UNL     1       2.971   2.983  20.449  0.00  0.00    +0.000 OA
ATOM      8  H   UNL     1       3.849   2.731  20.782  0.00  0.00    +0.000 HD
ENDBRANCH   1   7
BRANCH   3   9
ATOM      9  C   UNL     1       4.506   5.315  16.451  0.00  0.00    +0.000 C 
ATOM     10  C   UNL     1       5.145   4.250  15.939  0.00  0.00    +0.000 C 
BRANCH  10  11
ATOM     11  C   UNL     1       5.852   4.255  14.649  0.00  0.00    +0.000 A 
ATOM     12  C   UNL     1       7.027   5.012  14.527  0.00  0.00    +0.000 A 
ATOM     13  C   UNL     1       7.720   5.064  13.314  0.00  0.00    +0.000 A 
ATOM     14  C   UNL     1       7.254   4.350  12.214  0.00  0.00    +0.000 A 
ATOM     15  C   UNL     1       6.106   3.570  12.329  0.00  0.00    +0.000 A 
ATOM     16  C   UNL     1       5.414   3.516  13.543  0.00  0.00    +0.000 A 
ENDBRANCH  10  11
ENDBRANCH   3   9
BRANCH   5  17
ATOM     17  C   UNL     1       1.968   7.730  19.999  0.00  0.00    +0.000 C 
ATOM     18  C   UNL     1       1.275   7.832  21.142  0.00  0.00    +0.000 C 
BRANCH  18  19
ATOM     19  C   UNL     1       0.649   9.096  21.530  0.00  0.00    +0.000 A 
ATOM     20  C   UNL     1      -0.206   9.136  22.635  0.00  0.00    +0.000 A 
ATOM     21  C   UNL     1      -0.829  10.330  23.000  0.00  0.00    +0.000 A 
ATOM     22  C   UNL     1      -0.598  11.490  22.262  0.00  0.00    +0.000 A 
ATOM     23  C   UNL     1       0.256  11.457  21.160  0.00  0.00    +0.000 A 
ATOM     24  C   UNL     1       0.879  10.263  20.792  0.00  0.00    +0.000 A 
ENDBRANCH  18  19
ENDBRANCH   5  17
TORSDOF 5
ENDMDL
MODEL 5
REMARK VINA RESULT:      -8.2      0.167      1.016
REMARK  Name = 
REMARK  5 active torsions:
REMARK  status: ('A' for Active; 'I' for Inactive)
REMARK    1  A    between atoms: O_1  and  C_2
REMARK    2  A    between atoms: C_4  and  C_5
REMARK    3  A    between atoms: C_6  and  C_7
REMARK    4  A    between atoms: C_14  and  C_15
REMARK    5  A    between atoms: C_16  and  C_17
REMARK                            x       y       z     vdW  Elec       q    Type
REMARK                         _______ _______ _______ _____ _____    ______ ____
ROOT
ATOM      1  C   UNL     1       3.433   4.095  19.704  0.00  0.00    +0.000 A 
ATOM      2  C   UNL     1       4.162   4.168  18.521  0.00  0.00    +0.000 A 
ATOM      3  C   UNL     1       4.156   5.351  17.771  0.00  0.00    +0.000 A 
ATOM      4  C   UNL     1       3.392   6.438  18.224  0.00  0.00    +0.000 A 
ATOM      5  C   UNL     1       2.675   6.373  19.428  0.00  0.00    +0.000 A 
ATOM      6  C   UNL     1       2.692   5.181  20.159  0.00  0.00    +0.000 A 
ENDROOT
BRANCH   1   7
ATOM      7  O   UNL     1       3.410   2.956  20.455  0.00  0.00    +0.000 OA
ATOM      8  H   UNL     1       3.585   2.196  19.876  0.00  0.00    +0.000 HD
ENDBRANCH   1   7
BRANCH   3   9
ATOM      9  C   UNL     1       4.881   5.385  16.491  0.00  0.00    +0.000 C 
ATOM     10  C   UNL     1       5.135   4.304  15.735  0.00  0.00    +0.000 C 
BRANCH  10  11
ATOM     11  C   UNL     1       5.918   4.335  14.489  0.00  0.00    +0.000 A 
ATOM     12  C   UNL     1       5.525   3.509  13.426  0.00  0.00    +0.000 A 
ATOM     13  C   UNL     1       6.249   3.489  12.231  0.00  0.00    +0.000 A 
ATOM     14  C   UNL     1       7.367   4.305  12.081  0.00  0.00    +0.000 A 
ATOM     15  C   UNL     1       7.752   5.153  13.116  0.00  0.00    +0.000 A 
ATOM     16  C   UNL     1       7.025   5.174  14.310  0.00  0.00    +0.000 A 
ENDBRANCH  10  11
ENDBRANCH   3   9
BRANCH   5  17
ATOM     17  C   UNL     1       1.872   7.538  19.834  0.00  0.00    +0.000 C 
ATOM     18  C   UNL     1       1.633   7.877  21.109  0.00  0.00    +0.000 C 
BRANCH  18  19
ATOM     19  C   UNL     1       0.799   9.035  21.434  0.00  0.00    +0.000 A 
ATOM     20  C   UNL     1       0.621  10.048  20.489  0.00  0.00    +0.000 A 
ATOM     21  C   UNL     1      -0.152  11.168  20.796  0.00  0.00    +0.000 A 
ATOM     22  C   UNL     1      -0.751  11.279  22.050  0.00  0.00    +0.000 A 
ATOM     23  C   UNL     1      -0.578  10.269  22.997  0.00  0.00    +0.000 A 
ATOM     24  C   UNL     1       0.196   9.148  22.692  0.00  0.00    +0.000 A 
ENDBRANCH  18  19
ENDBRANCH   5  17
TORSDOF 5
ENDMDL
MODEL 6
REMARK VINA RESULT:      -8.1      0.350      9.408
REMARK  Name = 
REMARK  5 active torsions:
REMARK  status: ('A' for Active; 'I' for Inactive)
REMARK    1  A    between atoms: O_1  and  C_2
REMARK    2  A    between atoms: C_4  and  C_5
REMARK    3  A    between atoms: C_6  and  C_7
REMARK    4  A    between atoms: C_14  and  C_15
REMARK    5  A    between atoms: C_16  and  C_17
REMARK                            x       y       z     vdW  Elec       q    Type
REMARK                         _______ _______ _______ _____ _____    ______ ____
ROOT
ATOM      1  C   UNL     1       3.189   4.027  19.712  0.00  0.00    +0.000 A 
ATOM      2  C   UNL     1       2.605   5.220  20.127  0.00  0.00    +0.000 A 
ATOM      3  C   UNL     1       2.601   6.328  19.270  0.00  0.00    +0.000 A 
ATOM      4  C   UNL     1       3.210   6.214  18.011  0.00  0.00    +0.000 A 
ATOM      5  C   UNL     1       3.779   5.006  17.582  0.00  0.00    +0.000 A 
ATOM      6  C   UNL     1       3.774   3.913  18.455  0.00  0.00    +0.000 A 
ENDROOT
BRANCH   1   7
ATOM      7  O   UNL     1       3.217   2.930  20.523  0.00  0.00    +0.000 OA
ATOM      8  H   UNL     1       3.384   3.221  21.436  0.00  0.00    +0.000 HD
ENDBRANCH   1   7
BRANCH   3   9
ATOM      9  C   UNL     1       2.036   7.598  19.753  0.00  0.00    +0.000 C 
ATOM     10  C   UNL     1       1.281   7.720  20.858  0.00  0.00    +0.000 C 
BRANCH  10  11
ATOM     11  C   UNL     1       0.665   8.981  21.299  0.00  0.00    +0.000 A 
ATOM     12  C   UNL     1      -0.022   9.004  22.522  0.00  0.00    +0.000 A 
ATOM     13  C   UNL     1      -0.642  10.173  22.972  0.00  0.00    +0.000 A 
ATOM     14  C   UNL     1      -0.569  11.336  22.211  0.00  0.00    +0.000 A 
ATOM     15  C   UNL     1       0.136  11.338  21.010  0.00  0.00    +0.000 A 
ATOM     16  C   UNL     1       0.757  10.168  20.562  0.00  0.00    +0.000 A 
ENDBRANCH  10  11
ENDBRANCH   3   9
BRANCH   5  17
ATOM     17  C   UNL     1       4.424   4.959  16.261  0.00  0.00    +0.000 C 
ATOM     18  C   UNL     1       5.468   4.173  15.963  0.00  0.00    +0.000 C 
BRANCH  18  19
ATOM     19  C   UNL     1       6.076   4.205  14.632  0.00  0.00    +0.000 A 
ATOM     20  C   UNL     1       7.216   4.982  14.409  0.00  0.00    +0.000 A 
ATOM     21  C   UNL     1       7.790   5.040  13.139  0.00  0.00    +0.000 A 
ATOM     22  C   UNL     1       7.227   4.319  12.086  0.00  0.00    +0.000 A 
ATOM     23  C   UNL     1       6.091   3.540  12.303  0.00  0.00    +0.000 A 
ATOM     24  C   UNL     1       5.514   3.481  13.574  0.00  0.00    +0.000 A 
ENDBRANCH  18  19
ENDBRANCH   5  17
TORSDOF 5
ENDMDL
MODEL 7
REMARK VINA RESULT:      -8.1      0.666      1.602
REMARK  Name = 
REMARK  5 active torsions:
REMARK  status: ('A' for Active; 'I' for Inactive)
REMARK    1  A    between atoms: O_1  and  C_2
REMARK    2  A    between atoms: C_4  and  C_5
REMARK    3  A    between atoms: C_6  and  C_7
REMARK    4  A    between atoms: C_14  and  C_15
REMARK    5  A    between atoms: C_16  and  C_17
REMARK                            x       y       z     vdW  Elec       q    Type
REMARK                         _______ _______ _______ _____ _____    ______ ____
ROOT
ATOM      1  C   UNL     1       3.415   3.484  20.002  0.00  0.00    +0.000 A 
ATOM      2  C   UNL     1       4.046   3.261  18.781  0.00  0.00    +0.000 A 
ATOM      3  C   UNL     1       4.064   4.272  17.811  0.00  0.00    +0.000 A 
ATOM      4  C   UNL     1       3.423   5.489  18.088  0.00  0.00    +0.000 A 
ATOM      5  C   UNL     1       2.807   5.724  19.326  0.00  0.00    +0.000 A 
ATOM      6  C   UNL     1       2.798   4.700  20.278  0.00  0.00    +0.000 A 
ENDROOT
BRANCH   1   7
ATOM      7  O   UNL     1       3.372   2.520  20.965  0.00  0.00    +0.000 OA
ATOM      8  H   UNL     1       2.444   2.361  21.208  0.00  0.00    +0.000 HD
ENDBRANCH   1   7
BRANCH   3   9
ATOM      9  C   UNL     1       4.680   3.992  16.504  0.00  0.00    +0.000 C 
ATOM     10  C   UNL     1       5.502   4.835  15.858  0.00  0.00    +0.000 C 
BRANCH  10  11
ATOM     11  C   UNL     1       6.062   4.577  14.522  0.00  0.00    +0.000 A 
ATOM     12  C   UNL     1       7.251   5.224  14.153  0.00  0.00    +0.000 A 
ATOM     13  C   UNL     1       7.808   5.027  12.887  0.00  0.00    +0.000 A 
ATOM     14  C   UNL     1       7.191   4.169  11.980  0.00  0.00    +0.000 A 
ATOM     15  C   UNL     1       6.028   3.495  12.343  0.00  0.00    +0.000 A 
ATOM     16  C   UNL     1       5.472   3.692  13.611  0.00  0.00    +0.000 A 
ENDBRANCH  10  11
ENDBRANCH   3   9
BRANCH   5  17
ATOM     17  C   UNL     1       2.129   7.011  19.544  0.00  0.00    +0.000 C 
ATOM     18  C   UNL     1       1.699   7.441  20.739  0.00  0.00    +0.000 C 
BRANCH  18  19
ATOM     19  C   UNL     1       1.005   8.722  20.872  0.00  0.00    +0.000 A 
ATOM     20  C   UNL     1       0.915   9.578  19.771  0.00  0.00    +0.000 A 
ATOM     21  C   UNL     1       0.278  10.814  19.892  0.00  0.00    +0.000 A 
ATOM     22  C   UNL     1      -0.272  11.198  21.114  0.00  0.00    +0.000 A 
ATOM     23  C   UNL     1      -0.187  10.346  22.216  0.00  0.00    +0.000 A 
ATOM     24  C   UNL     1       0.451   9.110  22.097  0.00  0.00    +0.000 A 
ENDBRANCH  18  19
ENDBRANCH   5  17
TORSDOF 5
ENDMDL
MODEL 8
REMARK VINA RESULT:      -8.1      0.636      9.181
REMARK  Name = 
REMARK  5 active torsions:
REMARK  status: ('A' for Active; 'I' for Inactive)
REMARK    1  A    between atoms: O_1  and  C_2
REMARK    2  A    between atoms: C_4  and  C_5
REMARK    3  A    between atoms: C_6  and  C_7
REMARK    4  A    between atoms: C_14  and  C_15
REMARK    5  A    between atoms: C_16  and  C_17
REMARK                            x       y       z     vdW  Elec       q    Type
REMARK                         _______ _______ _______ _____ _____    ______ ____
ROOT
ATOM      1  C   UNL     1       3.221   3.543  20.004  0.00  0.00    +0.000 A 
ATOM      2  C   UNL     1       2.705   4.802  20.299  0.00  0.00    +0.000 A 
ATOM      3  C   UNL     1       2.791   5.829  19.350  0.00  0.00    +0.000 A 
ATOM      4  C   UNL     1       3.420   5.569  18.123  0.00  0.00    +0.000 A 
ATOM      5  C   UNL     1       3.921   4.295  17.816  0.00  0.00    +0.000 A 
ATOM      6  C   UNL     1       3.827   3.285  18.778  0.00  0.00    +0.000 A 
ENDROOT
BRANCH   1   7
ATOM      7  O   UNL     1       3.161   2.522  20.907  0.00  0.00    +0.000 OA
ATOM      8  H   UNL     1       2.529   1.857  20.586  0.00  0.00    +0.000 HD
ENDBRANCH   1   7
BRANCH   3   9
ATOM      9  C   UNL     1       2.297   7.169  19.707  0.00  0.00    +0.000 C 
ATOM     10  C   UNL     1       1.403   7.413  20.679  0.00  0.00    +0.000 C 
BRANCH  10  11
ATOM     11  C   UNL     1       0.864   8.747  20.987  0.00  0.00    +0.000 A 
ATOM     12  C   UNL     1       0.334   8.981  22.265  0.00  0.00    +0.000 A 
ATOM     13  C   UNL     1      -0.209  10.226  22.595  0.00  0.00    +0.000 A 
ATOM     14  C   UNL     1      -0.215  11.254  21.657  0.00  0.00    +0.000 A 
ATOM     15  C   UNL     1       0.335  11.046  20.395  0.00  0.00    +0.000 A 
ATOM     16  C   UNL     1       0.879   9.801  20.065  0.00  0.00    +0.000 A 
ENDBRANCH  10  11
ENDBRANCH   3   9
BRANCH   5  17
ATOM     17  C   UNL     1       4.592   4.094  16.523  0.00  0.00    +0.000 C 
ATOM     18  C   UNL     1       5.455   4.965  15.980  0.00  0.00    +0.000 C 
BRANCH  18  19
ATOM     19  C   UNL     1       6.061   4.709  14.674  0.00  0.00    +0.000 A 
ATOM     20  C   UNL     1       5.434   3.838  13.778  0.00  0.00    +0.000 A 
ATOM     21  C   UNL     1       6.014   3.566  12.539  0.00  0.00    +0.000 A 
ATOM     22  C   UNL     1       7.224   4.164  12.189  0.00  0.00    +0.000 A 
ATOM     23  C   UNL     1       7.854   5.036  13.078  0.00  0.00    +0.000 A 
ATOM     24  C   UNL     1       7.275   5.309  14.320  0.00  0.00    +0.000 A 
ENDBRANCH  18  19
ENDBRANCH   5  17
TORSDOF 5
ENDMDL
MODEL 9
REMARK VINA RESULT:      -7.9      5.620      9.421
REMARK  Name = 
REMARK  5 active torsions:
REMARK  status: ('A' for Active; 'I' for Inactive)
REMARK    1  A    between atoms: O_1  and  C_2
REMARK    2  A    between atoms: C_4  and  C_5
REMARK    3  A    between atoms: C_6  and  C_7
REMARK    4  A    between atoms: C_14  and  C_15
REMARK    5  A    between atoms: C_16  and  C_17
REMARK                            x       y       z     vdW  Elec       q    Type
REMARK                         _______ _______ _______ _____ _____    ______ ____
ROOT
ATOM      1  C   UNL     1       7.821   5.901  19.196  0.00  0.00    +0.000 A 
ATOM      2  C   UNL     1       8.170   7.236  19.019  0.00  0.00    +0.000 A 
ATOM      3  C   UNL     1       7.927   7.862  17.789  0.00  0.00    +0.000 A 
ATOM      4  C   UNL     1       7.352   7.115  16.750  0.00  0.00    +0.000 A 
ATOM      5  C   UNL     1       6.980   5.775  16.934  0.00  0.00    +0.000 A 
ATOM      6  C   UNL     1       7.235   5.170  18.169  0.00  0.00    +0.000 A 
ENDROOT
BRANCH   1   7
ATOM      7  O   UNL     1       8.051   5.258  20.378  0.00  0.00    +0.000 OA
ATOM      8  H   UNL     1       8.785   5.699  20.837  0.00  0.00    +0.000 HD
ENDBRANCH   1   7
BRANCH   3   9
ATOM      9  C   UNL     1       8.362   9.255  17.603  0.00  0.00    +0.000 C 
ATOM     10  C   UNL     1       9.092   9.947  18.494  0.00  0.00    +0.000 C 
BRANCH  10  11
ATOM     11  C   UNL     1       9.468  11.361  18.331  0.00  0.00    +0.000 A 
ATOM     12  C   UNL     1      10.826  11.686  18.200  0.00  0.00    +0.000 A 
ATOM     13  C   UNL     1      11.232  13.016  18.065  0.00  0.00    +0.000 A 
ATOM     14  C   UNL     1      10.284  14.035  18.045  0.00  0.00    +0.000 A 
ATOM     15  C   UNL     1       8.930  13.725  18.143  0.00  0.00    +0.000 A 
ATOM     16  C   UNL     1       8.524  12.394  18.276  0.00  0.00    +0.000 A 
ENDBRANCH  10  11
ENDBRANCH   3   9
BRANCH   5  17
ATOM     17  C   UNL     1       6.406   5.040  15.796  0.00  0.00    +0.000 C 
ATOM     18  C   UNL     1       7.065   4.786  14.657  0.00  0.00    +0.000 C 
BRANCH  18  19
ATOM     19  C   UNL     1       6.416   4.073  13.556  0.00  0.00    +0.000 A 
ATOM     20  C   UNL     1       7.193   3.515  12.538  0.00  0.00    +0.000 A 
ATOM     21  C   UNL     1       6.584   2.855  11.470  0.00  0.00    +0.000 A 
ATOM     22  C   UNL     1       5.194   2.749  11.417  0.00  0.00    +0.000 A 
ATOM     23  C   UNL     1       4.413   3.302  12.432  0.00  0.00    +0.000 A 
ATOM     24  C   UNL     1       5.021   3.965  13.501  0.00  0.00    +0.000 A 
ENDBRANCH  18  19
ENDBRANCH   5  17
TORSDOF 5
ENDMDL
