MODEL 1
REMARK VINA RESULT:      -8.1      0.000      0.000
REMARK  Name = 
REMARK  2 active torsions:
REMARK  status: ('A' for Active; 'I' for Inactive)
REMARK    1  A    between atoms: N_1  and  C_2
REMARK    2  A    between atoms: C_6  and  O_7
REMARK                            x       y       z     vdW  Elec       q    Type
REMARK                         _______ _______ _______ _____ _____    ______ ____
ROOT
ATOM      1  C   UNL     1       3.676   2.834  19.573  0.00  0.00    +0.000 C 
ATOM      2  C   UNL     1       3.221   3.580  20.840  0.00  0.00    +0.000 C 
ATOM      3  C   UNL     1       1.884   4.319  20.682  0.00  0.00    +0.000 C 
ATOM      4  C   UNL     1       0.811   3.478  19.973  0.00  0.00    +0.000 C 
ATOM      5  C   UNL     1       1.320   2.728  18.733  0.00  0.00    +0.000 C 
ATOM      6  C   UNL     1       1.668   3.659  17.562  0.00  0.00    +0.000 C 
ATOM      7  C   UNL     1       2.864   4.578  17.839  0.00  0.00    +0.000 C 
ATOM      8  C   UNL     1       4.056   3.807  18.438  0.00  0.00    +0.000 C 
ATOM      9  C   UNL     1       2.466   5.782  18.670  0.00  0.00    +0.000 A 
ATOM     10  C   UNL     1       2.497   7.058  18.078  0.00  0.00    +0.000 A 
ATOM     11  C   UNL     1       2.144   8.198  18.802  0.00  0.00    +0.000 A 
ATOM     12  C   UNL     1       1.762   8.081  20.132  0.00  0.00    +0.000 A 
ATOM     13  C   UNL     1       1.714   6.825  20.729  0.00  0.00    +0.000 A 
ATOM     14  C   UNL     1       2.045   5.665  20.005  0.00  0.00    +0.000 A 
ATOM     15  C   UNL     1       2.552   1.899  19.107  0.00  0.00    +0.000 C 
ENDROOT
BRANCH   1  16
ATOM     16  N   UNL     1       4.855   2.028  19.925  0.00  0.00    +0.000 NA
ATOM     17  H   UNL     1       4.655   1.038  19.787  0.00  0.00    +0.000 HD
ATOM     18  H   UNL     1       5.075   2.140  20.915  0.00  0.00    +0.000 HD
ENDBRANCH   1  16
BRANCH   5  19
ATOM     19  O   UNL     1       0.291   1.835  18.295  0.00  0.00    +0.000 OA
ATOM     20  H   UNL     1      -0.489   2.369  18.064  0.00  0.00    +0.000 HD
ENDBRANCH   5  19
TORSDOF 2
ENDMDL
MODEL 2
REMARK VINA RESULT:      -7.9      1.627      2.812
REMARK  Name = 
REMARK  2 active torsions:
REMARK  status: ('A' for Active; 'I' for Inactive)
REMARK    1  A    between atoms: N_1  and  C_2
REMARK    2  A    between atoms: C_6  and  O_7
REMARK                            x       y       z     vdW  Elec       q    Type
REMARK                         _______ _______ _______ _____ _____    ______ ____
ROOT
ATOM      1  C   UNL     1       2.589   3.232  20.673  0.00  0.00    +0.000 C 
ATOM      2  C   UNL     1       2.368   4.726  20.374  0.00  0.00    +0.000 C 
ATOM      3  C   UNL     1       2.117   5.035  18.890  0.00  0.00    +0.000 C 
ATOM      4  C   UNL     1       1.128   4.061  18.231  0.00  0.00    +0.000 C 
ATOM      5  C   UNL     1       1.370   2.586  18.584  0.00  0.00    +0.000 C 
ATOM      6  C   UNL     1       2.660   2.021  17.974  0.00  0.00    +0.000 C 
ATOM      7  C   UNL     1       3.938   2.653  18.538  0.00  0.00    +0.000 C 
ATOM      8  C   UNL     1       3.917   2.718  20.078  0.00  0.00    +0.000 C 
ATOM      9  C   UNL     1       4.230   3.997  17.899  0.00  0.00    +0.000 A 
ATOM     10  C   UNL     1       5.356   4.123  17.064  0.00  0.00    +0.000 A 
ATOM     11  C   UNL     1       5.669   5.339  16.455  0.00  0.00    +0.000 A 
ATOM     12  C   UNL     1       4.868   6.450  16.678  0.00  0.00    +0.000 A 
ATOM     13  C   UNL     1       3.744   6.340  17.491  0.00  0.00    +0.000 A 
ATOM     14  C   UNL     1       3.402   5.115  18.093  0.00  0.00    +0.000 A 
ATOM     15  C   UNL     1       1.414   2.425  20.106  0.00  0.00    +0.000 C 
ENDROOT
BRANCH   1  16
ATOM     16  N   UNL     1       2.625   3.067  22.134  0.00  0.00    +0.000 NA
ATOM     17  H   UNL     1       1.754   3.402  22.544  0.00  0.00    +0.000 HD
ATOM     18  H   UNL     1       3.369   3.638  22.534  0.00  0.00    +0.000 HD
ENDBRANCH   1  16
BRANCH   5  19
ATOM     19  O   UNL     1       0.272   1.819  18.080  0.00  0.00    +0.000 OA
ATOM     20  H   UNL     1       0.246   1.931  17.114  0.00  0.00    +0.000 HD
ENDBRANCH   5  19
TORSDOF 2
ENDMDL
MODEL 3
REMARK VINA RESULT:      -7.8      1.673      3.006
REMARK  Name = 
REMARK  2 active torsions:
REMARK  status: ('A' for Active; 'I' for Inactive)
REMARK    1  A    between atoms: N_1  and  C_2
REMARK    2  A    between atoms: C_6  and  O_7
REMARK                            x       y       z     vdW  Elec       q    Type
REMARK                         _______ _______ _______ _____ _____    ______ ____
ROOT
ATOM      1  C   UNL     1       1.405   2.781  18.746  0.00  0.00    +0.000 C 
ATOM      2  C   UNL     1       1.617   3.756  17.574  0.00  0.00    +0.000 C 
ATOM      3  C   UNL     1       2.767   4.751  17.791  0.00  0.00    +0.000 C 
ATOM      4  C   UNL     1       4.034   4.093  18.359  0.00  0.00    +0.000 C 
ATOM      5  C   UNL     1       3.769   3.106  19.505  0.00  0.00    +0.000 C 
ATOM      6  C   UNL     1       3.289   3.788  20.794  0.00  0.00    +0.000 C 
ATOM      7  C   UNL     1       1.908   4.443  20.669  0.00  0.00    +0.000 C 
ATOM      8  C   UNL     1       0.883   3.502  20.006  0.00  0.00    +0.000 C 
ATOM      9  C   UNL     1       1.988   5.795  19.989  0.00  0.00    +0.000 A 
ATOM     10  C   UNL     1       1.711   6.952  20.741  0.00  0.00    +0.000 A 
ATOM     11  C   UNL     1       1.767   8.220  20.160  0.00  0.00    +0.000 A 
ATOM     12  C   UNL     1       2.093   8.351  18.817  0.00  0.00    +0.000 A 
ATOM     13  C   UNL     1       2.383   7.219  18.063  0.00  0.00    +0.000 A 
ATOM     14  C   UNL     1       2.352   5.936  18.640  0.00  0.00    +0.000 A 
ATOM     15  C   UNL     1       2.729   2.072  19.059  0.00  0.00    +0.000 C 
ENDROOT
BRANCH   1  16
ATOM     16  N   UNL     1       0.413   1.781  18.324  0.00  0.00    +0.000 NA
ATOM     17  H   UNL     1      -0.487   2.230  18.160  0.00  0.00    +0.000 HD
ATOM     18  H   UNL     1       0.261   1.100  19.068  0.00  0.00    +0.000 HD
ENDBRANCH   1  16
BRANCH   5  19
ATOM     19  O   UNL     1       4.990   2.419  19.798  0.00  0.00    +0.000 OA
ATOM     20  H   UNL     1       5.502   2.355  18.974  0.00  0.00    +0.000 HD
ENDBRANCH   5  19
TORSDOF 2
ENDMDL
MODEL 4
REMARK VINA RESULT:      -7.7      2.156      3.512
REMARK  Name = 
REMARK  2 active torsions:
REMARK  status: ('A' for Active; 'I' for Inactive)
REMARK    1  A    between atoms: N_1  and  C_2
REMARK    2  A    between atoms: C_6  and  O_7
REMARK                            x       y       z     vdW  Elec       q    Type
REMARK                         _______ _______ _______ _____ _____    ______ ____
ROOT
ATOM      1  C   UNL     1       1.437   2.574  18.638  0.00  0.00    +0.000 C 
ATOM      2  C   UNL     1       2.746   2.081  17.993  0.00  0.00    +0.000 C 
ATOM      3  C   UNL     1       4.011   2.727  18.579  0.00  0.00    +0.000 C 
ATOM      4  C   UNL     1       3.998   2.795  20.114  0.00  0.00    +0.000 C 
ATOM      5  C   UNL     1       2.662   3.262  20.710  0.00  0.00    +0.000 C 
ATOM      6  C   UNL     1       2.357   4.740  20.431  0.00  0.00    +0.000 C 
ATOM      7  C   UNL     1       2.121   5.053  18.949  0.00  0.00    +0.000 C 
ATOM      8  C   UNL     1       1.149   4.051  18.296  0.00  0.00    +0.000 C 
ATOM      9  C   UNL     1       3.426   5.183  18.188  0.00  0.00    +0.000 A 
ATOM     10  C   UNL     1       3.799   6.445  17.688  0.00  0.00    +0.000 A 
ATOM     11  C   UNL     1       4.989   6.617  16.979  0.00  0.00    +0.000 A 
ATOM     12  C   UNL     1       5.820   5.529  16.750  0.00  0.00    +0.000 A 
ATOM     13  C   UNL     1       5.472   4.277  17.247  0.00  0.00    +0.000 A 
ATOM     14  C   UNL     1       4.288   4.093  17.984  0.00  0.00    +0.000 A 
ATOM     15  C   UNL     1       1.525   2.395  20.159  0.00  0.00    +0.000 C 
ENDROOT
BRANCH   1  16
ATOM     16  N   UNL     1       0.341   1.742  18.120  0.00  0.00    +0.000 NA
ATOM     17  H   UNL     1       0.222   0.916  18.706  0.00  0.00    +0.000 HD
ATOM     18  H   UNL     1       0.569   1.400  17.186  0.00  0.00    +0.000 HD
ENDBRANCH   1  16
BRANCH   5  19
ATOM     19  O   UNL     1       2.717   3.084  22.129  0.00  0.00    +0.000 OA
ATOM     20  H   UNL     1       1.805   2.993  22.455  0.00  0.00    +0.000 HD
ENDBRANCH   5  19
TORSDOF 2
ENDMDL
MODEL 5
REMARK VINA RESULT:      -7.1      3.411      4.773
REMARK  Name = 
REMARK  2 active torsions:
REMARK  status: ('A' for Active; 'I' for Inactive)
REMARK    1  A    between atoms: N_1  and  C_2
REMARK    2  A    between atoms: C_6  and  O_7
REMARK                            x       y       z     vdW  Elec       q    Type
REMARK                         _______ _______ _______ _____ _____    ______ ____
ROOT
ATOM      1  C   UNL     1       5.924   4.376  15.877  0.00  0.00    +0.000 C 
ATOM      2  C   UNL     1       5.638   5.841  15.499  0.00  0.00    +0.000 C 
ATOM      3  C   UNL     1       5.582   6.796  16.701  0.00  0.00    +0.000 C 
ATOM      4  C   UNL     1       6.722   6.569  17.705  0.00  0.00    +0.000 C 
ATOM      5  C   UNL     1       6.990   5.091  18.028  0.00  0.00    +0.000 C 
ATOM      6  C   UNL     1       5.862   4.433  18.835  0.00  0.00    +0.000 C 
ATOM      7  C   UNL     1       4.541   4.313  18.067  0.00  0.00    +0.000 C 
ATOM      8  C   UNL     1       4.748   3.743  16.650  0.00  0.00    +0.000 C 
ATOM      9  C   UNL     1       3.771   5.619  18.066  0.00  0.00    +0.000 A 
ATOM     10  C   UNL     1       2.559   5.694  18.776  0.00  0.00    +0.000 A 
ATOM     11  C   UNL     1       1.811   6.873  18.804  0.00  0.00    +0.000 A 
ATOM     12  C   UNL     1       2.259   7.991  18.114  0.00  0.00    +0.000 A 
ATOM     13  C   UNL     1       3.462   7.937  17.417  0.00  0.00    +0.000 A 
ATOM     14  C   UNL     1       4.238   6.764  17.399  0.00  0.00    +0.000 A 
ATOM     15  C   UNL     1       7.202   4.314  16.725  0.00  0.00    +0.000 C 
ENDROOT
BRANCH   1  16
ATOM     16  N   UNL     1       6.137   3.624  14.632  0.00  0.00    +0.000 NA
ATOM     17  H   UNL     1       5.277   3.147  14.361  0.00  0.00    +0.000 HD
ATOM     18  H   UNL     1       6.834   2.894  14.776  0.00  0.00    +0.000 HD
ENDBRANCH   1  16
BRANCH   5  19
ATOM     19  O   UNL     1       8.191   5.011  18.801  0.00  0.00    +0.000 OA
ATOM     20  H   UNL     1       8.467   5.918  19.019  0.00  0.00    +0.000 HD
ENDBRANCH   5  19
TORSDOF 2
ENDMDL
MODEL 6
REMARK VINA RESULT:      -7.1      2.389      3.632
REMARK  Name = 
REMARK  2 active torsions:
REMARK  status: ('A' for Active; 'I' for Inactive)
REMARK    1  A    between atoms: N_1  and  C_2
REMARK    2  A    between atoms: C_6  and  O_7
REMARK                            x       y       z     vdW  Elec       q    Type
REMARK                         _______ _______ _______ _____ _____    ______ ____
ROOT
ATOM      1  C   UNL     1       1.838   3.710  19.536  0.00  0.00    +0.000 C 
ATOM      2  C   UNL     1       1.792   4.326  18.126  0.00  0.00    +0.000 C 
ATOM      3  C   UNL     1       3.003   3.969  17.251  0.00  0.00    +0.000 C 
ATOM      4  C   UNL     1       3.384   2.483  17.326  0.00  0.00    +0.000 C 
ATOM      5  C   UNL     1       3.386   1.906  18.749  0.00  0.00    +0.000 C 
ATOM      6  C   UNL     1       4.518   2.459  19.626  0.00  0.00    +0.000 C 
ATOM      7  C   UNL     1       4.386   3.955  19.934  0.00  0.00    +0.000 C 
ATOM      8  C   UNL     1       2.963   4.324  20.395  0.00  0.00    +0.000 C 
ATOM      9  C   UNL     1       4.869   4.811  18.780  0.00  0.00    +0.000 A 
ATOM     10  C   UNL     1       6.036   5.580  18.945  0.00  0.00    +0.000 A 
ATOM     11  C   UNL     1       6.520   6.387  17.913  0.00  0.00    +0.000 A 
ATOM     12  C   UNL     1       5.839   6.445  16.705  0.00  0.00    +0.000 A 
ATOM     13  C   UNL     1       4.690   5.682  16.521  0.00  0.00    +0.000 A 
ATOM     14  C   UNL     1       4.204   4.846  17.543  0.00  0.00    +0.000 A 
ATOM     15  C   UNL     1       2.038   2.193  19.418  0.00  0.00    +0.000 C 
ENDROOT
BRANCH   1  16
ATOM     16  N   UNL     1       0.544   3.975  20.184  0.00  0.00    +0.000 NA
ATOM     17  H   UNL     1       0.605   3.767  21.180  0.00  0.00    +0.000 HD
ATOM     18  H   UNL     1      -0.172   3.355  19.806  0.00  0.00    +0.000 HD
ENDBRANCH   1  16
BRANCH   5  19
ATOM     19  O   UNL     1       3.551   0.488  18.659  0.00  0.00    +0.000 OA
ATOM     20  H   UNL     1       2.761   0.121  18.226  0.00  0.00    +0.000 HD
ENDBRANCH   5  19
TORSDOF 2
ENDMDL
MODEL 7
REMARK VINA RESULT:      -7.0      2.358      4.118
REMARK  Name = 
REMARK  2 active torsions:
REMARK  status: ('A' for Active; 'I' for Inactive)
REMARK    1  A    between atoms: N_1  and  C_2
REMARK    2  A    between atoms: C_6  and  O_7
REMARK                            x       y       z     vdW  Elec       q    Type
REMARK                         _______ _______ _______ _____ _____    ______ ____
ROOT
ATOM      1  C   UNL     1       2.619   5.128  19.572  0.00  0.00    +0.000 C 
ATOM      2  C   UNL     1       2.472   5.621  18.121  0.00  0.00    +0.000 C 
ATOM      3  C   UNL     1       2.991   4.627  17.071  0.00  0.00    +0.000 C 
ATOM      4  C   UNL     1       2.550   3.180  17.340  0.00  0.00    +0.000 C 
ATOM      5  C   UNL     1       2.685   2.745  18.807  0.00  0.00    +0.000 C 
ATOM      6  C   UNL     1       4.144   2.611  19.267  0.00  0.00    +0.000 C 
ATOM      7  C   UNL     1       4.906   3.941  19.301  0.00  0.00    +0.000 C 
ATOM      8  C   UNL     1       4.098   5.049  20.005  0.00  0.00    +0.000 C 
ATOM      9  C   UNL     1       5.384   4.351  17.922  0.00  0.00    +0.000 A 
ATOM     10  C   UNL     1       6.765   4.354  17.653  0.00  0.00    +0.000 A 
ATOM     11  C   UNL     1       7.255   4.726  16.401  0.00  0.00    +0.000 A 
ATOM     12  C   UNL     1       6.373   5.109  15.400  0.00  0.00    +0.000 A 
ATOM     13  C   UNL     1       5.004   5.100  15.645  0.00  0.00    +0.000 A 
ATOM     14  C   UNL     1       4.493   4.705  16.895  0.00  0.00    +0.000 A 
ATOM     15  C   UNL     1       1.959   3.750  19.707  0.00  0.00    +0.000 C 
ENDROOT
BRANCH   1  16
ATOM     16  N   UNL     1       1.918   6.083  20.444  0.00  0.00    +0.000 NA
ATOM     17  H   UNL     1       2.415   6.974  20.456  0.00  0.00    +0.000 HD
ATOM     18  H   UNL     1       1.914   5.745  21.406  0.00  0.00    +0.000 HD
ENDBRANCH   1  16
BRANCH   5  19
ATOM     19  O   UNL     1       2.057   1.469  18.957  0.00  0.00    +0.000 OA
ATOM     20  H   UNL     1       2.574   0.955  19.602  0.00  0.00    +0.000 HD
ENDBRANCH   5  19
TORSDOF 2
ENDMDL
MODEL 8
REMARK VINA RESULT:      -6.9      2.423      3.918
REMARK  Name = 
REMARK  2 active torsions:
REMARK  status: ('A' for Active; 'I' for Inactive)
REMARK    1  A    between atoms: N_1  and  C_2
REMARK    2  A    between atoms: C_6  and  O_7
REMARK                            x       y       z     vdW  Elec       q    Type
REMARK                         _______ _______ _______ _____ _____    ______ ____
ROOT
ATOM      1  C   UNL     1       2.622   2.714  18.832  0.00  0.00    +0.000 C 
ATOM      2  C   UNL     1       4.080   2.598  19.311  0.00  0.00    +0.000 C 
ATOM      3  C   UNL     1       4.842   3.933  19.314  0.00  0.00    +0.000 C 
ATOM      4  C   UNL     1       4.026   5.091  19.908  0.00  0.00    +0.000 C 
ATOM      5  C   UNL     1       2.570   5.146  19.425  0.00  0.00    +0.000 C 
ATOM      6  C   UNL     1       2.437   5.531  17.945  0.00  0.00    +0.000 C 
ATOM      7  C   UNL     1       3.008   4.484  16.981  0.00  0.00    +0.000 C 
ATOM      8  C   UNL     1       2.536   3.060  17.331  0.00  0.00    +0.000 C 
ATOM      9  C   UNL     1       4.516   4.590  16.867  0.00  0.00    +0.000 A 
ATOM     10  C   UNL     1       5.079   5.018  15.650  0.00  0.00    +0.000 A 
ATOM     11  C   UNL     1       6.461   5.129  15.494  0.00  0.00    +0.000 A 
ATOM     12  C   UNL     1       7.304   4.805  16.549  0.00  0.00    +0.000 A 
ATOM     13  C   UNL     1       6.764   4.392  17.763  0.00  0.00    +0.000 A 
ATOM     14  C   UNL     1       5.372   4.298  17.943  0.00  0.00    +0.000 A 
ATOM     15  C   UNL     1       1.902   3.787  19.659  0.00  0.00    +0.000 C 
ENDROOT
BRANCH   1  16
ATOM     16  N   UNL     1       1.970   1.415  19.060  0.00  0.00    +0.000 NA
ATOM     17  H   UNL     1       2.675   0.684  19.161  0.00  0.00    +0.000 HD
ATOM     18  H   UNL     1       1.406   1.157  18.251  0.00  0.00    +0.000 HD
ENDBRANCH   1  16
BRANCH   5  19
ATOM     19  O   UNL     1       1.876   6.129  20.200  0.00  0.00    +0.000 OA
ATOM     20  H   UNL     1       2.507   6.507  20.837  0.00  0.00    +0.000 HD
ENDBRANCH   5  19
TORSDOF 2
ENDMDL
MODEL 9
REMARK VINA RESULT:      -6.9      3.047      4.029
REMARK  Name = 
REMARK  2 active torsions:
REMARK  status: ('A' for Active; 'I' for Inactive)
REMARK    1  A    between atoms: N_1  and  C_2
REMARK    2  A    between atoms: C_6  and  O_7
REMARK                            x       y       z     vdW  Elec       q    Type
REMARK                         _______ _______ _______ _____ _____    ______ ____
ROOT
ATOM      1  C   UNL     1       6.874   4.962  17.798  0.00  0.00    +0.000 C 
ATOM      2  C   UNL     1       5.741   4.342  18.637  0.00  0.00    +0.000 C 
ATOM      3  C   UNL     1       4.373   4.351  17.939  0.00  0.00    +0.000 C 
ATOM      4  C   UNL     1       4.443   3.910  16.469  0.00  0.00    +0.000 C 
ATOM      5  C   UNL     1       5.607   4.531  15.682  0.00  0.00    +0.000 C 
ATOM      6  C   UNL     1       5.441   6.038  15.443  0.00  0.00    +0.000 C 
ATOM      7  C   UNL     1       5.497   6.876  16.726  0.00  0.00    +0.000 C 
ATOM      8  C   UNL     1       6.689   6.484  17.619  0.00  0.00    +0.000 C 
ATOM      9  C   UNL     1       4.175   6.855  17.469  0.00  0.00    +0.000 A 
ATOM     10  C   UNL     1       3.417   8.038  17.544  0.00  0.00    +0.000 A 
ATOM     11  C   UNL     1       2.196   8.070  18.219  0.00  0.00    +0.000 A 
ATOM     12  C   UNL     1       1.718   6.923  18.837  0.00  0.00    +0.000 A 
ATOM     13  C   UNL     1       2.449   5.741  18.761  0.00  0.00    +0.000 A 
ATOM     14  C   UNL     1       3.670   5.687  18.065  0.00  0.00    +0.000 A 
ATOM     15  C   UNL     1       6.921   4.276  16.427  0.00  0.00    +0.000 C 
ENDROOT
BRANCH   1  16
ATOM     16  N   UNL     1       8.141   4.715  18.503  0.00  0.00    +0.000 NA
ATOM     17  H   UNL     1       7.955   4.387  19.450  0.00  0.00    +0.000 HD
ATOM     18  H   UNL     1       8.665   5.584  18.599  0.00  0.00    +0.000 HD
ENDBRANCH   1  16
BRANCH   5  19
ATOM     19  O   UNL     1       5.679   3.888  14.406  0.00  0.00    +0.000 OA
ATOM     20  H   UNL     1       6.386   3.221  14.447  0.00  0.00    +0.000 HD
ENDBRANCH   5  19
TORSDOF 2
ENDMDL
