MODEL 1
REMARK VINA RESULT:      -7.6      0.000      0.000
REMARK  Name = 
REMARK  8 active torsions:
REMARK  status: ('A' for Active; 'I' for Inactive)
REMARK    1  A    between atoms: C_1  and  C_2
REMARK    2  A    between atoms: C_6  and  N_7
REMARK    3  A    between atoms: C_8  and  C_10
REMARK    4  A    between atoms: C_10  and  C_11
REMARK    5  A    between atoms: C_13  and  C_14
REMARK    6  A    between atoms: C_15  and  O_16
REMARK    7  A    between atoms: C_17  and  O_18
REMARK    8  A    between atoms: C_19  and  O_20
REMARK                            x       y       z     vdW  Elec       q    Type
REMARK                         _______ _______ _______ _____ _____    ______ ____
ROOT
ATOM      1  C   UNL     1       4.643   5.578  18.339  0.00  0.00    +0.000 C 
ATOM      2  N   UNL     1       3.455   5.233  17.517  0.00  0.00    +0.000 NA
ATOM      3  C   UNL     1       2.525   4.384  18.293  0.00  0.00    +0.000 C 
ATOM      4  C   UNL     1       1.281   4.123  17.445  0.00  0.00    +0.000 C 
ATOM      5  C   UNL     1       3.197   3.072  18.767  0.00  0.00    +0.000 C 
ATOM      6  C   UNL     1       4.478   3.381  19.562  0.00  0.00    +0.000 C 
ATOM      7  C   UNL     1       5.415   4.304  18.755  0.00  0.00    +0.000 C 
ATOM      8  H   UNL     1       3.746   4.755  16.664  0.00  0.00    +0.000 HD
ENDROOT
BRANCH   5   9
ATOM      9  O   UNL     1       3.527   2.207  17.665  0.00  0.00    +0.000 OA
ATOM     10  H   UNL     1       3.942   1.401  18.011  0.00  0.00    +0.000 HD
ENDBRANCH   5   9
BRANCH   6  11
ATOM     11  O   UNL     1       5.145   2.163  19.903  0.00  0.00    +0.000 OA
ATOM     12  H   UNL     1       5.923   2.415  20.438  0.00  0.00    +0.000 HD
ENDBRANCH   6  11
BRANCH   7  13
ATOM     13  O   UNL     1       6.580   4.648  19.506  0.00  0.00    +0.000 OA
ATOM     14  H   UNL     1       6.633   4.072  20.288  0.00  0.00    +0.000 HD
ENDBRANCH   7  13
BRANCH   1  15
ATOM     15  C   UNL     1       5.551   6.567  17.596  0.00  0.00    +0.000 C 
BRANCH  15  17
ATOM     16  N   UNL     1       6.374   5.311  15.695  0.00  0.00    +0.000 N 
ATOM     17  C   UNL     1       5.540   6.341  16.093  0.00  0.00    +0.000 C 
ATOM     18  O   UNL     1       4.843   7.042  15.370  0.00  0.00    +0.000 OA
ATOM     19  H   UNL     1       6.678   4.688  16.440  0.00  0.00    +0.000 HD
BRANCH  16  25
ATOM     20  C   UNL     1       5.033   2.588  11.818  0.00  0.00    +0.000 C 
ATOM     21  C   UNL     1       5.981   3.560  12.454  0.00  0.00    +0.000 A 
ATOM     22  C   UNL     1       7.070   4.062  11.736  0.00  0.00    +0.000 A 
ATOM     23  C   UNL     1       7.948   4.963  12.333  0.00  0.00    +0.000 A 
ATOM     24  C   UNL     1       7.740   5.382  13.646  0.00  0.00    +0.000 A 
ATOM     25  C   UNL     1       6.649   4.911  14.374  0.00  0.00    +0.000 A 
ATOM     26  C   UNL     1       5.783   3.980  13.779  0.00  0.00    +0.000 A 
ENDBRANCH  16  25
ENDBRANCH  15  17
ENDBRANCH   1  15
TORSDOF 6
ENDMDL
MODEL 2
REMARK VINA RESULT:      -7.5      1.498      1.852
REMARK  Name = 
REMARK  8 active torsions:
REMARK  status: ('A' for Active; 'I' for Inactive)
REMARK    1  A    between atoms: C_1  and  C_2
REMARK    2  A    between atoms: C_6  and  N_7
REMARK    3  A    between atoms: C_8  and  C_10
REMARK    4  A    between atoms: C_10  and  C_11
REMARK    5  A    between atoms: C_13  and  C_14
REMARK    6  A    between atoms: C_15  and  O_16
REMARK    7  A    between atoms: C_17  and  O_18
REMARK    8  A    between atoms: C_19  and  O_20
REMARK                            x       y       z     vdW  Elec       q    Type
REMARK                         _______ _______ _______ _____ _____    ______ ____
ROOT
ATOM      1  C   UNL     1       5.393   5.067  18.931  0.00  0.00    +0.000 C 
ATOM      2  N   UNL     1       4.694   6.093  18.117  0.00  0.00    +0.000 NA
ATOM      3  C   UNL     1       3.367   6.393  18.700  0.00  0.00    +0.000 C 
ATOM      4  C   UNL     1       2.718   7.510  17.885  0.00  0.00    +0.000 C 
ATOM      5  C   UNL     1       2.473   5.132  18.782  0.00  0.00    +0.000 C 
ATOM      6  C   UNL     1       3.192   4.013  19.557  0.00  0.00    +0.000 C 
ATOM      7  C   UNL     1       4.590   3.745  18.963  0.00  0.00    +0.000 C 
ATOM      8  H   UNL     1       4.594   5.768  17.155  0.00  0.00    +0.000 HD
ENDROOT
BRANCH   5   9
ATOM      9  O   UNL     1       2.110   4.641  17.479  0.00  0.00    +0.000 OA
ATOM     10  H   UNL     1       2.357   5.301  16.813  0.00  0.00    +0.000 HD
ENDBRANCH   5   9
BRANCH   6  11
ATOM     11  O   UNL     1       2.402   2.821  19.536  0.00  0.00    +0.000 OA
ATOM     12  H   UNL     1       2.809   2.232  18.871  0.00  0.00    +0.000 HD
ENDBRANCH   6  11
BRANCH   7  13
ATOM     13  O   UNL     1       5.292   2.751  19.710  0.00  0.00    +0.000 OA
ATOM     14  H   UNL     1       4.922   1.877  19.497  0.00  0.00    +0.000 HD
ENDBRANCH   7  13
BRANCH   1  15
ATOM     15  C   UNL     1       6.822   4.844  18.417  0.00  0.00    +0.000 C 
BRANCH  15  17
ATOM     16  N   UNL     1       6.659   4.300  16.061  0.00  0.00    +0.000 N 
ATOM     17  C   UNL     1       6.989   5.289  16.973  0.00  0.00    +0.000 C 
ATOM     18  O   UNL     1       7.386   6.419  16.718  0.00  0.00    +0.000 OA
ATOM     19  H   UNL     1       6.120   3.525  16.441  0.00  0.00    +0.000 HD
BRANCH  16  25
ATOM     20  C   UNL     1       4.957   2.876  11.666  0.00  0.00    +0.000 C 
ATOM     21  C   UNL     1       5.939   3.660  12.485  0.00  0.00    +0.000 A 
ATOM     22  C   UNL     1       6.914   4.446  11.863  0.00  0.00    +0.000 A 
ATOM     23  C   UNL     1       7.824   5.170  12.628  0.00  0.00    +0.000 A 
ATOM     24  C   UNL     1       7.761   5.128  14.020  0.00  0.00    +0.000 A 
ATOM     25  C   UNL     1       6.785   4.368  14.662  0.00  0.00    +0.000 A 
ATOM     26  C   UNL     1       5.889   3.615  13.887  0.00  0.00    +0.000 A 
ENDBRANCH  16  25
ENDBRANCH  15  17
ENDBRANCH   1  15
TORSDOF 6
ENDMDL
MODEL 3
REMARK VINA RESULT:      -7.3      1.976      2.661
REMARK  Name = 
REMARK  8 active torsions:
REMARK  status: ('A' for Active; 'I' for Inactive)
REMARK    1  A    between atoms: C_1  and  C_2
REMARK    2  A    between atoms: C_6  and  N_7
REMARK    3  A    between atoms: C_8  and  C_10
REMARK    4  A    between atoms: C_10  and  C_11
REMARK    5  A    between atoms: C_13  and  C_14
REMARK    6  A    between atoms: C_15  and  O_16
REMARK    7  A    between atoms: C_17  and  O_18
REMARK    8  A    between atoms: C_19  and  O_20
REMARK                            x       y       z     vdW  Elec       q    Type
REMARK                         _______ _______ _______ _____ _____    ______ ____
ROOT
ATOM      1  C   UNL     1       4.917   4.786  18.286  0.00  0.00    +0.000 C 
ATOM      2  N   UNL     1       4.372   3.886  19.333  0.00  0.00    +0.000 NA
ATOM      3  C   UNL     1       2.914   3.710  19.149  0.00  0.00    +0.000 C 
ATOM      4  C   UNL     1       2.408   2.713  20.191  0.00  0.00    +0.000 C 
ATOM      5  C   UNL     1       2.156   5.058  19.212  0.00  0.00    +0.000 C 
ATOM      6  C   UNL     1       2.740   6.051  18.191  0.00  0.00    +0.000 C 
ATOM      7  C   UNL     1       4.266   6.187  18.369  0.00  0.00    +0.000 C 
ATOM      8  H   UNL     1       4.570   4.265  20.259  0.00  0.00    +0.000 HD
ENDROOT
BRANCH   5   9
ATOM      9  O   UNL     1       2.212   5.649  20.523  0.00  0.00    +0.000 OA
ATOM     10  H   UNL     1       1.887   6.561  20.472  0.00  0.00    +0.000 HD
ENDBRANCH   5   9
BRANCH   6  11
ATOM     11  O   UNL     1       2.103   7.324  18.331  0.00  0.00    +0.000 OA
ATOM     12  H   UNL     1       2.760   7.993  18.055  0.00  0.00    +0.000 HD
ENDBRANCH   6  11
BRANCH   7  13
ATOM     13  O   UNL     1       4.829   7.059  17.388  0.00  0.00    +0.000 OA
ATOM     14  H   UNL     1       5.754   6.802  17.230  0.00  0.00    +0.000 HD
ENDBRANCH   7  13
BRANCH   1  15
ATOM     15  C   UNL     1       6.446   4.871  18.382  0.00  0.00    +0.000 C 
BRANCH  15  17
ATOM     16  N   UNL     1       6.323   4.931  15.963  0.00  0.00    +0.000 N 
ATOM     17  C   UNL     1       7.122   4.609  17.046  0.00  0.00    +0.000 C 
ATOM     18  O   UNL     1       8.258   4.152  17.010  0.00  0.00    +0.000 OA
ATOM     19  H   UNL     1       5.522   5.521  16.178  0.00  0.00    +0.000 HD
BRANCH  16  25
ATOM     20  C   UNL     1       5.258   2.546  11.790  0.00  0.00    +0.000 C 
ATOM     21  C   UNL     1       6.092   3.543  12.537  0.00  0.00    +0.000 A 
ATOM     22  C   UNL     1       7.102   4.255  11.883  0.00  0.00    +0.000 A 
ATOM     23  C   UNL     1       7.874   5.179  12.582  0.00  0.00    +0.000 A 
ATOM     24  C   UNL     1       7.637   5.411  13.936  0.00  0.00    +0.000 A 
ATOM     25  C   UNL     1       6.623   4.728  14.604  0.00  0.00    +0.000 A 
ATOM     26  C   UNL     1       5.866   3.775  13.903  0.00  0.00    +0.000 A 
ENDBRANCH  16  25
ENDBRANCH  15  17
ENDBRANCH   1  15
TORSDOF 6
ENDMDL
MODEL 4
REMARK VINA RESULT:      -7.2      3.709      7.249
REMARK  Name = 
REMARK  8 active torsions:
REMARK  status: ('A' for Active; 'I' for Inactive)
REMARK    1  A    between atoms: C_1  and  C_2
REMARK    2  A    between atoms: C_6  and  N_7
REMARK    3  A    between atoms: C_8  and  C_10
REMARK    4  A    between atoms: C_10  and  C_11
REMARK    5  A    between atoms: C_13  and  C_14
REMARK    6  A    between atoms: C_15  and  O_16
REMARK    7  A    between atoms: C_17  and  O_18
REMARK    8  A    between atoms: C_19  and  O_20
REMARK                            x       y       z     vdW  Elec       q    Type
REMARK                         _______ _______ _______ _____ _____    ______ ____
ROOT
ATOM      1  C   UNL     1       4.703   4.937  18.592  0.00  0.00    +0.000 C 
ATOM      2  N   UNL     1       5.952   5.584  19.067  0.00  0.00    +0.000 NA
ATOM      3  C   UNL     1       6.711   6.134  17.923  0.00  0.00    +0.000 C 
ATOM      4  C   UNL     1       7.942   6.863  18.460  0.00  0.00    +0.000 C 
ATOM      5  C   UNL     1       7.082   5.039  16.894  0.00  0.00    +0.000 C 
ATOM      6  C   UNL     1       5.821   4.290  16.429  0.00  0.00    +0.000 C 
ATOM      7  C   UNL     1       5.019   3.762  17.636  0.00  0.00    +0.000 C 
ATOM      8  H   UNL     1       6.521   4.911  19.581  0.00  0.00    +0.000 HD
ENDROOT
BRANCH   5   9
ATOM      9  O   UNL     1       8.019   4.088  17.431  0.00  0.00    +0.000 OA
ATOM     10  H   UNL     1       8.810   4.562  17.734  0.00  0.00    +0.000 HD
ENDBRANCH   5   9
BRANCH   6  11
ATOM     11  O   UNL     1       6.187   3.213  15.560  0.00  0.00    +0.000 OA
ATOM     12  H   UNL     1       7.069   3.434  15.203  0.00  0.00    +0.000 HD
ENDBRANCH   6  11
BRANCH   7  13
ATOM     13  O   UNL     1       3.814   3.117  17.220  0.00  0.00    +0.000 OA
ATOM     14  H   UNL     1       3.351   2.777  18.005  0.00  0.00    +0.000 HD
ENDBRANCH   7  13
BRANCH   1  15
ATOM     15  C   UNL     1       3.840   4.480  19.776  0.00  0.00    +0.000 C 
BRANCH  15  17
ATOM     16  N   UNL     1       2.866   6.694  19.639  0.00  0.00    +0.000 N 
ATOM     17  C   UNL     1       2.629   5.375  19.985  0.00  0.00    +0.000 C 
ATOM     18  O   UNL     1       1.586   4.907  20.424  0.00  0.00    +0.000 OA
ATOM     19  H   UNL     1       3.694   6.849  19.068  0.00  0.00    +0.000 HD
BRANCH  16  25
ATOM     20  C   UNL     1      -0.179   9.175  22.607  0.00  0.00    +0.000 C 
ATOM     21  C   UNL     1       0.473   9.005  21.268  0.00  0.00    +0.000 A 
ATOM     22  C   UNL     1       0.224   9.915  20.237  0.00  0.00    +0.000 A 
ATOM     23  C   UNL     1       0.832   9.751  18.994  0.00  0.00    +0.000 A 
ATOM     24  C   UNL     1       1.703   8.686  18.774  0.00  0.00    +0.000 A 
ATOM     25  C   UNL     1       1.982   7.778  19.793  0.00  0.00    +0.000 A 
ATOM     26  C   UNL     1       1.344   7.929  21.035  0.00  0.00    +0.000 A 
ENDBRANCH  16  25
ENDBRANCH  15  17
ENDBRANCH   1  15
TORSDOF 6
ENDMDL
MODEL 5
REMARK VINA RESULT:      -7.2      1.653      2.003
REMARK  Name = 
REMARK  8 active torsions:
REMARK  status: ('A' for Active; 'I' for Inactive)
REMARK    1  A    between atoms: C_1  and  C_2
REMARK    2  A    between atoms: C_6  and  N_7
REMARK    3  A    between atoms: C_8  and  C_10
REMARK    4  A    between atoms: C_10  and  C_11
REMARK    5  A    between atoms: C_13  and  C_14
REMARK    6  A    between atoms: C_15  and  O_16
REMARK    7  A    between atoms: C_17  and  O_18
REMARK    8  A    between atoms: C_19  and  O_20
REMARK                            x       y       z     vdW  Elec       q    Type
REMARK                         _______ _______ _______ _____ _____    ______ ____
ROOT
ATOM      1  C   UNL     1       4.036   4.937  18.224  0.00  0.00    +0.000 C 
ATOM      2  N   UNL     1       4.483   3.524  18.133  0.00  0.00    +0.000 NA
ATOM      3  C   UNL     1       3.342   2.610  18.366  0.00  0.00    +0.000 C 
ATOM      4  C   UNL     1       3.825   1.172  18.180  0.00  0.00    +0.000 C 
ATOM      5  C   UNL     1       2.694   2.836  19.753  0.00  0.00    +0.000 C 
ATOM      6  C   UNL     1       2.282   4.309  19.920  0.00  0.00    +0.000 C 
ATOM      7  C   UNL     1       3.472   5.248  19.631  0.00  0.00    +0.000 C 
ATOM      8  H   UNL     1       5.225   3.347  18.811  0.00  0.00    +0.000 HD
ENDROOT
BRANCH   5   9
ATOM      9  O   UNL     1       3.579   2.472  20.829  0.00  0.00    +0.000 OA
ATOM     10  H   UNL     1       3.979   3.277  21.193  0.00  0.00    +0.000 HD
ENDBRANCH   5   9
BRANCH   6  11
ATOM     11  O   UNL     1       1.782   4.528  21.243  0.00  0.00    +0.000 OA
ATOM     12  H   UNL     1       2.497   4.973  21.738  0.00  0.00    +0.000 HD
ENDBRANCH   6  11
BRANCH   7  13
ATOM     13  O   UNL     1       3.087   6.620  19.723  0.00  0.00    +0.000 OA
ATOM     14  H   UNL     1       3.523   7.119  19.011  0.00  0.00    +0.000 HD
ENDBRANCH   7  13
BRANCH   1  15
ATOM     15  C   UNL     1       5.177   5.894  17.854  0.00  0.00    +0.000 C 
BRANCH  15  17
ATOM     16  N   UNL     1       5.989   4.836  15.831  0.00  0.00    +0.000 N 
ATOM     17  C   UNL     1       5.397   5.973  16.351  0.00  0.00    +0.000 C 
ATOM     18  O   UNL     1       5.063   6.976  15.732  0.00  0.00    +0.000 OA
ATOM     19  H   UNL     1       5.967   4.020  16.440  0.00  0.00    +0.000 HD
BRANCH  16  25
ATOM     20  C   UNL     1       5.231   2.490  11.569  0.00  0.00    +0.000 C 
ATOM     21  C   UNL     1       6.019   3.467  12.389  0.00  0.00    +0.000 A 
ATOM     22  C   UNL     1       7.095   4.160  11.827  0.00  0.00    +0.000 A 
ATOM     23  C   UNL     1       7.824   5.065  12.594  0.00  0.00    +0.000 A 
ATOM     24  C   UNL     1       7.479   5.296  13.924  0.00  0.00    +0.000 A 
ATOM     25  C   UNL     1       6.398   4.632  14.501  0.00  0.00    +0.000 A 
ATOM     26  C   UNL     1       5.684   3.698  13.733  0.00  0.00    +0.000 A 
ENDBRANCH  16  25
ENDBRANCH  15  17
ENDBRANCH   1  15
TORSDOF 6
ENDMDL
MODEL 6
REMARK VINA RESULT:      -7.2      3.892      6.792
REMARK  Name = 
REMARK  8 active torsions:
REMARK  status: ('A' for Active; 'I' for Inactive)
REMARK    1  A    between atoms: C_1  and  C_2
REMARK    2  A    between atoms: C_6  and  N_7
REMARK    3  A    between atoms: C_8  and  C_10
REMARK    4  A    between atoms: C_10  and  C_11
REMARK    5  A    between atoms: C_13  and  C_14
REMARK    6  A    between atoms: C_15  and  O_16
REMARK    7  A    between atoms: C_17  and  O_18
REMARK    8  A    between atoms: C_19  and  O_20
REMARK                            x       y       z     vdW  Elec       q    Type
REMARK                         _______ _______ _______ _____ _____    ______ ____
ROOT
ATOM      1  C   UNL     1       3.579   4.941  18.773  0.00  0.00    +0.000 C 
ATOM      2  N   UNL     1       2.309   4.334  18.300  0.00  0.00    +0.000 NA
ATOM      3  C   UNL     1       1.837   3.316  19.265  0.00  0.00    +0.000 C 
ATOM      4  C   UNL     1       0.490   2.779  18.786  0.00  0.00    +0.000 C 
ATOM      5  C   UNL     1       2.878   2.189  19.471  0.00  0.00    +0.000 C 
ATOM      6  C   UNL     1       4.235   2.780  19.891  0.00  0.00    +0.000 C 
ATOM      7  C   UNL     1       4.689   3.871  18.898  0.00  0.00    +0.000 C 
ATOM      8  H   UNL     1       2.442   3.917  17.379  0.00  0.00    +0.000 HD
ENDROOT
BRANCH   5   9
ATOM      9  O   UNL     1       3.059   1.397  18.282  0.00  0.00    +0.000 OA
ATOM     10  H   UNL     1       2.251   1.441  17.748  0.00  0.00    +0.000 HD
ENDBRANCH   5   9
BRANCH   6  11
ATOM     11  O   UNL     1       5.214   1.740  19.976  0.00  0.00    +0.000 OA
ATOM     12  H   UNL     1       5.264   1.485  20.918  0.00  0.00    +0.000 HD
ENDBRANCH   6  11
BRANCH   7  13
ATOM     13  O   UNL     1       5.918   4.470  19.310  0.00  0.00    +0.000 OA
ATOM     14  H   UNL     1       5.954   5.381  18.970  0.00  0.00    +0.000 HD
ENDBRANCH   7  13
BRANCH   1  15
ATOM     15  C   UNL     1       4.010   6.091  17.853  0.00  0.00    +0.000 C 
BRANCH  15  17
ATOM     16  N   UNL     1       2.534   7.386  19.272  0.00  0.00    +0.000 N 
ATOM     17  C   UNL     1       3.140   7.325  18.029  0.00  0.00    +0.000 C 
ATOM     18  O   UNL     1       3.030   8.136  17.118  0.00  0.00    +0.000 OA
ATOM     19  H   UNL     1       2.930   6.768  19.976  0.00  0.00    +0.000 HD
BRANCH  16  25
ATOM     20  C   UNL     1       0.034   9.320  23.047  0.00  0.00    +0.000 C 
ATOM     21  C   UNL     1       0.372   9.307  21.587  0.00  0.00    +0.000 A 
ATOM     22  C   UNL     1      -0.196  10.244  20.718  0.00  0.00    +0.000 A 
ATOM     23  C   UNL     1       0.120  10.225  19.362  0.00  0.00    +0.000 A 
ATOM     24  C   UNL     1       1.015   9.282  18.862  0.00  0.00    +0.000 A 
ATOM     25  C   UNL     1       1.609   8.351  19.712  0.00  0.00    +0.000 A 
ATOM     26  C   UNL     1       1.265   8.353  21.073  0.00  0.00    +0.000 A 
ENDBRANCH  16  25
ENDBRANCH  15  17
ENDBRANCH   1  15
TORSDOF 6
ENDMDL
MODEL 7
REMARK VINA RESULT:      -7.2      3.232      6.800
REMARK  Name = 
REMARK  8 active torsions:
REMARK  status: ('A' for Active; 'I' for Inactive)
REMARK    1  A    between atoms: C_1  and  C_2
REMARK    2  A    between atoms: C_6  and  N_7
REMARK    3  A    between atoms: C_8  and  C_10
REMARK    4  A    between atoms: C_10  and  C_11
REMARK    5  A    between atoms: C_13  and  C_14
REMARK    6  A    between atoms: C_15  and  O_16
REMARK    7  A    between atoms: C_17  and  O_18
REMARK    8  A    between atoms: C_19  and  O_20
REMARK                            x       y       z     vdW  Elec       q    Type
REMARK                         _______ _______ _______ _____ _____    ______ ____
ROOT
ATOM      1  C   UNL     1       5.051   4.074  18.168  0.00  0.00    +0.000 C 
ATOM      2  N   UNL     1       4.695   4.157  16.729  0.00  0.00    +0.000 NA
ATOM      3  C   UNL     1       5.919   4.136  15.897  0.00  0.00    +0.000 C 
ATOM      4  C   UNL     1       5.508   4.136  14.425  0.00  0.00    +0.000 C 
ATOM      5  C   UNL     1       6.872   5.307  16.240  0.00  0.00    +0.000 C 
ATOM      6  C   UNL     1       7.208   5.304  17.742  0.00  0.00    +0.000 C 
ATOM      7  C   UNL     1       5.921   5.281  18.592  0.00  0.00    +0.000 C 
ATOM      8  H   UNL     1       4.158   5.005  16.549  0.00  0.00    +0.000 HD
ENDROOT
BRANCH   5   9
ATOM      9  O   UNL     1       6.307   6.583  15.889  0.00  0.00    +0.000 OA
ATOM     10  H   UNL     1       7.021   7.236  15.820  0.00  0.00    +0.000 HD
ENDBRANCH   5   9
BRANCH   6  11
ATOM     11  O   UNL     1       8.002   6.449  18.065  0.00  0.00    +0.000 OA
ATOM     12  H   UNL     1       8.007   6.514  19.040  0.00  0.00    +0.000 HD
ENDBRANCH   6  11
BRANCH   7  13
ATOM     13  O   UNL     1       6.219   5.217  19.987  0.00  0.00    +0.000 OA
ATOM     14  H   UNL     1       5.934   4.353  20.332  0.00  0.00    +0.000 HD
ENDBRANCH   7  13
BRANCH   1  15
ATOM     15  C   UNL     1       3.790   3.959  19.035  0.00  0.00    +0.000 C 
BRANCH  15  17
ATOM     16  N   UNL     1       3.014   6.188  19.585  0.00  0.00    +0.000 N 
ATOM     17  C   UNL     1       2.806   5.088  18.771  0.00  0.00    +0.000 C 
ATOM     18  O   UNL     1       1.939   4.962  17.915  0.00  0.00    +0.000 OA
ATOM     19  H   UNL     1       3.917   6.213  20.054  0.00  0.00    +0.000 HD
BRANCH  16  25
ATOM     20  C   UNL     1       0.022   9.040  22.260  0.00  0.00    +0.000 C 
ATOM     21  C   UNL     1       0.744   8.764  20.975  0.00  0.00    +0.000 A 
ATOM     22  C   UNL     1       0.652   9.656  19.903  0.00  0.00    +0.000 A 
ATOM     23  C   UNL     1       1.324   9.394  18.712  0.00  0.00    +0.000 A 
ATOM     24  C   UNL     1       2.104   8.246  18.584  0.00  0.00    +0.000 A 
ATOM     25  C   UNL     1       2.228   7.352  19.646  0.00  0.00    +0.000 A 
ATOM     26  C   UNL     1       1.524   7.605  20.835  0.00  0.00    +0.000 A 
ENDBRANCH  16  25
ENDBRANCH  15  17
ENDBRANCH   1  15
TORSDOF 6
ENDMDL
MODEL 8
REMARK VINA RESULT:      -7.1      1.816      2.645
REMARK  Name = 
REMARK  8 active torsions:
REMARK  status: ('A' for Active; 'I' for Inactive)
REMARK    1  A    between atoms: C_1  and  C_2
REMARK    2  A    between atoms: C_6  and  N_7
REMARK    3  A    between atoms: C_8  and  C_10
REMARK    4  A    between atoms: C_10  and  C_11
REMARK    5  A    between atoms: C_13  and  C_14
REMARK    6  A    between atoms: C_15  and  O_16
REMARK    7  A    between atoms: C_17  and  O_18
REMARK    8  A    between atoms: C_19  and  O_20
REMARK                            x       y       z     vdW  Elec       q    Type
REMARK                         _______ _______ _______ _____ _____    ______ ____
ROOT
ATOM      1  C   UNL     1       4.963   4.007  18.457  0.00  0.00    +0.000 C 
ATOM      2  N   UNL     1       5.326   3.199  19.649  0.00  0.00    +0.000 NA
ATOM      3  C   UNL     1       4.359   2.093  19.832  0.00  0.00    +0.000 C 
ATOM      4  C   UNL     1       4.814   1.239  21.014  0.00  0.00    +0.000 C 
ATOM      5  C   UNL     1       2.912   2.614  20.009  0.00  0.00    +0.000 C 
ATOM      6  C   UNL     1       2.519   3.520  18.828  0.00  0.00    +0.000 C 
ATOM      7  C   UNL     1       3.561   4.639  18.624  0.00  0.00    +0.000 C 
ATOM      8  H   UNL     1       5.350   3.791  20.479  0.00  0.00    +0.000 HD
ENDROOT
BRANCH   5   9
ATOM      9  O   UNL     1       2.747   3.347  21.236  0.00  0.00    +0.000 OA
ATOM     10  H   UNL     1       2.476   4.255  21.027  0.00  0.00    +0.000 HD
ENDBRANCH   5   9
BRANCH   6  11
ATOM     11  O   UNL     1       1.221   4.079  19.054  0.00  0.00    +0.000 OA
ATOM     12  H   UNL     1       1.362   4.920  19.531  0.00  0.00    +0.000 HD
ENDBRANCH   6  11
BRANCH   7  13
ATOM     13  O   UNL     1       3.240   5.451  17.494  0.00  0.00    +0.000 OA
ATOM     14  H   UNL     1       3.943   5.358  16.829  0.00  0.00    +0.000 HD
ENDBRANCH   7  13
BRANCH   1  15
ATOM     15  C   UNL     1       6.030   5.073  18.176  0.00  0.00    +0.000 C 
BRANCH  15  17
ATOM     16  N   UNL     1       6.075   4.998  15.755  0.00  0.00    +0.000 N 
ATOM     17  C   UNL     1       6.813   4.783  16.906  0.00  0.00    +0.000 C 
ATOM     18  O   UNL     1       7.973   4.395  16.973  0.00  0.00    +0.000 OA
ATOM     19  H   UNL     1       5.228   5.548  15.882  0.00  0.00    +0.000 HD
BRANCH  16  25
ATOM     20  C   UNL     1       5.376   2.411  11.624  0.00  0.00    +0.000 C 
ATOM     21  C   UNL     1       6.132   3.458  12.387  0.00  0.00    +0.000 A 
ATOM     22  C   UNL     1       7.176   4.162  11.780  0.00  0.00    +0.000 A 
ATOM     23  C   UNL     1       7.876   5.132  12.494  0.00  0.00    +0.000 A 
ATOM     24  C   UNL     1       7.532   5.417  13.814  0.00  0.00    +0.000 A 
ATOM     25  C   UNL     1       6.482   4.742  14.433  0.00  0.00    +0.000 A 
ATOM     26  C   UNL     1       5.799   3.744  13.720  0.00  0.00    +0.000 A 
ENDBRANCH  16  25
ENDBRANCH  15  17
ENDBRANCH   1  15
TORSDOF 6
ENDMDL
MODEL 9
REMARK VINA RESULT:      -7.1      4.529      6.973
REMARK  Name = 
REMARK  8 active torsions:
REMARK  status: ('A' for Active; 'I' for Inactive)
REMARK    1  A    between atoms: C_1  and  C_2
REMARK    2  A    between atoms: C_6  and  N_7
REMARK    3  A    between atoms: C_8  and  C_10
REMARK    4  A    between atoms: C_10  and  C_11
REMARK    5  A    between atoms: C_13  and  C_14
REMARK    6  A    between atoms: C_15  and  O_16
REMARK    7  A    between atoms: C_17  and  O_18
REMARK    8  A    between atoms: C_19  and  O_20
REMARK                            x       y       z     vdW  Elec       q    Type
REMARK                         _______ _______ _______ _____ _____    ______ ____
ROOT
ATOM      1  C   UNL     1       6.719   6.169  17.418  0.00  0.00    +0.000 C 
ATOM      2  N   UNL     1       7.302   5.723  16.127  0.00  0.00    +0.000 NA
ATOM      3  C   UNL     1       6.229   5.309  15.196  0.00  0.00    +0.000 C 
ATOM      4  C   UNL     1       6.862   4.940  13.856  0.00  0.00    +0.000 C 
ATOM      5  C   UNL     1       5.372   4.158  15.777  0.00  0.00    +0.000 C 
ATOM      6  C   UNL     1       4.808   4.550  17.154  0.00  0.00    +0.000 C 
ATOM      7  C   UNL     1       5.935   5.020  18.096  0.00  0.00    +0.000 C 
ATOM      8  H   UNL     1       7.953   4.953  16.284  0.00  0.00    +0.000 HD
ENDROOT
BRANCH   5   9
ATOM      9  O   UNL     1       6.125   2.938  15.909  0.00  0.00    +0.000 OA
ATOM     10  H   UNL     1       6.149   2.683  16.844  0.00  0.00    +0.000 HD
ENDBRANCH   5   9
BRANCH   6  11
ATOM     11  O   UNL     1       4.107   3.441  17.726  0.00  0.00    +0.000 OA
ATOM     12  H   UNL     1       3.442   3.165  17.065  0.00  0.00    +0.000 HD
ENDBRANCH   6  11
BRANCH   7  13
ATOM     13  O   UNL     1       5.418   5.444  19.357  0.00  0.00    +0.000 OA
ATOM     14  H   UNL     1       5.530   4.725  20.002  0.00  0.00    +0.000 HD
ENDBRANCH   7  13
BRANCH   1  15
ATOM     15  C   UNL     1       7.809   6.727  18.344  0.00  0.00    +0.000 C 
BRANCH  15  17
ATOM     16  N   UNL     1       8.923   8.764  19.035  0.00  0.00    +0.000 N 
ATOM     17  C   UNL     1       8.071   8.204  18.099  0.00  0.00    +0.000 C 
ATOM     18  O   UNL     1       7.542   8.775  17.153  0.00  0.00    +0.000 OA
ATOM     19  H   UNL     1       9.454   8.096  19.590  0.00  0.00    +0.000 HD
BRANCH  16  25
ATOM     20  C   UNL     1       9.542  12.696  21.933  0.00  0.00    +0.000 C 
ATOM     21  C   UNL     1       9.599  12.065  20.574  0.00  0.00    +0.000 A 
ATOM     22  C   UNL     1      10.035  12.800  19.468  0.00  0.00    +0.000 A 
ATOM     23  C   UNL     1      10.084  12.209  18.208  0.00  0.00    +0.000 A 
ATOM     24  C   UNL     1       9.712  10.876  18.043  0.00  0.00    +0.000 A 
ATOM     25  C   UNL     1       9.293  10.118  19.134  0.00  0.00    +0.000 A 
ATOM     26  C   UNL     1       9.216  10.726  20.397  0.00  0.00    +0.000 A 
ENDBRANCH  16  25
ENDBRANCH  15  17
ENDBRANCH   1  15
TORSDOF 6
ENDMDL
