MODEL 1
REMARK VINA RESULT:      -8.4      0.000      0.000
REMARK  Name = 
REMARK  4 active torsions:
REMARK  status: ('A' for Active; 'I' for Inactive)
REMARK    1  A    between atoms: C_10  and  O_11
REMARK    2  A    between atoms: C_12  and  O_13
REMARK    3  A    between atoms: C_20  and  O_21
REMARK    4  A    between atoms: C_22  and  O_23
REMARK                            x       y       z     vdW  Elec       q    Type
REMARK                         _______ _______ _______ _____ _____    ______ ____
ROOT
ATOM      1  O   UNL     1       3.296   8.132  16.661  0.00  0.00    +0.000 OA
ATOM      2  C   UNL     1       2.767   8.043  17.761  0.00  0.00    +0.000 C 
ATOM      3  C   UNL     1       1.873   9.210  18.314  0.00  0.00    +0.000 C 
ATOM      4  O   UNL     1       1.536  10.134  17.585  0.00  0.00    +0.000 OA
ATOM      5  C   UNL     1       1.403   9.089  19.688  0.00  0.00    +0.000 A 
ATOM      6  C   UNL     1       1.568   7.900  20.379  0.00  0.00    +0.000 A 
ATOM      7  O   UNL     1       0.948   7.945  21.583  0.00  0.00    +0.000 OA
ATOM      8  C   UNL     1       0.391   9.180  21.683  0.00  0.00    +0.000 A 
ATOM      9  C   UNL     1      -0.420   9.587  22.735  0.00  0.00    +0.000 A 
ATOM     10  C   UNL     1      -0.927  10.872  22.616  0.00  0.00    +0.000 A 
ATOM     11  C   UNL     1      -0.531  11.732  21.594  0.00  0.00    +0.000 A 
ATOM     12  C   UNL     1       0.271  11.298  20.540  0.00  0.00    +0.000 A 
ATOM     13  C   UNL     1       0.704   9.959  20.566  0.00  0.00    +0.000 A 
ATOM     14  C   UNL     1       2.248   6.789  19.821  0.00  0.00    +0.000 A 
ATOM     15  O   UNL     1       2.343   5.546  20.350  0.00  0.00    +0.000 OA
ATOM     16  C   UNL     1       3.049   4.800  19.462  0.00  0.00    +0.000 A 
ATOM     17  C   UNL     1       3.243   3.421  19.561  0.00  0.00    +0.000 A 
ATOM     18  C   UNL     1       3.935   2.847  18.514  0.00  0.00    +0.000 A 
ATOM     19  C   UNL     1       4.538   3.617  17.518  0.00  0.00    +0.000 A 
ATOM     20  C   UNL     1       4.322   4.992  17.423  0.00  0.00    +0.000 A 
ATOM     21  C   UNL     1       3.494   5.583  18.396  0.00  0.00    +0.000 A 
ATOM     22  C   UNL     1       2.878   6.849  18.590  0.00  0.00    +0.000 A 
ENDROOT
BRANCH  10  23
ATOM     23  O   UNL     1      -1.907  11.276  23.479  0.00  0.00    +0.000 OA
ATOM     24  H   UNL     1      -1.527  11.116  24.366  0.00  0.00    +0.000 HD
ENDBRANCH  10  23
BRANCH  11  25
ATOM     25  O   UNL     1      -0.928  13.041  21.631  0.00  0.00    +0.000 OA
ATOM     26  H   UNL     1      -1.247  13.201  22.539  0.00  0.00    +0.000 HD
ENDBRANCH  11  25
BRANCH  18  27
ATOM     27  O   UNL     1       3.966   1.488  18.408  0.00  0.00    +0.000 OA
ATOM     28  H   UNL     1       3.286   1.280  17.738  0.00  0.00    +0.000 HD
ENDBRANCH  18  27
BRANCH  19  29
ATOM     29  O   UNL     1       5.346   3.004  16.600  0.00  0.00    +0.000 OA
ATOM     30  H   UNL     1       5.910   3.704  16.221  0.00  0.00    +0.000 HD
ENDBRANCH  19  29
TORSDOF 4
ENDMDL
MODEL 2
REMARK VINA RESULT:      -8.3      0.681      7.632
REMARK  Name = 
REMARK  4 active torsions:
REMARK  status: ('A' for Active; 'I' for Inactive)
REMARK    1  A    between atoms: C_10  and  O_11
REMARK    2  A    between atoms: C_12  and  O_13
REMARK    3  A    between atoms: C_20  and  O_21
REMARK    4  A    between atoms: C_22  and  O_23
REMARK                            x       y       z     vdW  Elec       q    Type
REMARK                         _______ _______ _______ _____ _____    ______ ____
ROOT
ATOM      1  O   UNL     1       1.642  10.355  17.540  0.00  0.00    +0.000 OA
ATOM      2  C   UNL     1       1.738   9.377  18.268  0.00  0.00    +0.000 C 
ATOM      3  C   UNL     1       2.649   8.164  17.860  0.00  0.00    +0.000 C 
ATOM      4  O   UNL     1       3.419   8.255  16.913  0.00  0.00    +0.000 OA
ATOM      5  C   UNL     1       2.593   6.980  18.709  0.00  0.00    +0.000 A 
ATOM      6  C   UNL     1       1.929   7.024  19.924  0.00  0.00    +0.000 A 
ATOM      7  O   UNL     1       2.105   5.875  20.619  0.00  0.00    +0.000 OA
ATOM      8  C   UNL     1       2.875   5.069  19.841  0.00  0.00    +0.000 A 
ATOM      9  C   UNL     1       3.363   3.832  20.242  0.00  0.00    +0.000 A 
ATOM     10  C   UNL     1       4.171   3.195  19.313  0.00  0.00    +0.000 A 
ATOM     11  C   UNL     1       4.354   3.696  18.025  0.00  0.00    +0.000 A 
ATOM     12  C   UNL     1       3.869   4.947  17.648  0.00  0.00    +0.000 A 
ATOM     13  C   UNL     1       3.146   5.676  18.612  0.00  0.00    +0.000 A 
ATOM     14  C   UNL     1       1.229   8.176  20.362  0.00  0.00    +0.000 A 
ATOM     15  O   UNL     1       0.671   8.372  21.581  0.00  0.00    +0.000 OA
ATOM     16  C   UNL     1       0.144   9.623  21.568  0.00  0.00    +0.000 A 
ATOM     17  C   UNL     1      -0.395  10.269  22.683  0.00  0.00    +0.000 A 
ATOM     18  C   UNL     1      -0.815  11.566  22.466  0.00  0.00    +0.000 A 
ATOM     19  C   UNL     1      -0.852  12.125  21.188  0.00  0.00    +0.000 A 
ATOM     20  C   UNL     1      -0.295  11.475  20.087  0.00  0.00    +0.000 A 
ATOM     21  C   UNL     1       0.278  10.208  20.308  0.00  0.00    +0.000 A 
ATOM     22  C   UNL     1       1.077   9.298  19.566  0.00  0.00    +0.000 A 
ENDROOT
BRANCH  10  23
ATOM     23  O   UNL     1       4.875   2.089  19.700  0.00  0.00    +0.000 OA
ATOM     24  H   UNL     1       4.897   2.149  20.676  0.00  0.00    +0.000 HD
ENDBRANCH  10  23
BRANCH  11  25
ATOM     25  O   UNL     1       5.016   2.934  17.100  0.00  0.00    +0.000 OA
ATOM     26  H   UNL     1       4.330   2.431  16.625  0.00  0.00    +0.000 HD
ENDBRANCH  11  25
BRANCH  18  27
ATOM     27  O   UNL     1      -1.133  12.345  23.539  0.00  0.00    +0.000 OA
ATOM     28  H   UNL     1      -1.548  11.728  24.174  0.00  0.00    +0.000 HD
ENDBRANCH  18  27
BRANCH  19  29
ATOM     29  O   UNL     1      -1.430  13.353  21.015  0.00  0.00    +0.000 OA
ATOM     30  H   UNL     1      -1.431  13.781  21.891  0.00  0.00    +0.000 HD
ENDBRANCH  19  29
TORSDOF 4
ENDMDL
MODEL 3
REMARK VINA RESULT:      -8.1      1.639      3.515
REMARK  Name = 
REMARK  4 active torsions:
REMARK  status: ('A' for Active; 'I' for Inactive)
REMARK    1  A    between atoms: C_10  and  O_11
REMARK    2  A    between atoms: C_12  and  O_13
REMARK    3  A    between atoms: C_20  and  O_21
REMARK    4  A    between atoms: C_22  and  O_23
REMARK                            x       y       z     vdW  Elec       q    Type
REMARK                         _______ _______ _______ _____ _____    ______ ____
ROOT
ATOM      1  O   UNL     1       3.083   3.545  19.500  0.00  0.00    +0.000 OA
ATOM      2  C   UNL     1       2.912   4.748  19.361  0.00  0.00    +0.000 C 
ATOM      3  C   UNL     1       2.132   5.575  20.445  0.00  0.00    +0.000 C 
ATOM      4  O   UNL     1       1.852   5.075  21.526  0.00  0.00    +0.000 OA
ATOM      5  C   UNL     1       1.845   6.970  20.134  0.00  0.00    +0.000 A 
ATOM      6  C   UNL     1       2.426   7.572  19.029  0.00  0.00    +0.000 A 
ATOM      7  O   UNL     1       2.145   8.895  18.990  0.00  0.00    +0.000 OA
ATOM      8  C   UNL     1       1.358   9.154  20.067  0.00  0.00    +0.000 A 
ATOM      9  C   UNL     1       0.935  10.425  20.437  0.00  0.00    +0.000 A 
ATOM     10  C   UNL     1       0.181  10.471  21.599  0.00  0.00    +0.000 A 
ATOM     11  C   UNL     1      -0.239   9.316  22.257  0.00  0.00    +0.000 A 
ATOM     12  C   UNL     1       0.210   8.052  21.878  0.00  0.00    +0.000 A 
ATOM     13  C   UNL     1       1.080   7.980  20.773  0.00  0.00    +0.000 A 
ATOM     14  C   UNL     1       3.256   6.858  18.129  0.00  0.00    +0.000 A 
ATOM     15  O   UNL     1       3.980   7.376  17.108  0.00  0.00    +0.000 OA
ATOM     16  C   UNL     1       4.648   6.339  16.542  0.00  0.00    +0.000 A 
ATOM     17  C   UNL     1       5.620   6.468  15.548  0.00  0.00    +0.000 A 
ATOM     18  C   UNL     1       6.226   5.290  15.159  0.00  0.00    +0.000 A 
ATOM     19  C   UNL     1       5.777   4.047  15.608  0.00  0.00    +0.000 A 
ATOM     20  C   UNL     1       4.817   3.934  16.613  0.00  0.00    +0.000 A 
ATOM     21  C   UNL     1       4.287   5.129  17.137  0.00  0.00    +0.000 A 
ATOM     22  C   UNL     1       3.462   5.493  18.234  0.00  0.00    +0.000 A 
ENDROOT
BRANCH  10  23
ATOM     23  O   UNL     1      -0.087  11.688  22.163  0.00  0.00    +0.000 OA
ATOM     24  H   UNL     1       0.796  12.083  22.310  0.00  0.00    +0.000 HD
ENDBRANCH  10  23
BRANCH  11  25
ATOM     25  O   UNL     1      -1.126   9.422  23.293  0.00  0.00    +0.000 OA
ATOM     26  H   UNL     1      -1.871   8.833  23.073  0.00  0.00    +0.000 HD
ENDBRANCH  11  25
BRANCH  18  27
ATOM     27  O   UNL     1       7.339   5.348  14.374  0.00  0.00    +0.000 OA
ATOM     28  H   UNL     1       8.074   5.484  15.003  0.00  0.00    +0.000 HD
ENDBRANCH  18  27
BRANCH  19  29
ATOM     29  O   UNL     1       6.309   2.910  15.063  0.00  0.00    +0.000 OA
ATOM     30  H   UNL     1       6.182   2.205  15.723  0.00  0.00    +0.000 HD
ENDBRANCH  19  29
TORSDOF 4
ENDMDL
MODEL 4
REMARK VINA RESULT:      -7.6      1.125      1.484
REMARK  Name = 
REMARK  4 active torsions:
REMARK  status: ('A' for Active; 'I' for Inactive)
REMARK    1  A    between atoms: C_10  and  O_11
REMARK    2  A    between atoms: C_12  and  O_13
REMARK    3  A    between atoms: C_20  and  O_21
REMARK    4  A    between atoms: C_22  and  O_23
REMARK                            x       y       z     vdW  Elec       q    Type
REMARK                         _______ _______ _______ _____ _____    ______ ____
ROOT
ATOM      1  O   UNL     1       2.374   9.209  17.144  0.00  0.00    +0.000 OA
ATOM      2  C   UNL     1       1.869   9.125  18.254  0.00  0.00    +0.000 C 
ATOM      3  C   UNL     1       0.922  10.258  18.790  0.00  0.00    +0.000 C 
ATOM      4  O   UNL     1       0.522  11.140  18.041  0.00  0.00    +0.000 OA
ATOM      5  C   UNL     1       0.481  10.153  20.175  0.00  0.00    +0.000 A 
ATOM      6  C   UNL     1       0.722   8.996  20.897  0.00  0.00    +0.000 A 
ATOM      7  O   UNL     1       0.121   9.043  22.110  0.00  0.00    +0.000 OA
ATOM      8  C   UNL     1      -0.501  10.248  22.184  0.00  0.00    +0.000 A 
ATOM      9  C   UNL     1      -1.317  10.642  23.239  0.00  0.00    +0.000 A 
ATOM     10  C   UNL     1      -1.895  11.893  23.092  0.00  0.00    +0.000 A 
ATOM     11  C   UNL     1      -1.564  12.743  22.038  0.00  0.00    +0.000 A 
ATOM     12  C   UNL     1      -0.756  12.322  20.982  0.00  0.00    +0.000 A 
ATOM     13  C   UNL     1      -0.250  11.009  21.040  0.00  0.00    +0.000 A 
ATOM     14  C   UNL     1       1.453   7.907  20.360  0.00  0.00    +0.000 A 
ATOM     15  O   UNL     1       1.624   6.687  20.922  0.00  0.00    +0.000 OA
ATOM     16  C   UNL     1       2.355   5.954  20.044  0.00  0.00    +0.000 A 
ATOM     17  C   UNL     1       2.626   4.591  20.179  0.00  0.00    +0.000 A 
ATOM     18  C   UNL     1       3.331   4.025  19.137  0.00  0.00    +0.000 A 
ATOM     19  C   UNL     1       3.876   4.797  18.109  0.00  0.00    +0.000 A 
ATOM     20  C   UNL     1       3.582   6.154  17.977  0.00  0.00    +0.000 A 
ATOM     21  C   UNL     1       2.740   6.728  18.948  0.00  0.00    +0.000 A 
ATOM     22  C   UNL     1       2.059   7.964  19.116  0.00  0.00    +0.000 A 
ENDROOT
BRANCH  10  23
ATOM     23  O   UNL     1      -2.882  12.269  23.960  0.00  0.00    +0.000 OA
ATOM     24  H   UNL     1      -3.633  12.506  23.380  0.00  0.00    +0.000 HD
ENDBRANCH  10  23
BRANCH  11  25
ATOM     25  O   UNL     1      -2.030  14.029  22.044  0.00  0.00    +0.000 OA
ATOM     26  H   UNL     1      -2.194  14.252  22.979  0.00  0.00    +0.000 HD
ENDBRANCH  11  25
BRANCH  18  27
ATOM     27  O   UNL     1       3.435   2.667  19.071  0.00  0.00    +0.000 OA
ATOM     28  H   UNL     1       3.752   2.491  18.163  0.00  0.00    +0.000 HD
ENDBRANCH  18  27
BRANCH  19  29
ATOM     29  O   UNL     1       4.701   4.201  17.194  0.00  0.00    +0.000 OA
ATOM     30  H   UNL     1       4.642   4.737  16.383  0.00  0.00    +0.000 HD
ENDBRANCH  19  29
TORSDOF 4
ENDMDL
MODEL 5
REMARK VINA RESULT:      -7.5      1.347      3.230
REMARK  Name = 
REMARK  4 active torsions:
REMARK  status: ('A' for Active; 'I' for Inactive)
REMARK    1  A    between atoms: C_10  and  O_11
REMARK    2  A    between atoms: C_12  and  O_13
REMARK    3  A    between atoms: C_20  and  O_21
REMARK    4  A    between atoms: C_22  and  O_23
REMARK                            x       y       z     vdW  Elec       q    Type
REMARK                         _______ _______ _______ _____ _____    ______ ____
ROOT
ATOM      1  O   UNL     1       1.548   5.784  21.075  0.00  0.00    +0.000 OA
ATOM      2  C   UNL     1       1.726   6.751  20.347  0.00  0.00    +0.000 C 
ATOM      3  C   UNL     1       1.228   8.177  20.776  0.00  0.00    +0.000 C 
ATOM      4  O   UNL     1       0.830   8.380  21.916  0.00  0.00    +0.000 OA
ATOM      5  C   UNL     1       1.347   9.245  19.791  0.00  0.00    +0.000 A 
ATOM      6  C   UNL     1       2.062   9.038  18.622  0.00  0.00    +0.000 A 
ATOM      7  O   UNL     1       2.169  10.182  17.906  0.00  0.00    +0.000 OA
ATOM      8  C   UNL     1       1.503  11.137  18.605  0.00  0.00    +0.000 A 
ATOM      9  C   UNL     1       1.464  12.480  18.251  0.00  0.00    +0.000 A 
ATOM     10  C   UNL     1       0.769  13.295  19.130  0.00  0.00    +0.000 A 
ATOM     11  C   UNL     1       0.046  12.779  20.204  0.00  0.00    +0.000 A 
ATOM     12  C   UNL     1       0.111  11.430  20.551  0.00  0.00    +0.000 A 
ATOM     13  C   UNL     1       0.910  10.594  19.749  0.00  0.00    +0.000 A 
ATOM     14  C   UNL     1       2.643   7.785  18.303  0.00  0.00    +0.000 A 
ATOM     15  O   UNL     1       3.471   7.515  17.266  0.00  0.00    +0.000 OA
ATOM     16  C   UNL     1       3.809   6.204  17.371  0.00  0.00    +0.000 A 
ATOM     17  C   UNL     1       4.765   5.565  16.580  0.00  0.00    +0.000 A 
ATOM     18  C   UNL     1       5.005   4.243  16.898  0.00  0.00    +0.000 A 
ATOM     19  C   UNL     1       4.226   3.556  17.831  0.00  0.00    +0.000 A 
ATOM     20  C   UNL     1       3.286   4.212  18.626  0.00  0.00    +0.000 A 
ATOM     21  C   UNL     1       3.125   5.596  18.425  0.00  0.00    +0.000 A 
ATOM     22  C   UNL     1       2.452   6.659  19.086  0.00  0.00    +0.000 A 
ENDROOT
BRANCH  10  23
ATOM     23  O   UNL     1       0.867  14.652  18.989  0.00  0.00    +0.000 OA
ATOM     24  H   UNL     1       1.036  14.781  18.034  0.00  0.00    +0.000 HD
ENDBRANCH  10  23
BRANCH  11  25
ATOM     25  O   UNL     1      -0.762  13.613  20.928  0.00  0.00    +0.000 OA
ATOM     26  H   UNL     1      -1.576  13.724  20.404  0.00  0.00    +0.000 HD
ENDBRANCH  11  25
BRANCH  18  27
ATOM     27  O   UNL     1       6.078   3.614  16.341  0.00  0.00    +0.000 OA
ATOM     28  H   UNL     1       6.745   4.320  16.232  0.00  0.00    +0.000 HD
ENDBRANCH  18  27
BRANCH  19  29
ATOM     29  O   UNL     1       4.405   2.208  17.984  0.00  0.00    +0.000 OA
ATOM     30  H   UNL     1       4.731   1.877  17.128  0.00  0.00    +0.000 HD
ENDBRANCH  19  29
TORSDOF 4
ENDMDL
MODEL 6
REMARK VINA RESULT:      -7.5      1.609      8.131
REMARK  Name = 
REMARK  4 active torsions:
REMARK  status: ('A' for Active; 'I' for Inactive)
REMARK    1  A    between atoms: C_10  and  O_11
REMARK    2  A    between atoms: C_12  and  O_13
REMARK    3  A    between atoms: C_20  and  O_21
REMARK    4  A    between atoms: C_22  and  O_23
REMARK                            x       y       z     vdW  Elec       q    Type
REMARK                         _______ _______ _______ _____ _____    ______ ____
ROOT
ATOM      1  O   UNL     1       1.324   5.061  21.276  0.00  0.00    +0.000 OA
ATOM      2  C   UNL     1       1.893   5.622  20.351  0.00  0.00    +0.000 C 
ATOM      3  C   UNL     1       2.700   4.795  19.288  0.00  0.00    +0.000 C 
ATOM      4  O   UNL     1       2.615   3.574  19.255  0.00  0.00    +0.000 OA
ATOM      5  C   UNL     1       3.469   5.549  18.306  0.00  0.00    +0.000 A 
ATOM      6  C   UNL     1       3.310   6.921  18.201  0.00  0.00    +0.000 A 
ATOM      7  O   UNL     1       4.004   7.414  17.148  0.00  0.00    +0.000 OA
ATOM      8  C   UNL     1       4.635   6.357  16.574  0.00  0.00    +0.000 A 
ATOM      9  C   UNL     1       5.375   6.432  15.400  0.00  0.00    +0.000 A 
ATOM     10  C   UNL     1       5.893   5.224  14.960  0.00  0.00    +0.000 A 
ATOM     11  C   UNL     1       5.800   4.058  15.718  0.00  0.00    +0.000 A 
ATOM     12  C   UNL     1       5.040   4.001  16.885  0.00  0.00    +0.000 A 
ATOM     13  C   UNL     1       4.397   5.184  17.296  0.00  0.00    +0.000 A 
ATOM     14  C   UNL     1       2.461   7.653  19.069  0.00  0.00    +0.000 A 
ATOM     15  O   UNL     1       2.128   8.962  18.966  0.00  0.00    +0.000 OA
ATOM     16  C   UNL     1       1.269   9.224  19.984  0.00  0.00    +0.000 A 
ATOM     17  C   UNL     1       0.576  10.425  20.148  0.00  0.00    +0.000 A 
ATOM     18  C   UNL     1      -0.300  10.457  21.214  0.00  0.00    +0.000 A 
ATOM     19  C   UNL     1      -0.359   9.426  22.153  0.00  0.00    +0.000 A 
ATOM     20  C   UNL     1       0.327   8.226  21.967  0.00  0.00    +0.000 A 
ATOM     21  C   UNL     1       1.115   8.107  20.806  0.00  0.00    +0.000 A 
ATOM     22  C   UNL     1       1.812   7.064  20.141  0.00  0.00    +0.000 A 
ENDROOT
BRANCH  10  23
ATOM     23  O   UNL     1       6.437   5.158  13.707  0.00  0.00    +0.000 OA
ATOM     24  H   UNL     1       6.819   6.047  13.565  0.00  0.00    +0.000 HD
ENDBRANCH  10  23
BRANCH  11  25
ATOM     25  O   UNL     1       6.484   2.944  15.315  0.00  0.00    +0.000 OA
ATOM     26  H   UNL     1       7.325   3.263  14.940  0.00  0.00    +0.000 HD
ENDBRANCH  11  25
BRANCH  18  27
ATOM     27  O   UNL     1      -1.184  11.491  21.311  0.00  0.00    +0.000 OA
ATOM     28  H   UNL     1      -1.976  11.180  20.829  0.00  0.00    +0.000 HD
ENDBRANCH  18  27
BRANCH  19  29
ATOM     29  O   UNL     1      -1.126   9.589  23.274  0.00  0.00    +0.000 OA
ATOM     30  H   UNL     1      -0.514   9.556  24.032  0.00  0.00    +0.000 HD
ENDBRANCH  19  29
TORSDOF 4
ENDMDL
MODEL 7
REMARK VINA RESULT:      -7.4      1.409      3.305
REMARK  Name = 
REMARK  4 active torsions:
REMARK  status: ('A' for Active; 'I' for Inactive)
REMARK    1  A    between atoms: C_10  and  O_11
REMARK    2  A    between atoms: C_12  and  O_13
REMARK    3  A    between atoms: C_20  and  O_21
REMARK    4  A    between atoms: C_22  and  O_23
REMARK                            x       y       z     vdW  Elec       q    Type
REMARK                         _______ _______ _______ _____ _____    ______ ____
ROOT
ATOM      1  O   UNL     1       2.606   5.128  20.106  0.00  0.00    +0.000 OA
ATOM      2  C   UNL     1       2.470   6.233  19.600  0.00  0.00    +0.000 C 
ATOM      3  C   UNL     1       1.679   7.365  20.351  0.00  0.00    +0.000 C 
ATOM      4  O   UNL     1       1.356   7.224  21.522  0.00  0.00    +0.000 OA
ATOM      5  C   UNL     1       1.437   8.601  19.618  0.00  0.00    +0.000 A 
ATOM      6  C   UNL     1       2.066   8.827  18.404  0.00  0.00    +0.000 A 
ATOM      7  O   UNL     1       1.819  10.079  17.951  0.00  0.00    +0.000 OA
ATOM      8  C   UNL     1       1.009  10.667  18.869  0.00  0.00    +0.000 A 
ATOM      9  C   UNL     1       0.607  11.996  18.818  0.00  0.00    +0.000 A 
ATOM     10  C   UNL     1      -0.180  12.408  19.883  0.00  0.00    +0.000 A 
ATOM     11  C   UNL     1      -0.647  11.517  20.847  0.00  0.00    +0.000 A 
ATOM     12  C   UNL     1      -0.219  10.190  20.888  0.00  0.00    +0.000 A 
ATOM     13  C   UNL     1       0.679   9.770  19.890  0.00  0.00    +0.000 A 
ATOM     14  C   UNL     1       2.903   7.859  17.795  0.00  0.00    +0.000 A 
ATOM     15  O   UNL     1       3.669   8.028  16.691  0.00  0.00    +0.000 OA
ATOM     16  C   UNL     1       4.328   6.857  16.493  0.00  0.00    +0.000 A 
ATOM     17  C   UNL     1       5.331   6.661  15.542  0.00  0.00    +0.000 A 
ATOM     18  C   UNL     1       5.918   5.412  15.554  0.00  0.00    +0.000 A 
ATOM     19  C   UNL     1       5.424   4.373  16.345  0.00  0.00    +0.000 A 
ATOM     20  C   UNL     1       4.433   4.588  17.302  0.00  0.00    +0.000 A 
ATOM     21  C   UNL     1       3.919   5.894  17.416  0.00  0.00    +0.000 A 
ATOM     22  C   UNL     1       3.072   6.589  18.320  0.00  0.00    +0.000 A 
ENDROOT
BRANCH  10  23
ATOM     23  O   UNL     1      -0.432  13.743  20.037  0.00  0.00    +0.000 OA
ATOM     24  H   UNL     1      -0.113  14.145  19.205  0.00  0.00    +0.000 HD
ENDBRANCH  10  23
BRANCH  11  25
ATOM     25  O   UNL     1      -1.562  11.948  21.768  0.00  0.00    +0.000 OA
ATOM     26  H   UNL     1      -1.343  11.491  22.601  0.00  0.00    +0.000 HD
ENDBRANCH  11  25
BRANCH  18  27
ATOM     27  O   UNL     1       7.054   5.209  14.829  0.00  0.00    +0.000 OA
ATOM     28  H   UNL     1       6.853   4.431  14.273  0.00  0.00    +0.000 HD
ENDBRANCH  18  27
BRANCH  19  29
ATOM     29  O   UNL     1       5.943   3.116  16.193  0.00  0.00    +0.000 OA
ATOM     30  H   UNL     1       5.299   2.617  15.658  0.00  0.00    +0.000 HD
ENDBRANCH  19  29
TORSDOF 4
ENDMDL
MODEL 8
REMARK VINA RESULT:      -7.4      1.445      3.326
REMARK  Name = 
REMARK  4 active torsions:
REMARK  status: ('A' for Active; 'I' for Inactive)
REMARK    1  A    between atoms: C_10  and  O_11
REMARK    2  A    between atoms: C_12  and  O_13
REMARK    3  A    between atoms: C_20  and  O_21
REMARK    4  A    between atoms: C_22  and  O_23
REMARK                            x       y       z     vdW  Elec       q    Type
REMARK                         _______ _______ _______ _____ _____    ______ ____
ROOT
ATOM      1  O   UNL     1       1.761   6.184  21.129  0.00  0.00    +0.000 OA
ATOM      2  C   UNL     1       1.678   7.179  20.423  0.00  0.00    +0.000 C 
ATOM      3  C   UNL     1       0.885   8.443  20.912  0.00  0.00    +0.000 C 
ATOM      4  O   UNL     1       0.504   8.527  22.073  0.00  0.00    +0.000 OA
ATOM      5  C   UNL     1       0.710   9.527  19.954  0.00  0.00    +0.000 A 
ATOM      6  C   UNL     1       1.399   9.513  18.752  0.00  0.00    +0.000 A 
ATOM      7  O   UNL     1       1.208  10.665  18.066  0.00  0.00    +0.000 OA
ATOM      8  C   UNL     1       0.372  11.427  18.819  0.00  0.00    +0.000 A 
ATOM      9  C   UNL     1       0.009  12.731  18.505  0.00  0.00    +0.000 A 
ATOM     10  C   UNL     1      -0.814  13.346  19.435  0.00  0.00    +0.000 A 
ATOM     11  C   UNL     1      -1.350  12.657  20.521  0.00  0.00    +0.000 A 
ATOM     12  C   UNL     1      -0.960  11.353  20.827  0.00  0.00    +0.000 A 
ATOM     13  C   UNL     1      -0.028  10.740  19.969  0.00  0.00    +0.000 A 
ATOM     14  C   UNL     1       2.237   8.435  18.374  0.00  0.00    +0.000 A 
ATOM     15  O   UNL     1       3.058   8.383  17.297  0.00  0.00    +0.000 OA
ATOM     16  C   UNL     1       3.693   7.185  17.351  0.00  0.00    +0.000 A 
ATOM     17  C   UNL     1       4.733   6.799  16.504  0.00  0.00    +0.000 A 
ATOM     18  C   UNL     1       5.285   5.562  16.774  0.00  0.00    +0.000 A 
ATOM     19  C   UNL     1       4.728   4.696  17.717  0.00  0.00    +0.000 A 
ATOM     20  C   UNL     1       3.700   5.102  18.567  0.00  0.00    +0.000 A 
ATOM     21  C   UNL     1       3.216   6.416  18.414  0.00  0.00    +0.000 A 
ATOM     22  C   UNL     1       2.347   7.281  19.131  0.00  0.00    +0.000 A 
ENDROOT
BRANCH  10  23
ATOM     23  O   UNL     1      -1.038  14.691  19.329  0.00  0.00    +0.000 OA
ATOM     24  H   UNL     1      -1.331  14.813  18.404  0.00  0.00    +0.000 HD
ENDBRANCH  10  23
BRANCH  11  25
ATOM     25  O   UNL     1      -2.293  13.267  21.301  0.00  0.00    +0.000 OA
ATOM     26  H   UNL     1      -3.047  13.458  20.714  0.00  0.00    +0.000 HD
ENDBRANCH  11  25
BRANCH  18  27
ATOM     27  O   UNL     1       6.447   5.209  16.156  0.00  0.00    +0.000 OA
ATOM     28  H   UNL     1       7.080   5.069  16.889  0.00  0.00    +0.000 HD
ENDBRANCH  18  27
BRANCH  19  29
ATOM     29  O   UNL     1       5.219   3.424  17.824  0.00  0.00    +0.000 OA
ATOM     30  H   UNL     1       4.823   2.916  17.092  0.00  0.00    +0.000 HD
ENDBRANCH  19  29
TORSDOF 4
ENDMDL
MODEL 9
REMARK VINA RESULT:      -7.1      1.494      8.220
REMARK  Name = 
REMARK  4 active torsions:
REMARK  status: ('A' for Active; 'I' for Inactive)
REMARK    1  A    between atoms: C_10  and  O_11
REMARK    2  A    between atoms: C_12  and  O_13
REMARK    3  A    between atoms: C_20  and  O_21
REMARK    4  A    between atoms: C_22  and  O_23
REMARK                            x       y       z     vdW  Elec       q    Type
REMARK                         _______ _______ _______ _____ _____    ______ ____
ROOT
ATOM      1  O   UNL     1       1.069   7.286  21.561  0.00  0.00    +0.000 OA
ATOM      2  C   UNL     1       1.590   7.508  20.477  0.00  0.00    +0.000 C 
ATOM      3  C   UNL     1       2.489   6.422  19.785  0.00  0.00    +0.000 C 
ATOM      4  O   UNL     1       2.527   5.278  20.218  0.00  0.00    +0.000 OA
ATOM      5  C   UNL     1       3.190   6.818  18.570  0.00  0.00    +0.000 A 
ATOM      6  C   UNL     1       2.896   8.026  17.958  0.00  0.00    +0.000 A 
ATOM      7  O   UNL     1       3.550   8.148  16.779  0.00  0.00    +0.000 OA
ATOM      8  C   UNL     1       4.291   7.019  16.631  0.00  0.00    +0.000 A 
ATOM      9  C   UNL     1       5.033   6.715  15.496  0.00  0.00    +0.000 A 
ATOM     10  C   UNL     1       5.676   5.487  15.532  0.00  0.00    +0.000 A 
ATOM     11  C   UNL     1       5.691   4.692  16.677  0.00  0.00    +0.000 A 
ATOM     12  C   UNL     1       4.926   5.008  17.799  0.00  0.00    +0.000 A 
ATOM     13  C   UNL     1       4.163   6.190  17.749  0.00  0.00    +0.000 A 
ATOM     14  C   UNL     1       1.968   8.946  18.507  0.00  0.00    +0.000 A 
ATOM     15  O   UNL     1       1.507  10.079  17.926  0.00  0.00    +0.000 OA
ATOM     16  C   UNL     1       0.613  10.623  18.792  0.00  0.00    +0.000 A 
ATOM     17  C   UNL     1      -0.199  11.722  18.508  0.00  0.00    +0.000 A 
ATOM     18  C   UNL     1      -1.087  12.071  19.505  0.00  0.00    +0.000 A 
ATOM     19  C   UNL     1      -1.053  11.472  20.766  0.00  0.00    +0.000 A 
ATOM     20  C   UNL     1      -0.248  10.364  21.029  0.00  0.00    +0.000 A 
ATOM     21  C   UNL     1       0.562   9.891  19.979  0.00  0.00    +0.000 A 
ATOM     22  C   UNL     1       1.368   8.747  19.739  0.00  0.00    +0.000 A 
ENDROOT
BRANCH  10  23
ATOM     23  O   UNL     1       6.239   5.005  14.384  0.00  0.00    +0.000 OA
ATOM     24  H   UNL     1       5.549   5.141  13.704  0.00  0.00    +0.000 HD
ENDBRANCH  10  23
BRANCH  11  25
ATOM     25  O   UNL     1       6.487   3.580  16.708  0.00  0.00    +0.000 OA
ATOM     26  H   UNL     1       5.943   2.848  16.365  0.00  0.00    +0.000 HD
ENDBRANCH  11  25
BRANCH  18  27
ATOM     27  O   UNL     1      -2.071  12.973  19.227  0.00  0.00    +0.000 OA
ATOM     28  H   UNL     1      -2.621  12.990  20.035  0.00  0.00    +0.000 HD
ENDBRANCH  18  27
BRANCH  19  29
ATOM     29  O   UNL     1      -1.847  11.972  21.762  0.00  0.00    +0.000 OA
ATOM     30  H   UNL     1      -2.195  12.821  21.434  0.00  0.00    +0.000 HD
ENDBRANCH  19  29
TORSDOF 4
ENDMDL
