MODEL 1
REMARK VINA RESULT:      -7.3      0.000      0.000
REMARK  Name = 
REMARK  9 active torsions:
REMARK  status: ('A' for Active; 'I' for Inactive)
REMARK    1  A    between atoms: C_1  and  C_2
REMARK    2  A    between atoms: C_2  and  N_3
REMARK    3  A    between atoms: N_3  and  C_4
REMARK    4  A    between atoms: N_3  and  C_6
REMARK    5  A    between atoms: C_4  and  C_5
REMARK    6  A    between atoms: C_6  and  C_7
REMARK    7  A    between atoms: N_9  and  C_10
REMARK    8  A    between atoms: C_14  and  C_15
REMARK    9  A    between atoms: C_15  and  C_17
REMARK                            x       y       z     vdW  Elec       q    Type
REMARK                         _______ _______ _______ _____ _____    ______ ____
ROOT
ATOM      1  C   UNL     1       3.175   6.608  18.124  0.00  0.00    +0.000 A 
ATOM      2  S   UNL     1       4.464   7.460  17.423  0.00  0.00    +0.000 S 
ATOM      3  C   UNL     1       5.102   6.044  16.746  0.00  0.00    +0.000 A 
ATOM      4  C   UNL     1       4.280   4.939  16.927  0.00  0.00    +0.000 A 
ATOM      5  C   UNL     1       3.115   5.270  17.751  0.00  0.00    +0.000 A 
ATOM      6  C   UNL     1       4.620   3.646  16.230  0.00  0.00    +0.000 C 
ATOM      7  C   UNL     1       6.123   3.541  15.925  0.00  0.00    +0.000 C 
ATOM      8  C   UNL     1       6.617   4.788  15.193  0.00  0.00    +0.000 C 
ATOM      9  C   UNL     1       6.421   6.057  16.032  0.00  0.00    +0.000 C 
ENDROOT
BRANCH   1  12
ATOM     10  C   UNL     1       1.844   8.593  18.459  0.00  0.00    +0.000 C 
ATOM     11  O   UNL     1       1.894   8.953  17.277  0.00  0.00    +0.000 OA
ATOM     12  N   UNL     1       2.398   7.419  18.933  0.00  0.00    +0.000 N 
ATOM     13  H   UNL     1       1.964   6.985  19.732  0.00  0.00    +0.000 HD
BRANCH  10  14
ATOM     14  C   UNL     1       1.130   9.430  19.532  0.00  0.00    +0.000 C 
BRANCH  14  15
ATOM     15  N   UNL     1       0.459  10.649  19.005  0.00  0.00    +0.000 NA
BRANCH  15  17
ATOM     16  C   UNL     1      -1.867  10.227  18.068  0.00  0.00    +0.000 C 
ATOM     17  C   UNL     1      -0.995  10.546  19.279  0.00  0.00    +0.000 C 
ENDBRANCH  15  17
BRANCH  15  18
ATOM     18  C   UNL     1       1.047  11.904  19.516  0.00  0.00    +0.000 C 
ATOM     19  C   UNL     1       2.123  12.561  18.656  0.00  0.00    +0.000 C 
ENDBRANCH  15  18
ENDBRANCH  14  15
ENDBRANCH  10  14
ENDBRANCH   1  12
BRANCH   5  20
ATOM     20  C   UNL     1       1.932   4.431  18.049  0.00  0.00    +0.000 C 
ATOM     21  O   UNL     1       1.060   4.283  17.192  0.00  0.00    +0.000 OA
BRANCH  20  22
ATOM     22  C   UNL     1       1.907   3.746  19.338  0.00  0.00    +0.000 A 
ATOM     23  C   UNL     1       0.867   3.486  20.216  0.00  0.00    +0.000 A 
ATOM     24  C   UNL     1       1.315   2.913  21.445  0.00  0.00    +0.000 A 
ATOM     25  C   UNL     1       2.664   2.644  21.426  0.00  0.00    +0.000 A 
ATOM     26  S   UNL     1       3.385   3.102  19.947  0.00  0.00    +0.000 S 
ENDBRANCH  20  22
ENDBRANCH   5  20
TORSDOF 7
ENDMDL
MODEL 2
REMARK VINA RESULT:      -7.1      1.327      1.657
REMARK  Name = 
REMARK  9 active torsions:
REMARK  status: ('A' for Active; 'I' for Inactive)
REMARK    1  A    between atoms: C_1  and  C_2
REMARK    2  A    between atoms: C_2  and  N_3
REMARK    3  A    between atoms: N_3  and  C_4
REMARK    4  A    between atoms: N_3  and  C_6
REMARK    5  A    between atoms: C_4  and  C_5
REMARK    6  A    between atoms: C_6  and  C_7
REMARK    7  A    between atoms: N_9  and  C_10
REMARK    8  A    between atoms: C_14  and  C_15
REMARK    9  A    between atoms: C_15  and  C_17
REMARK                            x       y       z     vdW  Elec       q    Type
REMARK                         _______ _______ _______ _____ _____    ______ ____
ROOT
ATOM      1  C   UNL     1       3.625   6.099  18.605  0.00  0.00    +0.000 A 
ATOM      2  S   UNL     1       4.880   7.065  17.997  0.00  0.00    +0.000 S 
ATOM      3  C   UNL     1       5.353   5.859  16.906  0.00  0.00    +0.000 A 
ATOM      4  C   UNL     1       4.489   4.771  16.894  0.00  0.00    +0.000 A 
ATOM      5  C   UNL     1       3.443   4.909  17.910  0.00  0.00    +0.000 A 
ATOM      6  C   UNL     1       4.672   3.697  15.851  0.00  0.00    +0.000 C 
ATOM      7  C   UNL     1       6.123   3.630  15.350  0.00  0.00    +0.000 C 
ATOM      8  C   UNL     1       6.611   5.011  14.910  0.00  0.00    +0.000 C 
ATOM      9  C   UNL     1       6.585   6.019  16.066  0.00  0.00    +0.000 C 
ENDROOT
BRANCH   1  12
ATOM     10  C   UNL     1       2.097   7.731  19.513  0.00  0.00    +0.000 C 
ATOM     11  O   UNL     1       1.706   8.133  18.412  0.00  0.00    +0.000 OA
ATOM     12  N   UNL     1       2.992   6.691  19.684  0.00  0.00    +0.000 N 
ATOM     13  H   UNL     1       2.920   6.145  20.528  0.00  0.00    +0.000 HD
BRANCH  10  14
ATOM     14  C   UNL     1       1.598   8.353  20.827  0.00  0.00    +0.000 C 
BRANCH  14  15
ATOM     15  N   UNL     1       0.360   9.167  20.682  0.00  0.00    +0.000 NA
BRANCH  15  17
ATOM     16  C   UNL     1      -0.079   9.555  23.157  0.00  0.00    +0.000 C 
ATOM     17  C   UNL     1      -0.518   8.905  21.847  0.00  0.00    +0.000 C 
ENDBRANCH  15  17
BRANCH  15  18
ATOM     18  C   UNL     1       0.630  10.605  20.486  0.00  0.00    +0.000 C 
ATOM     19  C   UNL     1      -0.504  11.447  19.905  0.00  0.00    +0.000 C 
ENDBRANCH  15  18
ENDBRANCH  14  15
ENDBRANCH  10  14
ENDBRANCH   1  12
BRANCH   5  20
ATOM     20  C   UNL     1       2.250   4.058  18.121  0.00  0.00    +0.000 C 
ATOM     21  O   UNL     1       1.480   3.845  17.183  0.00  0.00    +0.000 OA
BRANCH  20  22
ATOM     22  C   UNL     1       2.097   3.438  19.434  0.00  0.00    +0.000 A 
ATOM     23  C   UNL     1       0.992   3.309  20.261  0.00  0.00    +0.000 A 
ATOM     24  C   UNL     1       1.322   2.759  21.537  0.00  0.00    +0.000 A 
ATOM     25  C   UNL     1       2.641   2.375  21.607  0.00  0.00    +0.000 A 
ATOM     26  S   UNL     1       3.477   2.701  20.154  0.00  0.00    +0.000 S 
ENDBRANCH  20  22
ENDBRANCH   5  20
TORSDOF 7
ENDMDL
MODEL 3
REMARK VINA RESULT:      -7.1      2.321      6.338
REMARK  Name = 
REMARK  9 active torsions:
REMARK  status: ('A' for Active; 'I' for Inactive)
REMARK    1  A    between atoms: C_1  and  C_2
REMARK    2  A    between atoms: C_2  and  N_3
REMARK    3  A    between atoms: N_3  and  C_4
REMARK    4  A    between atoms: N_3  and  C_6
REMARK    5  A    between atoms: C_4  and  C_5
REMARK    6  A    between atoms: C_6  and  C_7
REMARK    7  A    between atoms: N_9  and  C_10
REMARK    8  A    between atoms: C_14  and  C_15
REMARK    9  A    between atoms: C_15  and  C_17
REMARK                            x       y       z     vdW  Elec       q    Type
REMARK                         _______ _______ _______ _____ _____    ______ ____
ROOT
ATOM      1  C   UNL     1       3.009   7.148  17.967  0.00  0.00    +0.000 A 
ATOM      2  S   UNL     1       2.448   8.715  17.644  0.00  0.00    +0.000 S 
ATOM      3  C   UNL     1       1.643   8.791  19.133  0.00  0.00    +0.000 A 
ATOM      4  C   UNL     1       1.900   7.693  19.944  0.00  0.00    +0.000 A 
ATOM      5  C   UNL     1       2.726   6.701  19.252  0.00  0.00    +0.000 A 
ATOM      6  C   UNL     1       1.404   7.697  21.368  0.00  0.00    +0.000 C 
ATOM      7  C   UNL     1       0.178   8.608  21.542  0.00  0.00    +0.000 C 
ATOM      8  C   UNL     1       0.454  10.002  20.978  0.00  0.00    +0.000 C 
ATOM      9  C   UNL     1       0.766   9.958  19.477  0.00  0.00    +0.000 C 
ENDROOT
BRANCH   1  12
ATOM     10  C   UNL     1       5.036   6.767  16.712  0.00  0.00    +0.000 C 
ATOM     11  O   UNL     1       5.777   7.297  17.547  0.00  0.00    +0.000 OA
ATOM     12  N   UNL     1       3.673   6.602  16.882  0.00  0.00    +0.000 N 
ATOM     13  H   UNL     1       3.236   5.818  16.426  0.00  0.00    +0.000 HD
BRANCH  10  14
ATOM     14  C   UNL     1       5.576   6.212  15.385  0.00  0.00    +0.000 C 
BRANCH  14  15
ATOM     15  N   UNL     1       5.511   4.729  15.275  0.00  0.00    +0.000 NA
BRANCH  15  17
ATOM     16  C   UNL     1       5.942   3.648  13.014  0.00  0.00    +0.000 C 
ATOM     17  C   UNL     1       6.514   4.283  14.279  0.00  0.00    +0.000 C 
ENDBRANCH  15  17
BRANCH  15  18
ATOM     18  C   UNL     1       5.657   4.043  16.575  0.00  0.00    +0.000 C 
ATOM     19  C   UNL     1       4.460   3.229  17.062  0.00  0.00    +0.000 C 
ENDBRANCH  15  18
ENDBRANCH  14  15
ENDBRANCH  10  14
ENDBRANCH   1  12
BRANCH   5  20
ATOM     20  C   UNL     1       3.346   5.475  19.805  0.00  0.00    +0.000 C 
ATOM     21  O   UNL     1       4.570   5.418  19.936  0.00  0.00    +0.000 OA
BRANCH  20  22
ATOM     22  C   UNL     1       2.447   4.415  20.251  0.00  0.00    +0.000 A 
ATOM     23  C   UNL     1       2.278   3.820  21.491  0.00  0.00    +0.000 A 
ATOM     24  C   UNL     1       1.384   2.707  21.450  0.00  0.00    +0.000 A 
ATOM     25  C   UNL     1       0.805   2.556  20.210  0.00  0.00    +0.000 A 
ATOM     26  S   UNL     1       1.358   3.733  19.102  0.00  0.00    +0.000 S 
ENDBRANCH  20  22
ENDBRANCH   5  20
TORSDOF 7
ENDMDL
MODEL 4
REMARK VINA RESULT:      -7.0      3.968      7.541
REMARK  Name = 
REMARK  9 active torsions:
REMARK  status: ('A' for Active; 'I' for Inactive)
REMARK    1  A    between atoms: C_1  and  C_2
REMARK    2  A    between atoms: C_2  and  N_3
REMARK    3  A    between atoms: N_3  and  C_4
REMARK    4  A    between atoms: N_3  and  C_6
REMARK    5  A    between atoms: C_4  and  C_5
REMARK    6  A    between atoms: C_6  and  C_7
REMARK    7  A    between atoms: N_9  and  C_10
REMARK    8  A    between atoms: C_14  and  C_15
REMARK    9  A    between atoms: C_15  and  C_17
REMARK                            x       y       z     vdW  Elec       q    Type
REMARK                         _______ _______ _______ _____ _____    ______ ____
ROOT
ATOM      1  C   UNL     1       4.359   3.652  17.159  0.00  0.00    +0.000 A 
ATOM      2  S   UNL     1       3.336   2.302  17.253  0.00  0.00    +0.000 S 
ATOM      3  C   UNL     1       2.476   2.978  18.547  0.00  0.00    +0.000 A 
ATOM      4  C   UNL     1       2.862   4.281  18.832  0.00  0.00    +0.000 A 
ATOM      5  C   UNL     1       3.992   4.698  17.998  0.00  0.00    +0.000 A 
ATOM      6  C   UNL     1       2.070   5.082  19.835  0.00  0.00    +0.000 C 
ATOM      7  C   UNL     1       1.345   4.175  20.843  0.00  0.00    +0.000 C 
ATOM      8  C   UNL     1       0.528   3.104  20.120  0.00  0.00    +0.000 C 
ATOM      9  C   UNL     1       1.414   2.195  19.260  0.00  0.00    +0.000 C 
ENDROOT
BRANCH   1  12
ATOM     10  C   UNL     1       5.481   4.268  15.112  0.00  0.00    +0.000 C 
ATOM     11  O   UNL     1       4.774   5.260  14.900  0.00  0.00    +0.000 OA
ATOM     12  N   UNL     1       5.374   3.469  16.235  0.00  0.00    +0.000 N 
ATOM     13  H   UNL     1       6.205   3.000  16.557  0.00  0.00    +0.000 HD
BRANCH  10  14
ATOM     14  C   UNL     1       6.582   3.833  14.133  0.00  0.00    +0.000 C 
BRANCH  14  15
ATOM     15  N   UNL     1       6.244   4.054  12.701  0.00  0.00    +0.000 NA
BRANCH  15  17
ATOM     16  C   UNL     1       8.177   5.699  12.547  0.00  0.00    +0.000 C 
ATOM     17  C   UNL     1       7.473   4.468  11.982  0.00  0.00    +0.000 C 
ENDBRANCH  15  17
BRANCH  15  18
ATOM     18  C   UNL     1       5.582   2.892  12.074  0.00  0.00    +0.000 C 
ATOM     19  C   UNL     1       4.268   3.159  11.344  0.00  0.00    +0.000 C 
ENDBRANCH  15  18
ENDBRANCH  14  15
ENDBRANCH  10  14
ENDBRANCH   1  12
BRANCH   5  20
ATOM     20  C   UNL     1       4.599   6.043  17.878  0.00  0.00    +0.000 C 
ATOM     21  O   UNL     1       3.902   6.995  17.524  0.00  0.00    +0.000 OA
BRANCH  20  22
ATOM     22  C   UNL     1       5.997   6.182  18.275  0.00  0.00    +0.000 A 
ATOM     23  C   UNL     1       6.747   5.517  19.232  0.00  0.00    +0.000 A 
ATOM     24  C   UNL     1       8.050   6.076  19.396  0.00  0.00    +0.000 A 
ATOM     25  C   UNL     1       8.302   7.072  18.481  0.00  0.00    +0.000 A 
ATOM     26  S   UNL     1       6.965   7.345  17.452  0.00  0.00    +0.000 S 
ENDBRANCH  20  22
ENDBRANCH   5  20
TORSDOF 7
ENDMDL
MODEL 5
REMARK VINA RESULT:      -7.0      2.377      6.396
REMARK  Name = 
REMARK  9 active torsions:
REMARK  status: ('A' for Active; 'I' for Inactive)
REMARK    1  A    between atoms: C_1  and  C_2
REMARK    2  A    between atoms: C_2  and  N_3
REMARK    3  A    between atoms: N_3  and  C_4
REMARK    4  A    between atoms: N_3  and  C_6
REMARK    5  A    between atoms: C_4  and  C_5
REMARK    6  A    between atoms: C_6  and  C_7
REMARK    7  A    between atoms: N_9  and  C_10
REMARK    8  A    between atoms: C_14  and  C_15
REMARK    9  A    between atoms: C_15  and  C_17
REMARK                            x       y       z     vdW  Elec       q    Type
REMARK                         _______ _______ _______ _____ _____    ______ ____
ROOT
ATOM      1  C   UNL     1       3.073   7.115  17.935  0.00  0.00    +0.000 A 
ATOM      2  S   UNL     1       2.506   8.684  17.626  0.00  0.00    +0.000 S 
ATOM      3  C   UNL     1       1.703   8.744  19.117  0.00  0.00    +0.000 A 
ATOM      4  C   UNL     1       1.965   7.641  19.918  0.00  0.00    +0.000 A 
ATOM      5  C   UNL     1       2.793   6.657  19.217  0.00  0.00    +0.000 A 
ATOM      6  C   UNL     1       1.470   7.631  21.343  0.00  0.00    +0.000 C 
ATOM      7  C   UNL     1       0.241   8.536  21.526  0.00  0.00    +0.000 C 
ATOM      8  C   UNL     1       0.511   9.936  20.973  0.00  0.00    +0.000 C 
ATOM      9  C   UNL     1       0.822   9.905  19.471  0.00  0.00    +0.000 C 
ENDROOT
BRANCH   1  12
ATOM     10  C   UNL     1       5.086   6.811  16.638  0.00  0.00    +0.000 C 
ATOM     11  O   UNL     1       5.818   7.396  17.443  0.00  0.00    +0.000 OA
ATOM     12  N   UNL     1       3.738   6.581  16.845  0.00  0.00    +0.000 N 
ATOM     13  H   UNL     1       3.331   5.766  16.416  0.00  0.00    +0.000 HD
BRANCH  10  14
ATOM     14  C   UNL     1       5.621   6.256  15.309  0.00  0.00    +0.000 C 
BRANCH  14  15
ATOM     15  N   UNL     1       6.799   5.358  15.456  0.00  0.00    +0.000 NA
BRANCH  15  17
ATOM     16  C   UNL     1       7.707   4.537  17.685  0.00  0.00    +0.000 C 
ATOM     17  C   UNL     1       6.592   4.494  16.643  0.00  0.00    +0.000 C 
ENDBRANCH  15  17
BRANCH  15  18
ATOM     18  C   UNL     1       7.096   4.584  14.234  0.00  0.00    +0.000 C 
ATOM     19  C   UNL     1       7.717   5.349  13.067  0.00  0.00    +0.000 C 
ENDBRANCH  15  18
ENDBRANCH  14  15
ENDBRANCH  10  14
ENDBRANCH   1  12
BRANCH   5  20
ATOM     20  C   UNL     1       3.418   5.429  19.759  0.00  0.00    +0.000 C 
ATOM     21  O   UNL     1       4.642   5.375  19.886  0.00  0.00    +0.000 OA
BRANCH  20  22
ATOM     22  C   UNL     1       2.523   4.363  20.200  0.00  0.00    +0.000 A 
ATOM     23  C   UNL     1       2.150   3.948  21.469  0.00  0.00    +0.000 A 
ATOM     24  C   UNL     1       1.362   2.758  21.448  0.00  0.00    +0.000 A 
ATOM     25  C   UNL     1       1.056   2.364  20.165  0.00  0.00    +0.000 A 
ATOM     26  S   UNL     1       1.737   3.410  18.999  0.00  0.00    +0.000 S 
ENDBRANCH  20  22
ENDBRANCH   5  20
TORSDOF 7
ENDMDL
MODEL 6
REMARK VINA RESULT:      -6.9      1.013      1.644
REMARK  Name = 
REMARK  9 active torsions:
REMARK  status: ('A' for Active; 'I' for Inactive)
REMARK    1  A    between atoms: C_1  and  C_2
REMARK    2  A    between atoms: C_2  and  N_3
REMARK    3  A    between atoms: N_3  and  C_4
REMARK    4  A    between atoms: N_3  and  C_6
REMARK    5  A    between atoms: C_4  and  C_5
REMARK    6  A    between atoms: C_6  and  C_7
REMARK    7  A    between atoms: N_9  and  C_10
REMARK    8  A    between atoms: C_14  and  C_15
REMARK    9  A    between atoms: C_15  and  C_17
REMARK                            x       y       z     vdW  Elec       q    Type
REMARK                         _______ _______ _______ _____ _____    ______ ____
ROOT
ATOM      1  C   UNL     1       3.282   6.788  18.093  0.00  0.00    +0.000 A 
ATOM      2  S   UNL     1       4.597   7.535  17.326  0.00  0.00    +0.000 S 
ATOM      3  C   UNL     1       5.130   6.061  16.685  0.00  0.00    +0.000 A 
ATOM      4  C   UNL     1       4.250   5.015  16.929  0.00  0.00    +0.000 A 
ATOM      5  C   UNL     1       3.132   5.444  17.772  0.00  0.00    +0.000 A 
ATOM      6  C   UNL     1       4.492   3.679  16.271  0.00  0.00    +0.000 C 
ATOM      7  C   UNL     1       5.976   3.473  15.929  0.00  0.00    +0.000 C 
ATOM      8  C   UNL     1       6.521   4.662  15.137  0.00  0.00    +0.000 C 
ATOM      9  C   UNL     1       6.426   5.969  15.935  0.00  0.00    +0.000 C 
ENDROOT
BRANCH   1  12
ATOM     10  C   UNL     1       1.952   8.784  18.362  0.00  0.00    +0.000 C 
ATOM     11  O   UNL     1       1.867   9.017  17.151  0.00  0.00    +0.000 OA
ATOM     12  N   UNL     1       2.579   7.672  18.893  0.00  0.00    +0.000 N 
ATOM     13  H   UNL     1       2.242   7.321  19.775  0.00  0.00    +0.000 HD
BRANCH  10  14
ATOM     14  C   UNL     1       1.339   9.722  19.413  0.00  0.00    +0.000 C 
BRANCH  14  15
ATOM     15  N   UNL     1      -0.130   9.562  19.587  0.00  0.00    +0.000 NA
BRANCH  15  17
ATOM     16  C   UNL     1       0.531   8.836  21.932  0.00  0.00    +0.000 C 
ATOM     17  C   UNL     1      -0.443   9.596  21.036  0.00  0.00    +0.000 C 
ENDBRANCH  15  17
BRANCH  15  18
ATOM     18  C   UNL     1      -0.918  10.543  18.812  0.00  0.00    +0.000 C 
ATOM     19  C   UNL     1      -1.571  10.040  17.527  0.00  0.00    +0.000 C 
ENDBRANCH  15  18
ENDBRANCH  14  15
ENDBRANCH  10  14
ENDBRANCH   1  12
BRANCH   5  20
ATOM     20  C   UNL     1       1.910   4.689  18.133  0.00  0.00    +0.000 C 
ATOM     21  O   UNL     1       1.026   4.523  17.291  0.00  0.00    +0.000 OA
BRANCH  20  22
ATOM     22  C   UNL     1       1.860   4.100  19.467  0.00  0.00    +0.000 A 
ATOM     23  C   UNL     1       2.181   4.622  20.711  0.00  0.00    +0.000 A 
ATOM     24  C   UNL     1       2.125   3.643  21.748  0.00  0.00    +0.000 A 
ATOM     25  C   UNL     1       1.652   2.434  21.292  0.00  0.00    +0.000 A 
ATOM     26  S   UNL     1       1.302   2.477  19.621  0.00  0.00    +0.000 S 
ENDBRANCH  20  22
ENDBRANCH   5  20
TORSDOF 7
ENDMDL
MODEL 7
REMARK VINA RESULT:      -6.9      4.163      6.794
REMARK  Name = 
REMARK  9 active torsions:
REMARK  status: ('A' for Active; 'I' for Inactive)
REMARK    1  A    between atoms: C_1  and  C_2
REMARK    2  A    between atoms: C_2  and  N_3
REMARK    3  A    between atoms: N_3  and  C_4
REMARK    4  A    between atoms: N_3  and  C_6
REMARK    5  A    between atoms: C_4  and  C_5
REMARK    6  A    between atoms: C_6  and  C_7
REMARK    7  A    between atoms: N_9  and  C_10
REMARK    8  A    between atoms: C_14  and  C_15
REMARK    9  A    between atoms: C_15  and  C_17
REMARK                            x       y       z     vdW  Elec       q    Type
REMARK                         _______ _______ _______ _____ _____    ______ ____
ROOT
ATOM      1  C   UNL     1       5.818   6.776  17.043  0.00  0.00    +0.000 A 
ATOM      2  S   UNL     1       4.535   7.237  18.052  0.00  0.00    +0.000 S 
ATOM      3  C   UNL     1       3.744   5.759  17.811  0.00  0.00    +0.000 A 
ATOM      4  C   UNL     1       4.501   4.853  17.079  0.00  0.00    +0.000 A 
ATOM      5  C   UNL     1       5.753   5.455  16.617  0.00  0.00    +0.000 A 
ATOM      6  C   UNL     1       4.013   3.433  16.933  0.00  0.00    +0.000 C 
ATOM      7  C   UNL     1       2.486   3.338  17.076  0.00  0.00    +0.000 C 
ATOM      8  C   UNL     1       2.016   4.026  18.357  0.00  0.00    +0.000 C 
ATOM      9  C   UNL     1       2.372   5.519  18.366  0.00  0.00    +0.000 C 
ENDROOT
BRANCH   1  12
ATOM     10  C   UNL     1       7.797   8.000  17.687  0.00  0.00    +0.000 C 
ATOM     11  O   UNL     1       8.112   7.220  18.592  0.00  0.00    +0.000 OA
ATOM     12  N   UNL     1       6.717   7.811  16.844  0.00  0.00    +0.000 N 
ATOM     13  H   UNL     1       6.776   8.192  15.914  0.00  0.00    +0.000 HD
BRANCH  10  14
ATOM     14  C   UNL     1       8.606   9.273  17.395  0.00  0.00    +0.000 C 
BRANCH  14  15
ATOM     15  N   UNL     1       8.453  10.339  18.422  0.00  0.00    +0.000 NA
BRANCH  15  17
ATOM     16  C   UNL     1       9.321  11.041  20.707  0.00  0.00    +0.000 C 
ATOM     17  C   UNL     1       9.349  10.032  19.562  0.00  0.00    +0.000 C 
ENDBRANCH  15  17
BRANCH  15  18
ATOM     18  C   UNL     1       8.662  11.699  17.885  0.00  0.00    +0.000 C 
ATOM     19  C   UNL     1      10.098  12.094  17.550  0.00  0.00    +0.000 C 
ENDBRANCH  15  18
ENDBRANCH  14  15
ENDBRANCH  10  14
ENDBRANCH   1  12
BRANCH   5  20
ATOM     20  C   UNL     1       6.898   4.796  15.947  0.00  0.00    +0.000 C 
ATOM     21  O   UNL     1       7.885   4.472  16.608  0.00  0.00    +0.000 OA
BRANCH  20  22
ATOM     22  C   UNL     1       6.752   4.486  14.528  0.00  0.00    +0.000 A 
ATOM     23  C   UNL     1       5.847   3.680  13.855  0.00  0.00    +0.000 A 
ATOM     24  C   UNL     1       6.160   3.540  12.469  0.00  0.00    +0.000 A 
ATOM     25  C   UNL     1       7.221   4.333  12.097  0.00  0.00    +0.000 A 
ATOM     26  S   UNL     1       7.847   5.219  13.417  0.00  0.00    +0.000 S 
ENDBRANCH  20  22
ENDBRANCH   5  20
TORSDOF 7
ENDMDL
MODEL 8
REMARK VINA RESULT:      -6.9      2.282      6.346
REMARK  Name = 
REMARK  9 active torsions:
REMARK  status: ('A' for Active; 'I' for Inactive)
REMARK    1  A    between atoms: C_1  and  C_2
REMARK    2  A    between atoms: C_2  and  N_3
REMARK    3  A    between atoms: N_3  and  C_4
REMARK    4  A    between atoms: N_3  and  C_6
REMARK    5  A    between atoms: C_4  and  C_5
REMARK    6  A    between atoms: C_6  and  C_7
REMARK    7  A    between atoms: N_9  and  C_10
REMARK    8  A    between atoms: C_14  and  C_15
REMARK    9  A    between atoms: C_15  and  C_17
REMARK                            x       y       z     vdW  Elec       q    Type
REMARK                         _______ _______ _______ _____ _____    ______ ____
ROOT
ATOM      1  C   UNL     1       2.929   7.280  17.953  0.00  0.00    +0.000 A 
ATOM      2  S   UNL     1       2.379   8.861  17.678  0.00  0.00    +0.000 S 
ATOM      3  C   UNL     1       1.567   8.894  19.164  0.00  0.00    +0.000 A 
ATOM      4  C   UNL     1       1.813   7.769  19.941  0.00  0.00    +0.000 A 
ATOM      5  C   UNL     1       2.636   6.794  19.222  0.00  0.00    +0.000 A 
ATOM      6  C   UNL     1       1.308   7.730  21.362  0.00  0.00    +0.000 C 
ATOM      7  C   UNL     1       0.087   8.643  21.558  0.00  0.00    +0.000 C 
ATOM      8  C   UNL     1       0.375  10.052  21.041  0.00  0.00    +0.000 C 
ATOM      9  C   UNL     1       0.695  10.055  19.541  0.00  0.00    +0.000 C 
ENDROOT
BRANCH   1  12
ATOM     10  C   UNL     1       4.965   6.898  16.714  0.00  0.00    +0.000 C 
ATOM     11  O   UNL     1       5.706   7.368  17.584  0.00  0.00    +0.000 OA
ATOM     12  N   UNL     1       3.596   6.766  16.854  0.00  0.00    +0.000 N 
ATOM     13  H   UNL     1       3.144   6.016  16.356  0.00  0.00    +0.000 HD
BRANCH  10  14
ATOM     14  C   UNL     1       5.511   6.389  15.371  0.00  0.00    +0.000 C 
BRANCH  14  15
ATOM     15  N   UNL     1       5.693   4.913  15.309  0.00  0.00    +0.000 NA
BRANCH  15  17
ATOM     16  C   UNL     1       6.144   3.677  13.133  0.00  0.00    +0.000 C 
ATOM     17  C   UNL     1       6.663   4.599  14.233  0.00  0.00    +0.000 C 
ENDBRANCH  15  17
BRANCH  15  18
ATOM     18  C   UNL     1       6.070   4.319  16.607  0.00  0.00    +0.000 C 
ATOM     19  C   UNL     1       7.523   4.488  17.046  0.00  0.00    +0.000 C 
ENDBRANCH  15  18
ENDBRANCH  14  15
ENDBRANCH  10  14
ENDBRANCH   1  12
BRANCH   5  20
ATOM     20  C   UNL     1       3.245   5.547  19.738  0.00  0.00    +0.000 C 
ATOM     21  O   UNL     1       4.456   5.509  19.962  0.00  0.00    +0.000 OA
BRANCH  20  22
ATOM     22  C   UNL     1       2.345   4.439  20.039  0.00  0.00    +0.000 A 
ATOM     23  C   UNL     1       1.349   3.838  19.284  0.00  0.00    +0.000 A 
ATOM     24  C   UNL     1       0.603   2.874  20.027  0.00  0.00    +0.000 A 
ATOM     25  C   UNL     1       1.122   2.679  21.286  0.00  0.00    +0.000 A 
ATOM     26  S   UNL     1       2.482   3.671  21.575  0.00  0.00    +0.000 S 
ENDBRANCH  20  22
ENDBRANCH   5  20
TORSDOF 7
ENDMDL
MODEL 9
REMARK VINA RESULT:      -6.7      1.488      1.801
REMARK  Name = 
REMARK  9 active torsions:
REMARK  status: ('A' for Active; 'I' for Inactive)
REMARK    1  A    between atoms: C_1  and  C_2
REMARK    2  A    between atoms: C_2  and  N_3
REMARK    3  A    between atoms: N_3  and  C_4
REMARK    4  A    between atoms: N_3  and  C_6
REMARK    5  A    between atoms: C_4  and  C_5
REMARK    6  A    between atoms: C_6  and  C_7
REMARK    7  A    between atoms: N_9  and  C_10
REMARK    8  A    between atoms: C_14  and  C_15
REMARK    9  A    between atoms: C_15  and  C_17
REMARK                            x       y       z     vdW  Elec       q    Type
REMARK                         _______ _______ _______ _____ _____    ______ ____
ROOT
ATOM      1  C   UNL     1       2.795   6.742  18.015  0.00  0.00    +0.000 A 
ATOM      2  S   UNL     1       4.020   7.687  17.319  0.00  0.00    +0.000 S 
ATOM      3  C   UNL     1       4.887   6.310  16.848  0.00  0.00    +0.000 A 
ATOM      4  C   UNL     1       4.199   5.128  17.089  0.00  0.00    +0.000 A 
ATOM      5  C   UNL     1       2.936   5.379  17.787  0.00  0.00    +0.000 A 
ATOM      6  C   UNL     1       4.758   3.829  16.564  0.00  0.00    +0.000 C 
ATOM      7  C   UNL     1       6.283   3.898  16.380  0.00  0.00    +0.000 C 
ATOM      8  C   UNL     1       6.675   5.122  15.552  0.00  0.00    +0.000 C 
ATOM      9  C   UNL     1       6.250   6.430  16.232  0.00  0.00    +0.000 C 
ENDROOT
BRANCH   1  12
ATOM     10  C   UNL     1       1.786   7.548  20.054  0.00  0.00    +0.000 C 
ATOM     11  O   UNL     1       2.603   6.996  20.800  0.00  0.00    +0.000 OA
ATOM     12  N   UNL     1       1.856   7.517  18.674  0.00  0.00    +0.000 N 
ATOM     13  H   UNL     1       1.474   8.301  18.168  0.00  0.00    +0.000 HD
BRANCH  10  14
ATOM     14  C   UNL     1       0.599   8.352  20.606  0.00  0.00    +0.000 C 
BRANCH  14  15
ATOM     15  N   UNL     1       0.917   9.773  20.913  0.00  0.00    +0.000 NA
BRANCH  15  17
ATOM     16  C   UNL     1      -0.459  10.318  18.845  0.00  0.00    +0.000 C 
ATOM     17  C   UNL     1       0.806  10.564  19.664  0.00  0.00    +0.000 C 
ENDBRANCH  15  17
BRANCH  15  18
ATOM     18  C   UNL     1       0.102  10.327  22.012  0.00  0.00    +0.000 C 
ATOM     19  C   UNL     1      -0.012   9.483  23.279  0.00  0.00    +0.000 C 
ENDBRANCH  15  18
ENDBRANCH  14  15
ENDBRANCH  10  14
ENDBRANCH   1  12
BRANCH   5  20
ATOM     20  C   UNL     1       1.848   4.422  18.090  0.00  0.00    +0.000 C 
ATOM     21  O   UNL     1       1.020   4.146  17.220  0.00  0.00    +0.000 OA
BRANCH  20  22
ATOM     22  C   UNL     1       1.868   3.782  19.402  0.00  0.00    +0.000 A 
ATOM     23  C   UNL     1       0.951   3.799  20.442  0.00  0.00    +0.000 A 
ATOM     24  C   UNL     1       1.441   3.151  21.617  0.00  0.00    +0.000 A 
ATOM     25  C   UNL     1       2.664   2.557  21.406  0.00  0.00    +0.000 A 
ATOM     26  S   UNL     1       3.225   2.803  19.811  0.00  0.00    +0.000 S 
ENDBRANCH  20  22
ENDBRANCH   5  20
TORSDOF 7
ENDMDL
