MODEL 1
REMARK VINA RESULT:      -8.2      0.000      0.000
REMARK  Name = 
REMARK  6 active torsions:
REMARK  status: ('A' for Active; 'I' for Inactive)
REMARK    1  A    between atoms: C_1  and  C_2
REMARK    2  A    between atoms: C_2  and  C_3
REMARK    3  A    between atoms: C_3  and  C_4
REMARK    4  A    between atoms: C_4  and  C_5
REMARK    5  A    between atoms: C_5  and  C_6
REMARK    6  A    between atoms: C_6  and  C_7
REMARK                            x       y       z     vdW  Elec       q    Type
REMARK                         _______ _______ _______ _____ _____    ______ ____
ROOT
ATOM      1  C   UNL     1       2.637   5.834  18.399  0.00  0.00    +0.000 C 
ATOM      2  C   UNL     1       2.280   7.180  17.677  0.00  0.00    +0.000 C 
ATOM      3  C   UNL     1       1.815   8.119  18.731  0.00  0.00    +0.000 A 
ATOM      4  C   UNL     1       1.480   9.455  18.556  0.00  0.00    +0.000 A 
ATOM      5  C   UNL     1       1.099  10.195  19.673  0.00  0.00    +0.000 A 
ATOM      6  C   UNL     1       1.058   9.596  20.945  0.00  0.00    +0.000 A 
ATOM      7  C   UNL     1       1.390   8.247  21.105  0.00  0.00    +0.000 A 
ATOM      8  C   UNL     1       1.766   7.537  19.982  0.00  0.00    +0.000 A 
ATOM      9  C   UNL     1       2.168   6.138  19.853  0.00  0.00    +0.000 C 
ATOM     10  O   UNL     1       2.096   5.359  20.792  0.00  0.00    +0.000 OA
ENDROOT
BRANCH   1  11
ATOM     11  C   UNL     1       4.119   5.451  18.428  0.00  0.00    +0.000 C 
ATOM     12  C   UNL     1       4.952   5.591  19.483  0.00  0.00    +0.000 C 
ATOM     13  C   UNL     1       6.396   5.304  19.180  0.00  0.00    +0.000 C 
ATOM     14  C   UNL     1       6.310   4.981  17.725  0.00  0.00    +0.000 A 
ATOM     15  C   UNL     1       7.359   4.722  16.853  0.00  0.00    +0.000 A 
ATOM     16  C   UNL     1       7.055   4.410  15.531  0.00  0.00    +0.000 A 
ATOM     17  C   UNL     1       5.722   4.284  15.131  0.00  0.00    +0.000 A 
ATOM     18  C   UNL     1       4.678   4.515  16.035  0.00  0.00    +0.000 A 
ATOM     19  C   UNL     1       4.965   4.955  17.319  0.00  0.00    +0.000 A 
ENDBRANCH   1  11
BRANCH   1  20
ATOM     20  C   UNL     1       1.742   4.684  17.849  0.00  0.00    +0.000 C 
BRANCH  20  21
ATOM     21  C   UNL     1       1.935   3.361  18.596  0.00  0.00    +0.000 C 
BRANCH  21  22
ATOM     22  C   UNL     1       2.402   2.209  17.700  0.00  0.00    +0.000 C 
BRANCH  22  24
ATOM     23  C   UNL     1       3.996   2.135  19.685  0.00  0.00    +0.000 C 
ATOM     24  C   UNL     1       3.638   1.558  18.327  0.00  0.00    +0.000 C 
ENDBRANCH  22  24
ENDBRANCH  21  22
ENDBRANCH  20  21
ENDBRANCH   1  20
TORSDOF 5
ENDMDL
MODEL 2
REMARK VINA RESULT:      -7.9      1.234      5.863
REMARK  Name = 
REMARK  6 active torsions:
REMARK  status: ('A' for Active; 'I' for Inactive)
REMARK    1  A    between atoms: C_1  and  C_2
REMARK    2  A    between atoms: C_2  and  C_3
REMARK    3  A    between atoms: C_3  and  C_4
REMARK    4  A    between atoms: C_4  and  C_5
REMARK    5  A    between atoms: C_5  and  C_6
REMARK    6  A    between atoms: C_6  and  C_7
REMARK                            x       y       z     vdW  Elec       q    Type
REMARK                         _______ _______ _______ _____ _____    ______ ____
ROOT
ATOM      1  C   UNL     1       2.838   6.008  19.237  0.00  0.00    +0.000 C 
ATOM      2  C   UNL     1       4.389   5.977  19.469  0.00  0.00    +0.000 C 
ATOM      3  C   UNL     1       4.980   5.283  18.294  0.00  0.00    +0.000 A 
ATOM      4  C   UNL     1       6.333   5.108  18.036  0.00  0.00    +0.000 A 
ATOM      5  C   UNL     1       6.706   4.462  16.859  0.00  0.00    +0.000 A 
ATOM      6  C   UNL     1       5.728   4.002  15.958  0.00  0.00    +0.000 A 
ATOM      7  C   UNL     1       4.368   4.178  16.236  0.00  0.00    +0.000 A 
ATOM      8  C   UNL     1       4.027   4.822  17.409  0.00  0.00    +0.000 A 
ATOM      9  C   UNL     1       2.707   5.148  17.944  0.00  0.00    +0.000 C 
ATOM     10  O   UNL     1       1.682   4.746  17.417  0.00  0.00    +0.000 OA
ENDROOT
BRANCH   1  11
ATOM     11  C   UNL     1       2.217   7.384  18.979  0.00  0.00    +0.000 C 
ATOM     12  C   UNL     1       2.276   8.074  17.818  0.00  0.00    +0.000 C 
ATOM     13  C   UNL     1       1.739   9.475  17.897  0.00  0.00    +0.000 C 
ATOM     14  C   UNL     1       1.355   9.539  19.338  0.00  0.00    +0.000 A 
ATOM     15  C   UNL     1       0.879  10.639  20.039  0.00  0.00    +0.000 A 
ATOM     16  C   UNL     1       0.549  10.473  21.381  0.00  0.00    +0.000 A 
ATOM     17  C   UNL     1       0.622   9.207  21.968  0.00  0.00    +0.000 A 
ATOM     18  C   UNL     1       1.072   8.103  21.234  0.00  0.00    +0.000 A 
ATOM     19  C   UNL     1       1.528   8.279  19.936  0.00  0.00    +0.000 A 
ENDBRANCH   1  11
BRANCH   1  20
ATOM     20  C   UNL     1       2.115   5.243  20.384  0.00  0.00    +0.000 C 
BRANCH  20  21
ATOM     21  C   UNL     1       2.613   3.804  20.557  0.00  0.00    +0.000 C 
BRANCH  21  22
ATOM     22  C   UNL     1       1.500   2.754  20.489  0.00  0.00    +0.000 C 
BRANCH  22  24
ATOM     23  C   UNL     1       3.181   1.700  18.892  0.00  0.00    +0.000 C 
ATOM     24  C   UNL     1       1.717   1.875  19.254  0.00  0.00    +0.000 C 
ENDBRANCH  22  24
ENDBRANCH  21  22
ENDBRANCH  20  21
ENDBRANCH   1  20
TORSDOF 5
ENDMDL
MODEL 3
REMARK VINA RESULT:      -7.9      2.399      5.693
REMARK  Name = 
REMARK  6 active torsions:
REMARK  status: ('A' for Active; 'I' for Inactive)
REMARK    1  A    between atoms: C_1  and  C_2
REMARK    2  A    between atoms: C_2  and  C_3
REMARK    3  A    between atoms: C_3  and  C_4
REMARK    4  A    between atoms: C_4  and  C_5
REMARK    5  A    between atoms: C_5  and  C_6
REMARK    6  A    between atoms: C_6  and  C_7
REMARK                            x       y       z     vdW  Elec       q    Type
REMARK                         _______ _______ _______ _____ _____    ______ ____
ROOT
ATOM      1  C   UNL     1       5.173   5.044  17.017  0.00  0.00    +0.000 C 
ATOM      2  C   UNL     1       6.323   4.833  18.062  0.00  0.00    +0.000 C 
ATOM      3  C   UNL     1       7.072   6.115  18.135  0.00  0.00    +0.000 A 
ATOM      4  C   UNL     1       8.119   6.410  18.997  0.00  0.00    +0.000 A 
ATOM      5  C   UNL     1       8.679   7.685  18.949  0.00  0.00    +0.000 A 
ATOM      6  C   UNL     1       8.189   8.646  18.046  0.00  0.00    +0.000 A 
ATOM      7  C   UNL     1       7.139   8.331  17.176  0.00  0.00    +0.000 A 
ATOM      8  C   UNL     1       6.602   7.061  17.246  0.00  0.00    +0.000 A 
ATOM      9  C   UNL     1       5.510   6.467  16.478  0.00  0.00    +0.000 C 
ATOM     10  O   UNL     1       4.994   7.049  15.537  0.00  0.00    +0.000 OA
ENDROOT
BRANCH   1  11
ATOM     11  C   UNL     1       3.745   5.051  17.571  0.00  0.00    +0.000 C 
ATOM     12  C   UNL     1       3.009   6.151  17.847  0.00  0.00    +0.000 C 
ATOM     13  C   UNL     1       1.711   5.872  18.550  0.00  0.00    +0.000 C 
ATOM     14  C   UNL     1       1.787   4.388  18.685  0.00  0.00    +0.000 A 
ATOM     15  C   UNL     1       0.900   3.552  19.350  0.00  0.00    +0.000 A 
ATOM     16  C   UNL     1       1.143   2.181  19.328  0.00  0.00    +0.000 A 
ATOM     17  C   UNL     1       2.209   1.672  18.581  0.00  0.00    +0.000 A 
ATOM     18  C   UNL     1       3.072   2.530  17.888  0.00  0.00    +0.000 A 
ATOM     19  C   UNL     1       2.920   3.903  18.010  0.00  0.00    +0.000 A 
ENDBRANCH   1  11
BRANCH   1  20
ATOM     20  C   UNL     1       5.340   4.044  15.835  0.00  0.00    +0.000 C 
BRANCH  20  21
ATOM     21  C   UNL     1       6.731   4.092  15.196  0.00  0.00    +0.000 C 
BRANCH  21  22
ATOM     22  C   UNL     1       6.713   4.453  13.707  0.00  0.00    +0.000 C 
BRANCH  22  24
ATOM     23  C   UNL     1       5.960   2.799  11.923  0.00  0.00    +0.000 C 
ATOM     24  C   UNL     1       5.535   3.742  13.034  0.00  0.00    +0.000 C 
ENDBRANCH  22  24
ENDBRANCH  21  22
ENDBRANCH  20  21
ENDBRANCH   1  20
TORSDOF 5
ENDMDL
MODEL 4
REMARK VINA RESULT:      -7.5      1.263      5.880
REMARK  Name = 
REMARK  6 active torsions:
REMARK  status: ('A' for Active; 'I' for Inactive)
REMARK    1  A    between atoms: C_1  and  C_2
REMARK    2  A    between atoms: C_2  and  C_3
REMARK    3  A    between atoms: C_3  and  C_4
REMARK    4  A    between atoms: C_4  and  C_5
REMARK    5  A    between atoms: C_5  and  C_6
REMARK    6  A    between atoms: C_6  and  C_7
REMARK                            x       y       z     vdW  Elec       q    Type
REMARK                         _______ _______ _______ _____ _____    ______ ____
ROOT
ATOM      1  C   UNL     1       3.321   6.243  18.302  0.00  0.00    +0.000 C 
ATOM      2  C   UNL     1       2.511   5.170  17.494  0.00  0.00    +0.000 C 
ATOM      3  C   UNL     1       2.939   3.841  18.004  0.00  0.00    +0.000 A 
ATOM      4  C   UNL     1       2.417   2.609  17.634  0.00  0.00    +0.000 A 
ATOM      5  C   UNL     1       2.918   1.464  18.248  0.00  0.00    +0.000 A 
ATOM      6  C   UNL     1       3.930   1.562  19.220  0.00  0.00    +0.000 A 
ATOM      7  C   UNL     1       4.454   2.809  19.577  0.00  0.00    +0.000 A 
ATOM      8  C   UNL     1       3.937   3.928  18.953  0.00  0.00    +0.000 A 
ATOM      9  C   UNL     1       4.280   5.337  19.131  0.00  0.00    +0.000 C 
ATOM     10  O   UNL     1       5.221   5.687  19.828  0.00  0.00    +0.000 OA
ENDROOT
BRANCH   1  11
ATOM     11  C   UNL     1       2.515   7.119  19.265  0.00  0.00    +0.000 C 
ATOM     12  C   UNL     1       2.114   6.768  20.507  0.00  0.00    +0.000 C 
ATOM     13  C   UNL     1       1.184   7.749  21.163  0.00  0.00    +0.000 C 
ATOM     14  C   UNL     1       1.058   8.770  20.081  0.00  0.00    +0.000 A 
ATOM     15  C   UNL     1       0.238   9.890  20.066  0.00  0.00    +0.000 A 
ATOM     16  C   UNL     1       0.298  10.737  18.962  0.00  0.00    +0.000 A 
ATOM     17  C   UNL     1       1.225  10.495  17.945  0.00  0.00    +0.000 A 
ATOM     18  C   UNL     1       2.068   9.378  17.996  0.00  0.00    +0.000 A 
ATOM     19  C   UNL     1       1.927   8.456  19.023  0.00  0.00    +0.000 A 
ENDBRANCH   1  11
BRANCH   1  20
ATOM     20  C   UNL     1       4.198   7.088  17.331  0.00  0.00    +0.000 C 
BRANCH  20  21
ATOM     21  C   UNL     1       4.883   6.247  16.250  0.00  0.00    +0.000 C 
BRANCH  21  22
ATOM     22  C   UNL     1       6.390   6.076  16.464  0.00  0.00    +0.000 C 
BRANCH  22  24
ATOM     23  C   UNL     1       5.848   3.720  15.666  0.00  0.00    +0.000 C 
ATOM     24  C   UNL     1       6.715   4.583  16.564  0.00  0.00    +0.000 C 
ENDBRANCH  22  24
ENDBRANCH  21  22
ENDBRANCH  20  21
ENDBRANCH   1  20
TORSDOF 5
ENDMDL
MODEL 5
REMARK VINA RESULT:      -7.4      2.468      5.693
REMARK  Name = 
REMARK  6 active torsions:
REMARK  status: ('A' for Active; 'I' for Inactive)
REMARK    1  A    between atoms: C_1  and  C_2
REMARK    2  A    between atoms: C_2  and  C_3
REMARK    3  A    between atoms: C_3  and  C_4
REMARK    4  A    between atoms: C_4  and  C_5
REMARK    5  A    between atoms: C_5  and  C_6
REMARK    6  A    between atoms: C_6  and  C_7
REMARK                            x       y       z     vdW  Elec       q    Type
REMARK                         _______ _______ _______ _____ _____    ______ ____
ROOT
ATOM      1  C   UNL     1       4.987   4.892  17.319  0.00  0.00    +0.000 C 
ATOM      2  C   UNL     1       6.270   4.732  18.207  0.00  0.00    +0.000 C 
ATOM      3  C   UNL     1       6.973   6.042  18.177  0.00  0.00    +0.000 A 
ATOM      4  C   UNL     1       8.111   6.383  18.895  0.00  0.00    +0.000 A 
ATOM      5  C   UNL     1       8.612   7.677  18.770  0.00  0.00    +0.000 A 
ATOM      6  C   UNL     1       7.973   8.611  17.935  0.00  0.00    +0.000 A 
ATOM      7  C   UNL     1       6.832   8.251  17.210  0.00  0.00    +0.000 A 
ATOM      8  C   UNL     1       6.356   6.962  17.353  0.00  0.00    +0.000 A 
ATOM      9  C   UNL     1       5.197   6.321  16.737  0.00  0.00    +0.000 C 
ATOM     10  O   UNL     1       4.542   6.877  15.868  0.00  0.00    +0.000 OA
ENDROOT
BRANCH   1  11
ATOM     11  C   UNL     1       3.644   4.851  18.054  0.00  0.00    +0.000 C 
ATOM     12  C   UNL     1       2.609   5.698  17.859  0.00  0.00    +0.000 C 
ATOM     13  C   UNL     1       1.482   5.544  18.841  0.00  0.00    +0.000 C 
ATOM     14  C   UNL     1       2.022   4.453  19.705  0.00  0.00    +0.000 A 
ATOM     15  C   UNL     1       1.459   3.935  20.864  0.00  0.00    +0.000 A 
ATOM     16  C   UNL     1       2.117   2.890  21.506  0.00  0.00    +0.000 A 
ATOM     17  C   UNL     1       3.268   2.335  20.940  0.00  0.00    +0.000 A 
ATOM     18  C   UNL     1       3.801   2.850  19.752  0.00  0.00    +0.000 A 
ATOM     19  C   UNL     1       3.231   3.974  19.173  0.00  0.00    +0.000 A 
ENDBRANCH   1  11
BRANCH   1  20
ATOM     20  C   UNL     1       5.036   3.888  16.130  0.00  0.00    +0.000 C 
BRANCH  20  21
ATOM     21  C   UNL     1       6.367   3.918  15.371  0.00  0.00    +0.000 C 
BRANCH  21  22
ATOM     22  C   UNL     1       6.265   4.528  13.970  0.00  0.00    +0.000 C 
BRANCH  22  24
ATOM     23  C   UNL     1       5.001   3.431  12.050  0.00  0.00    +0.000 C 
ATOM     24  C   UNL     1       6.234   3.400  12.934  0.00  0.00    +0.000 C 
ENDBRANCH  22  24
ENDBRANCH  21  22
ENDBRANCH  20  21
ENDBRANCH   1  20
TORSDOF 5
ENDMDL
MODEL 6
REMARK VINA RESULT:      -7.3      1.987      5.658
REMARK  Name = 
REMARK  6 active torsions:
REMARK  status: ('A' for Active; 'I' for Inactive)
REMARK    1  A    between atoms: C_1  and  C_2
REMARK    2  A    between atoms: C_2  and  C_3
REMARK    3  A    between atoms: C_3  and  C_4
REMARK    4  A    between atoms: C_4  and  C_5
REMARK    5  A    between atoms: C_5  and  C_6
REMARK    6  A    between atoms: C_6  and  C_7
REMARK                            x       y       z     vdW  Elec       q    Type
REMARK                         _______ _______ _______ _____ _____    ______ ____
ROOT
ATOM      1  C   UNL     1       2.929   6.225  18.712  0.00  0.00    +0.000 C 
ATOM      2  C   UNL     1       3.989   5.312  19.420  0.00  0.00    +0.000 C 
ATOM      3  C   UNL     1       5.315   5.688  18.864  0.00  0.00    +0.000 A 
ATOM      4  C   UNL     1       6.548   5.195  19.268  0.00  0.00    +0.000 A 
ATOM      5  C   UNL     1       7.696   5.694  18.654  0.00  0.00    +0.000 A 
ATOM      6  C   UNL     1       7.598   6.674  17.650  0.00  0.00    +0.000 A 
ATOM      7  C   UNL     1       6.348   7.155  17.247  0.00  0.00    +0.000 A 
ATOM      8  C   UNL     1       5.227   6.645  17.872  0.00  0.00    +0.000 A 
ATOM      9  C   UNL     1       3.817   6.963  17.665  0.00  0.00    +0.000 C 
ATOM     10  O   UNL     1       3.449   7.694  16.758  0.00  0.00    +0.000 OA
ENDROOT
BRANCH   1  11
ATOM     11  C   UNL     1       2.234   7.268  19.592  0.00  0.00    +0.000 C 
ATOM     12  C   UNL     1       2.125   7.220  20.939  0.00  0.00    +0.000 C 
ATOM     13  C   UNL     1       1.238   8.279  21.530  0.00  0.00    +0.000 C 
ATOM     14  C   UNL     1       0.792   8.984  20.292  0.00  0.00    +0.000 A 
ATOM     15  C   UNL     1      -0.135  10.014  20.193  0.00  0.00    +0.000 A 
ATOM     16  C   UNL     1      -0.385  10.555  18.935  0.00  0.00    +0.000 A 
ATOM     17  C   UNL     1       0.347  10.118  17.826  0.00  0.00    +0.000 A 
ATOM     18  C   UNL     1       1.302   9.102  17.955  0.00  0.00    +0.000 A 
ATOM     19  C   UNL     1       1.467   8.464  19.176  0.00  0.00    +0.000 A 
ENDBRANCH   1  11
BRANCH   1  20
ATOM     20  C   UNL     1       1.911   5.347  17.927  0.00  0.00    +0.000 C 
BRANCH  20  21
ATOM     21  C   UNL     1       2.200   3.846  18.035  0.00  0.00    +0.000 C 
BRANCH  21  22
ATOM     22  C   UNL     1       1.104   3.057  18.759  0.00  0.00    +0.000 C 
BRANCH  22  24
ATOM     23  C   UNL     1       1.490   3.016  21.276  0.00  0.00    +0.000 C 
ATOM     24  C   UNL     1       0.821   3.720  20.110  0.00  0.00    +0.000 C 
ENDBRANCH  22  24
ENDBRANCH  21  22
ENDBRANCH  20  21
ENDBRANCH   1  20
TORSDOF 5
ENDMDL
MODEL 7
REMARK VINA RESULT:      -7.3      1.611      4.493
REMARK  Name = 
REMARK  6 active torsions:
REMARK  status: ('A' for Active; 'I' for Inactive)
REMARK    1  A    between atoms: C_1  and  C_2
REMARK    2  A    between atoms: C_2  and  C_3
REMARK    3  A    between atoms: C_3  and  C_4
REMARK    4  A    between atoms: C_4  and  C_5
REMARK    5  A    between atoms: C_5  and  C_6
REMARK    6  A    between atoms: C_6  and  C_7
REMARK                            x       y       z     vdW  Elec       q    Type
REMARK                         _______ _______ _______ _____ _____    ______ ____
ROOT
ATOM      1  C   UNL     1       3.603   5.471  18.259  0.00  0.00    +0.000 C 
ATOM      2  C   UNL     1       3.406   5.633  19.807  0.00  0.00    +0.000 C 
ATOM      3  C   UNL     1       2.605   4.465  20.259  0.00  0.00    +0.000 A 
ATOM      4  C   UNL     1       2.268   4.154  21.569  0.00  0.00    +0.000 A 
ATOM      5  C   UNL     1       1.539   2.991  21.809  0.00  0.00    +0.000 A 
ATOM      6  C   UNL     1       1.158   2.156  20.742  0.00  0.00    +0.000 A 
ATOM      7  C   UNL     1       1.497   2.487  19.426  0.00  0.00    +0.000 A 
ATOM      8  C   UNL     1       2.221   3.645  19.217  0.00  0.00    +0.000 A 
ATOM      9  C   UNL     1       2.714   4.224  17.970  0.00  0.00    +0.000 C 
ATOM     10  O   UNL     1       2.410   3.762  16.881  0.00  0.00    +0.000 OA
ENDROOT
BRANCH   1  11
ATOM     11  C   UNL     1       5.029   5.181  17.783  0.00  0.00    +0.000 C 
ATOM     12  C   UNL     1       6.147   5.262  18.538  0.00  0.00    +0.000 C 
ATOM     13  C   UNL     1       7.430   5.101  17.772  0.00  0.00    +0.000 C 
ATOM     14  C   UNL     1       6.900   4.929  16.387  0.00  0.00    +0.000 A 
ATOM     15  C   UNL     1       7.629   4.830  15.209  0.00  0.00    +0.000 A 
ATOM     16  C   UNL     1       6.934   4.640  14.018  0.00  0.00    +0.000 A 
ATOM     17  C   UNL     1       5.546   4.473  14.037  0.00  0.00    +0.000 A 
ATOM     18  C   UNL     1       4.834   4.541  15.240  0.00  0.00    +0.000 A 
ATOM     19  C   UNL     1       5.498   4.860  16.416  0.00  0.00    +0.000 A 
ENDBRANCH   1  11
BRANCH   1  20
ATOM     20  C   UNL     1       2.969   6.682  17.514  0.00  0.00    +0.000 C 
BRANCH  20  21
ATOM     21  C   UNL     1       2.415   7.751  18.462  0.00  0.00    +0.000 C 
BRANCH  21  22
ATOM     22  C   UNL     1       2.162   9.103  17.787  0.00  0.00    +0.000 C 
BRANCH  22  24
ATOM     23  C   UNL     1       0.672   9.704  19.763  0.00  0.00    +0.000 C 
ATOM     24  C   UNL     1       0.809   9.648  18.252  0.00  0.00    +0.000 C 
ENDBRANCH  22  24
ENDBRANCH  21  22
ENDBRANCH  20  21
ENDBRANCH   1  20
TORSDOF 5
ENDMDL
MODEL 8
REMARK VINA RESULT:      -7.3      1.427      5.888
REMARK  Name = 
REMARK  6 active torsions:
REMARK  status: ('A' for Active; 'I' for Inactive)
REMARK    1  A    between atoms: C_1  and  C_2
REMARK    2  A    between atoms: C_2  and  C_3
REMARK    3  A    between atoms: C_3  and  C_4
REMARK    4  A    between atoms: C_4  and  C_5
REMARK    5  A    between atoms: C_5  and  C_6
REMARK    6  A    between atoms: C_6  and  C_7
REMARK                            x       y       z     vdW  Elec       q    Type
REMARK                         _______ _______ _______ _____ _____    ______ ____
ROOT
ATOM      1  C   UNL     1       3.485   5.791  18.913  0.00  0.00    +0.000 C 
ATOM      2  C   UNL     1       5.042   5.931  19.045  0.00  0.00    +0.000 C 
ATOM      3  C   UNL     1       5.630   5.311  17.829  0.00  0.00    +0.000 A 
ATOM      4  C   UNL     1       6.974   5.287  17.483  0.00  0.00    +0.000 A 
ATOM      5  C   UNL     1       7.340   4.690  16.279  0.00  0.00    +0.000 A 
ATOM      6  C   UNL     1       6.363   4.128  15.437  0.00  0.00    +0.000 A 
ATOM      7  C   UNL     1       5.012   4.151  15.802  0.00  0.00    +0.000 A 
ATOM      8  C   UNL     1       4.678   4.750  17.001  0.00  0.00    +0.000 A 
ATOM      9  C   UNL     1       3.368   4.926  17.622  0.00  0.00    +0.000 C 
ATOM     10  O   UNL     1       2.361   4.414  17.156  0.00  0.00    +0.000 OA
ENDROOT
BRANCH   1  11
ATOM     11  C   UNL     1       2.701   7.090  18.709  0.00  0.00    +0.000 C 
ATOM     12  C   UNL     1       2.706   7.851  17.591  0.00  0.00    +0.000 C 
ATOM     13  C   UNL     1       1.992   9.165  17.728  0.00  0.00    +0.000 C 
ATOM     14  C   UNL     1       1.559   9.093  19.155  0.00  0.00    +0.000 A 
ATOM     15  C   UNL     1       0.925  10.081  19.897  0.00  0.00    +0.000 A 
ATOM     16  C   UNL     1       0.578   9.794  21.214  0.00  0.00    +0.000 A 
ATOM     17  C   UNL     1       0.796   8.514  21.733  0.00  0.00    +0.000 A 
ATOM     18  C   UNL     1       1.406   7.522  20.956  0.00  0.00    +0.000 A 
ATOM     19  C   UNL     1       1.875   7.832  19.688  0.00  0.00    +0.000 A 
ENDBRANCH   1  11
BRANCH   1  20
ATOM     20  C   UNL     1       2.926   4.946  20.095  0.00  0.00    +0.000 C 
BRANCH  20  21
ATOM     21  C   UNL     1       3.550   3.550  20.188  0.00  0.00    +0.000 C 
BRANCH  21  22
ATOM     22  C   UNL     1       2.576   2.416  19.853  0.00  0.00    +0.000 C 
BRANCH  22  24
ATOM     23  C   UNL     1       1.265   2.564  22.031  0.00  0.00    +0.000 C 
ATOM     24  C   UNL     1       1.228   2.701  20.519  0.00  0.00    +0.000 C 
ENDBRANCH  22  24
ENDBRANCH  21  22
ENDBRANCH  20  21
ENDBRANCH   1  20
TORSDOF 5
ENDMDL
MODEL 9
REMARK VINA RESULT:      -7.2      1.507      5.946
REMARK  Name = 
REMARK  6 active torsions:
REMARK  status: ('A' for Active; 'I' for Inactive)
REMARK    1  A    between atoms: C_1  and  C_2
REMARK    2  A    between atoms: C_2  and  C_3
REMARK    3  A    between atoms: C_3  and  C_4
REMARK    4  A    between atoms: C_4  and  C_5
REMARK    5  A    between atoms: C_5  and  C_6
REMARK    6  A    between atoms: C_6  and  C_7
REMARK                            x       y       z     vdW  Elec       q    Type
REMARK                         _______ _______ _______ _____ _____    ______ ____
ROOT
ATOM      1  C   UNL     1       4.299   5.657  17.366  0.00  0.00    +0.000 C 
ATOM      2  C   UNL     1       3.591   4.378  16.798  0.00  0.00    +0.000 C 
ATOM      3  C   UNL     1       3.796   3.298  17.798  0.00  0.00    +0.000 A 
ATOM      4  C   UNL     1       3.265   2.016  17.748  0.00  0.00    +0.000 A 
ATOM      5  C   UNL     1       3.535   1.144  18.801  0.00  0.00    +0.000 A 
ATOM      6  C   UNL     1       4.327   1.561  19.886  0.00  0.00    +0.000 A 
ATOM      7  C   UNL     1       4.863   2.853  19.919  0.00  0.00    +0.000 A 
ATOM      8  C   UNL     1       4.579   3.697  18.864  0.00  0.00    +0.000 A 
ATOM      9  C   UNL     1       4.989   5.081  18.639  0.00  0.00    +0.000 C 
ATOM     10  O   UNL     1       5.788   5.642  19.372  0.00  0.00    +0.000 OA
ENDROOT
BRANCH   1  11
ATOM     11  C   UNL     1       3.382   6.812  17.782  0.00  0.00    +0.000 C 
ATOM     12  C   UNL     1       3.294   8.012  17.166  0.00  0.00    +0.000 C 
ATOM     13  C   UNL     1       2.450   9.023  17.890  0.00  0.00    +0.000 C 
ATOM     14  C   UNL     1       2.047   8.232  19.090  0.00  0.00    +0.000 A 
ATOM     15  C   UNL     1       1.324   8.674  20.191  0.00  0.00    +0.000 A 
ATOM     16  C   UNL     1       1.028   7.757  21.195  0.00  0.00    +0.000 A 
ATOM     17  C   UNL     1       1.383   6.414  21.044  0.00  0.00    +0.000 A 
ATOM     18  C   UNL     1       2.081   5.982  19.910  0.00  0.00    +0.000 A 
ATOM     19  C   UNL     1       2.498   6.907  18.965  0.00  0.00    +0.000 A 
ENDBRANCH   1  11
BRANCH   1  20
ATOM     20  C   UNL     1       5.423   6.119  16.392  0.00  0.00    +0.000 C 
BRANCH  20  21
ATOM     21  C   UNL     1       6.352   4.980  15.960  0.00  0.00    +0.000 C 
BRANCH  21  22
ATOM     22  C   UNL     1       6.636   4.954  14.455  0.00  0.00    +0.000 C 
BRANCH  22  24
ATOM     23  C   UNL     1       6.303   3.489  12.399  0.00  0.00    +0.000 C 
ATOM     24  C   UNL     1       5.867   3.791  13.821  0.00  0.00    +0.000 C 
ENDBRANCH  22  24
ENDBRANCH  21  22
ENDBRANCH  20  21
ENDBRANCH   1  20
TORSDOF 5
ENDMDL
