MODEL 1
REMARK VINA RESULT:      -8.0      0.000      0.000
REMARK  Name = 
REMARK  4 active torsions:
REMARK  status: ('A' for Active; 'I' for Inactive)
REMARK    1  A    between atoms: C_2  and  C_3
REMARK    2  A    between atoms: C_3  and  C_4
REMARK    3  A    between atoms: N_11  and  C_12
REMARK    4  A    between atoms: C_14  and  C_15
REMARK                            x       y       z     vdW  Elec       q    Type
REMARK                         _______ _______ _______ _____ _____    ______ ____
ROOT
ATOM      1  O   UNL     1       2.295   7.783  19.343  0.00  0.00    +0.000 OA
ATOM      2  C   UNL     1       2.757   6.924  18.590  0.00  0.00    +0.000 C 
ATOM      3  N   UNL     1       4.104   6.976  18.305  0.00  0.00    +0.000 N 
ATOM      4  H   UNL     1       4.613   7.693  18.804  0.00  0.00    +0.000 HD
ENDROOT
BRANCH   3   5
ATOM      5  C   UNL     1       4.789   6.190  17.410  0.00  0.00    +0.000 A 
ATOM      6  C   UNL     1       4.973   6.306  16.055  0.00  0.00    +0.000 A 
ATOM      7  C   UNL     1       5.780   5.185  15.698  0.00  0.00    +0.000 A 
ATOM      8  N   UNL     1       6.029   4.434  16.783  0.00  0.00    +0.000 NA
ATOM      9  O   UNL     1       5.414   5.063  17.830  0.00  0.00    +0.000 OA
BRANCH   7  10
ATOM     10  C   UNL     1       6.320   4.834  14.388  0.00  0.00    +0.000 A 
ATOM     11  C   UNL     1       5.708   3.859  13.600  0.00  0.00    +0.000 A 
ATOM     12  C   UNL     1       6.287   3.517  12.383  0.00  0.00    +0.000 A 
ATOM     13  C   UNL     1       7.453   4.157  11.987  0.00  0.00    +0.000 A 
ATOM     14  C   UNL     1       7.988   5.126  12.821  0.00  0.00    +0.000 A 
ATOM     15  N   UNL     1       7.453   5.478  14.011  0.00  0.00    +0.000 NA
ENDBRANCH   7  10
ENDBRANCH   3   5
BRANCH   2  16
ATOM     16  C   UNL     1       1.909   5.832  17.952  0.00  0.00    +0.000 C 
BRANCH  16  17
ATOM     17  C   UNL     1       1.880   4.495  18.640  0.00  0.00    +0.000 A 
ATOM     18  C   UNL     1       1.317   4.367  19.919  0.00  0.00    +0.000 A 
ATOM     19  C   UNL     1       1.181   3.109  20.509  0.00  0.00    +0.000 A 
ATOM     20  C   UNL     1       1.609   1.968  19.830  0.00  0.00    +0.000 A 
ATOM     21  C   UNL     1       2.170   2.086  18.557  0.00  0.00    +0.000 A 
ATOM     22  C   UNL     1       2.298   3.342  17.972  0.00  0.00    +0.000 A 
ATOM     23  F   UNL     1       2.779   3.429  16.725  0.00  0.00    +0.000 F 
ENDBRANCH  16  17
ENDBRANCH   2  16
TORSDOF 4
ENDMDL
MODEL 2
REMARK VINA RESULT:      -7.7      1.013      1.446
REMARK  Name = 
REMARK  4 active torsions:
REMARK  status: ('A' for Active; 'I' for Inactive)
REMARK    1  A    between atoms: C_2  and  C_3
REMARK    2  A    between atoms: C_3  and  C_4
REMARK    3  A    between atoms: N_11  and  C_12
REMARK    4  A    between atoms: C_14  and  C_15
REMARK                            x       y       z     vdW  Elec       q    Type
REMARK                         _______ _______ _______ _____ _____    ______ ____
ROOT
ATOM      1  O   UNL     1       2.300   7.508  19.609  0.00  0.00    +0.000 OA
ATOM      2  C   UNL     1       2.795   6.745  18.776  0.00  0.00    +0.000 C 
ATOM      3  N   UNL     1       4.166   6.743  18.644  0.00  0.00    +0.000 N 
ATOM      4  H   UNL     1       4.655   7.335  19.302  0.00  0.00    +0.000 HD
ENDROOT
BRANCH   3   5
ATOM      5  C   UNL     1       4.903   6.059  17.707  0.00  0.00    +0.000 A 
ATOM      6  C   UNL     1       4.896   6.106  16.335  0.00  0.00    +0.000 A 
ATOM      7  C   UNL     1       5.890   5.165  15.932  0.00  0.00    +0.000 A 
ATOM      8  N   UNL     1       6.431   4.577  17.012  0.00  0.00    +0.000 NA
ATOM      9  O   UNL     1       5.814   5.136  18.097  0.00  0.00    +0.000 OA
BRANCH   7  10
ATOM     10  C   UNL     1       6.339   4.840  14.582  0.00  0.00    +0.000 A 
ATOM     11  C   UNL     1       5.611   3.961  13.779  0.00  0.00    +0.000 A 
ATOM     12  C   UNL     1       6.103   3.636  12.520  0.00  0.00    +0.000 A 
ATOM     13  C   UNL     1       7.301   4.197  12.099  0.00  0.00    +0.000 A 
ATOM     14  C   UNL     1       7.954   5.073  12.951  0.00  0.00    +0.000 A 
ATOM     15  N   UNL     1       7.504   5.406  14.181  0.00  0.00    +0.000 NA
ENDBRANCH   7  10
ENDBRANCH   3   5
BRANCH   2  16
ATOM     16  C   UNL     1       1.965   5.831  17.886  0.00  0.00    +0.000 C 
BRANCH  16  17
ATOM     17  C   UNL     1       1.910   4.375  18.257  0.00  0.00    +0.000 A 
ATOM     18  C   UNL     1       2.488   3.407  17.420  0.00  0.00    +0.000 A 
ATOM     19  C   UNL     1       2.543   2.071  17.819  0.00  0.00    +0.000 A 
ATOM     20  C   UNL     1       2.020   1.687  19.054  0.00  0.00    +0.000 A 
ATOM     21  C   UNL     1       1.445   2.643  19.892  0.00  0.00    +0.000 A 
ATOM     22  C   UNL     1       1.396   3.975  19.491  0.00  0.00    +0.000 A 
ATOM     23  F   UNL     1       0.899   4.887  20.336  0.00  0.00    +0.000 F 
ENDBRANCH  16  17
ENDBRANCH   2  16
TORSDOF 4
ENDMDL
MODEL 3
REMARK VINA RESULT:      -7.6      1.356      1.662
REMARK  Name = 
REMARK  4 active torsions:
REMARK  status: ('A' for Active; 'I' for Inactive)
REMARK    1  A    between atoms: C_2  and  C_3
REMARK    2  A    between atoms: C_3  and  C_4
REMARK    3  A    between atoms: N_11  and  C_12
REMARK    4  A    between atoms: C_14  and  C_15
REMARK                            x       y       z     vdW  Elec       q    Type
REMARK                         _______ _______ _______ _____ _____    ______ ____
ROOT
ATOM      1  O   UNL     1       2.211   7.434  19.548  0.00  0.00    +0.000 OA
ATOM      2  C   UNL     1       2.823   6.626  18.847  0.00  0.00    +0.000 C 
ATOM      3  N   UNL     1       4.065   6.995  18.377  0.00  0.00    +0.000 N 
ATOM      4  H   UNL     1       4.394   7.891  18.712  0.00  0.00    +0.000 HD
ENDROOT
BRANCH   3   5
ATOM      5  C   UNL     1       4.855   6.295  17.497  0.00  0.00    +0.000 A 
ATOM      6  C   UNL     1       4.820   6.193  16.128  0.00  0.00    +0.000 A 
ATOM      7  C   UNL     1       5.902   5.324  15.799  0.00  0.00    +0.000 A 
ATOM      8  N   UNL     1       6.520   4.915  16.919  0.00  0.00    +0.000 NA
ATOM      9  O   UNL     1       5.866   5.520  17.956  0.00  0.00    +0.000 OA
BRANCH   7  10
ATOM     10  C   UNL     1       6.361   4.904  14.478  0.00  0.00    +0.000 A 
ATOM     11  C   UNL     1       5.666   3.933  13.756  0.00  0.00    +0.000 A 
ATOM     12  C   UNL     1       6.168   3.523  12.526  0.00  0.00    +0.000 A 
ATOM     13  C   UNL     1       7.342   4.094  12.052  0.00  0.00    +0.000 A 
ATOM     14  C   UNL     1       7.962   5.062  12.825  0.00  0.00    +0.000 A 
ATOM     15  N   UNL     1       7.502   5.480  14.025  0.00  0.00    +0.000 NA
ENDBRANCH   7  10
ENDBRANCH   3   5
BRANCH   2  16
ATOM     16  C   UNL     1       2.265   5.262  18.466  0.00  0.00    +0.000 C 
BRANCH  16  17
ATOM     17  C   UNL     1       2.396   4.158  19.479  0.00  0.00    +0.000 A 
ATOM     18  C   UNL     1       3.517   3.314  19.467  0.00  0.00    +0.000 A 
ATOM     19  C   UNL     1       3.699   2.368  20.477  0.00  0.00    +0.000 A 
ATOM     20  C   UNL     1       2.764   2.252  21.504  0.00  0.00    +0.000 A 
ATOM     21  C   UNL     1       1.646   3.088  21.524  0.00  0.00    +0.000 A 
ATOM     22  C   UNL     1       1.472   4.033  20.517  0.00  0.00    +0.000 A 
ATOM     23  F   UNL     1       0.427   4.869  20.588  0.00  0.00    +0.000 F 
ENDBRANCH  16  17
ENDBRANCH   2  16
TORSDOF 4
ENDMDL
MODEL 4
REMARK VINA RESULT:      -7.5      2.149      3.097
REMARK  Name = 
REMARK  4 active torsions:
REMARK  status: ('A' for Active; 'I' for Inactive)
REMARK    1  A    between atoms: C_2  and  C_3
REMARK    2  A    between atoms: C_3  and  C_4
REMARK    3  A    between atoms: N_11  and  C_12
REMARK    4  A    between atoms: C_14  and  C_15
REMARK                            x       y       z     vdW  Elec       q    Type
REMARK                         _______ _______ _______ _____ _____    ______ ____
ROOT
ATOM      1  O   UNL     1       6.741   5.164  19.790  0.00  0.00    +0.000 OA
ATOM      2  C   UNL     1       6.325   5.083  18.632  0.00  0.00    +0.000 C 
ATOM      3  N   UNL     1       7.184   4.590  17.675  0.00  0.00    +0.000 N 
ATOM      4  H   UNL     1       8.076   4.272  18.031  0.00  0.00    +0.000 HD
ENDROOT
BRANCH   3   5
ATOM      5  C   UNL     1       6.959   4.525  16.321  0.00  0.00    +0.000 A 
ATOM      6  C   UNL     1       6.277   3.612  15.556  0.00  0.00    +0.000 A 
ATOM      7  C   UNL     1       6.395   4.095  14.218  0.00  0.00    +0.000 A 
ATOM      8  N   UNL     1       7.133   5.216  14.198  0.00  0.00    +0.000 NA
ATOM      9  O   UNL     1       7.474   5.470  15.498  0.00  0.00    +0.000 OA
BRANCH   7  10
ATOM     10  C   UNL     1       5.818   3.539  12.998  0.00  0.00    +0.000 A 
ATOM     11  C   UNL     1       4.586   3.988  12.520  0.00  0.00    +0.000 A 
ATOM     12  C   UNL     1       4.048   3.393  11.385  0.00  0.00    +0.000 A 
ATOM     13  C   UNL     1       4.753   2.373  10.759  0.00  0.00    +0.000 A 
ATOM     14  C   UNL     1       5.977   1.997  11.289  0.00  0.00    +0.000 A 
ATOM     15  N   UNL     1       6.525   2.553  12.393  0.00  0.00    +0.000 NA
ENDBRANCH   7  10
ENDBRANCH   3   5
BRANCH   2  16
ATOM     16  C   UNL     1       4.926   5.518  18.217  0.00  0.00    +0.000 C 
BRANCH  16  17
ATOM     17  C   UNL     1       3.784   4.621  18.606  0.00  0.00    +0.000 A 
ATOM     18  C   UNL     1       3.825   3.250  18.309  0.00  0.00    +0.000 A 
ATOM     19  C   UNL     1       2.823   2.396  18.773  0.00  0.00    +0.000 A 
ATOM     20  C   UNL     1       1.769   2.903  19.534  0.00  0.00    +0.000 A 
ATOM     21  C   UNL     1       1.721   4.265  19.834  0.00  0.00    +0.000 A 
ATOM     22  C   UNL     1       2.725   5.110  19.372  0.00  0.00    +0.000 A 
ATOM     23  F   UNL     1       2.695   6.403  19.725  0.00  0.00    +0.000 F 
ENDBRANCH  16  17
ENDBRANCH   2  16
TORSDOF 4
ENDMDL
MODEL 5
REMARK VINA RESULT:      -7.5      0.628      1.030
REMARK  Name = 
REMARK  4 active torsions:
REMARK  status: ('A' for Active; 'I' for Inactive)
REMARK    1  A    between atoms: C_2  and  C_3
REMARK    2  A    between atoms: C_3  and  C_4
REMARK    3  A    between atoms: N_11  and  C_12
REMARK    4  A    between atoms: C_14  and  C_15
REMARK                            x       y       z     vdW  Elec       q    Type
REMARK                         _______ _______ _______ _____ _____    ______ ____
ROOT
ATOM      1  O   UNL     1       2.316   7.809  19.260  0.00  0.00    +0.000 OA
ATOM      2  C   UNL     1       2.767   6.924  18.530  0.00  0.00    +0.000 C 
ATOM      3  N   UNL     1       4.112   6.960  18.234  0.00  0.00    +0.000 N 
ATOM      4  H   UNL     1       4.629   7.689  18.705  0.00  0.00    +0.000 HD
ENDROOT
BRANCH   3   5
ATOM      5  C   UNL     1       4.785   6.142  17.358  0.00  0.00    +0.000 A 
ATOM      6  C   UNL     1       4.960   6.214  15.999  0.00  0.00    +0.000 A 
ATOM      7  C   UNL     1       5.758   5.077  15.672  0.00  0.00    +0.000 A 
ATOM      8  N   UNL     1       6.011   4.360  16.778  0.00  0.00    +0.000 NA
ATOM      9  O   UNL     1       5.408   5.026  17.809  0.00  0.00    +0.000 OA
BRANCH   7  10
ATOM     10  C   UNL     1       6.285   4.683  14.369  0.00  0.00    +0.000 A 
ATOM     11  C   UNL     1       7.433   5.283  13.851  0.00  0.00    +0.000 A 
ATOM     12  C   UNL     1       7.869   4.917  12.583  0.00  0.00    +0.000 A 
ATOM     13  C   UNL     1       7.153   3.962  11.872  0.00  0.00    +0.000 A 
ATOM     14  C   UNL     1       6.033   3.403  12.466  0.00  0.00    +0.000 A 
ATOM     15  N   UNL     1       5.581   3.741  13.694  0.00  0.00    +0.000 NA
ENDBRANCH   7  10
ENDBRANCH   3   5
BRANCH   2  16
ATOM     16  C   UNL     1       1.908   5.817  17.934  0.00  0.00    +0.000 C 
BRANCH  16  17
ATOM     17  C   UNL     1       1.891   4.497  18.655  0.00  0.00    +0.000 A 
ATOM     18  C   UNL     1       1.344   4.399  19.943  0.00  0.00    +0.000 A 
ATOM     19  C   UNL     1       1.219   3.155  20.565  0.00  0.00    +0.000 A 
ATOM     20  C   UNL     1       1.642   1.999  19.909  0.00  0.00    +0.000 A 
ATOM     21  C   UNL     1       2.187   2.088  18.627  0.00  0.00    +0.000 A 
ATOM     22  C   UNL     1       2.305   3.330  18.011  0.00  0.00    +0.000 A 
ATOM     23  F   UNL     1       2.771   3.387  16.755  0.00  0.00    +0.000 F 
ENDBRANCH  16  17
ENDBRANCH   2  16
TORSDOF 4
ENDMDL
MODEL 6
REMARK VINA RESULT:      -7.5      2.100      3.238
REMARK  Name = 
REMARK  4 active torsions:
REMARK  status: ('A' for Active; 'I' for Inactive)
REMARK    1  A    between atoms: C_2  and  C_3
REMARK    2  A    between atoms: C_3  and  C_4
REMARK    3  A    between atoms: N_11  and  C_12
REMARK    4  A    between atoms: C_14  and  C_15
REMARK                            x       y       z     vdW  Elec       q    Type
REMARK                         _______ _______ _______ _____ _____    ______ ____
ROOT
ATOM      1  O   UNL     1       3.656   2.882  20.634  0.00  0.00    +0.000 OA
ATOM      2  C   UNL     1       3.897   3.382  19.533  0.00  0.00    +0.000 C 
ATOM      3  N   UNL     1       5.195   3.327  19.074  0.00  0.00    +0.000 N 
ATOM      4  H   UNL     1       5.831   2.812  19.667  0.00  0.00    +0.000 HD
ENDROOT
BRANCH   3   5
ATOM      5  C   UNL     1       5.693   3.918  17.937  0.00  0.00    +0.000 A 
ATOM      6  C   UNL     1       5.833   3.447  16.656  0.00  0.00    +0.000 A 
ATOM      7  C   UNL     1       6.407   4.532  15.929  0.00  0.00    +0.000 A 
ATOM      8  N   UNL     1       6.620   5.574  16.749  0.00  0.00    +0.000 NA
ATOM      9  O   UNL     1       6.176   5.183  17.982  0.00  0.00    +0.000 OA
BRANCH   7  10
ATOM     10  C   UNL     1       6.729   4.604  14.507  0.00  0.00    +0.000 A 
ATOM     11  C   UNL     1       6.083   3.780  13.585  0.00  0.00    +0.000 A 
ATOM     12  C   UNL     1       6.458   3.842  12.248  0.00  0.00    +0.000 A 
ATOM     13  C   UNL     1       7.463   4.723  11.870  0.00  0.00    +0.000 A 
ATOM     14  C   UNL     1       8.044   5.517  12.845  0.00  0.00    +0.000 A 
ATOM     15  N   UNL     1       7.704   5.478  14.153  0.00  0.00    +0.000 NA
ENDBRANCH   7  10
ENDBRANCH   3   5
BRANCH   2  16
ATOM     16  C   UNL     1       2.839   4.068  18.679  0.00  0.00    +0.000 C 
BRANCH  16  17
ATOM     17  C   UNL     1       2.640   5.544  18.887  0.00  0.00    +0.000 A 
ATOM     18  C   UNL     1       2.921   6.451  17.853  0.00  0.00    +0.000 A 
ATOM     19  C   UNL     1       2.624   7.806  18.002  0.00  0.00    +0.000 A 
ATOM     20  C   UNL     1       2.049   8.271  19.185  0.00  0.00    +0.000 A 
ATOM     21  C   UNL     1       1.765   7.376  20.217  0.00  0.00    +0.000 A 
ATOM     22  C   UNL     1       2.059   6.025  20.061  0.00  0.00    +0.000 A 
ATOM     23  F   UNL     1       1.720   5.172  21.038  0.00  0.00    +0.000 F 
ENDBRANCH  16  17
ENDBRANCH   2  16
TORSDOF 4
ENDMDL
MODEL 7
REMARK VINA RESULT:      -7.2      3.470      7.317
REMARK  Name = 
REMARK  4 active torsions:
REMARK  status: ('A' for Active; 'I' for Inactive)
REMARK    1  A    between atoms: C_2  and  C_3
REMARK    2  A    between atoms: C_3  and  C_4
REMARK    3  A    between atoms: N_11  and  C_12
REMARK    4  A    between atoms: C_14  and  C_15
REMARK                            x       y       z     vdW  Elec       q    Type
REMARK                         _______ _______ _______ _____ _____    ______ ____
ROOT
ATOM      1  O   UNL     1       4.224   5.194  17.054  0.00  0.00    +0.000 OA
ATOM      2  C   UNL     1       3.272   5.822  17.521  0.00  0.00    +0.000 C 
ATOM      3  N   UNL     1       3.420   7.182  17.688  0.00  0.00    +0.000 N 
ATOM      4  H   UNL     1       4.293   7.558  17.343  0.00  0.00    +0.000 HD
ENDROOT
BRANCH   3   5
ATOM      5  C   UNL     1       2.531   8.040  18.291  0.00  0.00    +0.000 A 
ATOM      6  C   UNL     1       2.093   8.129  19.589  0.00  0.00    +0.000 A 
ATOM      7  C   UNL     1       1.181   9.225  19.592  0.00  0.00    +0.000 A 
ATOM      8  N   UNL     1       1.067   9.733  18.354  0.00  0.00    +0.000 NA
ATOM      9  O   UNL     1       1.904   8.995  17.563  0.00  0.00    +0.000 OA
BRANCH   7  10
ATOM     10  C   UNL     1       0.452   9.797  20.721  0.00  0.00    +0.000 A 
ATOM     11  C   UNL     1       0.258   9.064  21.892  0.00  0.00    +0.000 A 
ATOM     12  C   UNL     1      -0.489   9.625  22.921  0.00  0.00    +0.000 A 
ATOM     13  C   UNL     1      -1.018  10.898  22.753  0.00  0.00    +0.000 A 
ATOM     14  C   UNL     1      -0.766  11.565  21.565  0.00  0.00    +0.000 A 
ATOM     15  N   UNL     1      -0.047  11.046  20.545  0.00  0.00    +0.000 NA
ENDBRANCH   7  10
ENDBRANCH   3   5
BRANCH   2  16
ATOM     16  C   UNL     1       1.963   5.165  17.936  0.00  0.00    +0.000 C 
BRANCH  16  17
ATOM     17  C   UNL     1       2.008   4.227  19.112  0.00  0.00    +0.000 A 
ATOM     18  C   UNL     1       2.040   4.732  20.421  0.00  0.00    +0.000 A 
ATOM     19  C   UNL     1       1.962   3.867  21.514  0.00  0.00    +0.000 A 
ATOM     20  C   UNL     1       1.854   2.491  21.311  0.00  0.00    +0.000 A 
ATOM     21  C   UNL     1       1.820   1.981  20.012  0.00  0.00    +0.000 A 
ATOM     22  C   UNL     1       1.894   2.849  18.926  0.00  0.00    +0.000 A 
ATOM     23  F   UNL     1       1.796   2.346  17.688  0.00  0.00    +0.000 F 
ENDBRANCH  16  17
ENDBRANCH   2  16
TORSDOF 4
ENDMDL
MODEL 8
REMARK VINA RESULT:      -7.2      1.192      1.773
REMARK  Name = 
REMARK  4 active torsions:
REMARK  status: ('A' for Active; 'I' for Inactive)
REMARK    1  A    between atoms: C_2  and  C_3
REMARK    2  A    between atoms: C_3  and  C_4
REMARK    3  A    between atoms: N_11  and  C_12
REMARK    4  A    between atoms: C_14  and  C_15
REMARK                            x       y       z     vdW  Elec       q    Type
REMARK                         _______ _______ _______ _____ _____    ______ ____
ROOT
ATOM      1  O   UNL     1       2.436   7.449  19.624  0.00  0.00    +0.000 OA
ATOM      2  C   UNL     1       2.879   6.662  18.785  0.00  0.00    +0.000 C 
ATOM      3  N   UNL     1       4.245   6.609  18.613  0.00  0.00    +0.000 N 
ATOM      4  H   UNL     1       4.774   7.187  19.252  0.00  0.00    +0.000 HD
ENDROOT
BRANCH   3   5
ATOM      5  C   UNL     1       4.928   5.890  17.661  0.00  0.00    +0.000 A 
ATOM      6  C   UNL     1       4.966   5.999  16.294  0.00  0.00    +0.000 A 
ATOM      7  C   UNL     1       5.862   4.974  15.869  0.00  0.00    +0.000 A 
ATOM      8  N   UNL     1       6.304   4.281  16.931  0.00  0.00    +0.000 NA
ATOM      9  O   UNL     1       5.722   4.855  18.028  0.00  0.00    +0.000 OA
BRANCH   7  10
ATOM     10  C   UNL     1       6.310   4.662  14.516  0.00  0.00    +0.000 A 
ATOM     11  C   UNL     1       7.440   5.279  13.977  0.00  0.00    +0.000 A 
ATOM     12  C   UNL     1       7.800   4.995  12.665  0.00  0.00    +0.000 A 
ATOM     13  C   UNL     1       7.027   4.104  11.931  0.00  0.00    +0.000 A 
ATOM     14  C   UNL     1       5.929   3.523  12.546  0.00  0.00    +0.000 A 
ATOM     15  N   UNL     1       5.551   3.782  13.817  0.00  0.00    +0.000 NA
ENDBRANCH   7  10
ENDBRANCH   3   5
BRANCH   2  16
ATOM     16  C   UNL     1       1.990   5.772  17.926  0.00  0.00    +0.000 C 
BRANCH  16  17
ATOM     17  C   UNL     1       1.896   4.321  18.310  0.00  0.00    +0.000 A 
ATOM     18  C   UNL     1       2.430   3.329  17.473  0.00  0.00    +0.000 A 
ATOM     19  C   UNL     1       2.450   1.995  17.882  0.00  0.00    +0.000 A 
ATOM     20  C   UNL     1       1.934   1.637  19.127  0.00  0.00    +0.000 A 
ATOM     21  C   UNL     1       1.401   2.617  19.966  0.00  0.00    +0.000 A 
ATOM     22  C   UNL     1       1.388   3.946  19.555  0.00  0.00    +0.000 A 
ATOM     23  F   UNL     1       0.932   4.881  20.400  0.00  0.00    +0.000 F 
ENDBRANCH  16  17
ENDBRANCH   2  16
TORSDOF 4
ENDMDL
MODEL 9
REMARK VINA RESULT:      -7.2      1.789      2.661
REMARK  Name = 
REMARK  4 active torsions:
REMARK  status: ('A' for Active; 'I' for Inactive)
REMARK    1  A    between atoms: C_2  and  C_3
REMARK    2  A    between atoms: C_3  and  C_4
REMARK    3  A    between atoms: N_11  and  C_12
REMARK    4  A    between atoms: C_14  and  C_15
REMARK                            x       y       z     vdW  Elec       q    Type
REMARK                         _______ _______ _______ _____ _____    ______ ____
ROOT
ATOM      1  O   UNL     1       6.045   5.533  19.726  0.00  0.00    +0.000 OA
ATOM      2  C   UNL     1       5.765   5.316  18.545  0.00  0.00    +0.000 C 
ATOM      3  N   UNL     1       6.781   4.909  17.709  0.00  0.00    +0.000 N 
ATOM      4  H   UNL     1       7.671   4.761  18.166  0.00  0.00    +0.000 HD
ENDROOT
BRANCH   3   5
ATOM      5  C   UNL     1       6.706   4.726  16.349  0.00  0.00    +0.000 A 
ATOM      6  C   UNL     1       6.052   3.785  15.593  0.00  0.00    +0.000 A 
ATOM      7  C   UNL     1       6.353   4.128  14.241  0.00  0.00    +0.000 A 
ATOM      8  N   UNL     1       7.166   5.196  14.208  0.00  0.00    +0.000 NA
ATOM      9  O   UNL     1       7.375   5.555  15.511  0.00  0.00    +0.000 OA
BRANCH   7  10
ATOM     10  C   UNL     1       5.880   3.491  13.016  0.00  0.00    +0.000 A 
ATOM     11  C   UNL     1       6.719   2.662  12.271  0.00  0.00    +0.000 A 
ATOM     12  C   UNL     1       6.246   2.120  11.082  0.00  0.00    +0.000 A 
ATOM     13  C   UNL     1       4.953   2.417  10.672  0.00  0.00    +0.000 A 
ATOM     14  C   UNL     1       4.179   3.236  11.478  0.00  0.00    +0.000 A 
ATOM     15  N   UNL     1       4.610   3.782  12.638  0.00  0.00    +0.000 NA
ENDBRANCH   7  10
ENDBRANCH   3   5
BRANCH   2  16
ATOM     16  C   UNL     1       4.365   5.495  17.974  0.00  0.00    +0.000 C 
BRANCH  16  17
ATOM     17  C   UNL     1       3.229   4.858  18.726  0.00  0.00    +0.000 A 
ATOM     18  C   UNL     1       2.876   5.320  20.003  0.00  0.00    +0.000 A 
ATOM     19  C   UNL     1       1.750   4.811  20.652  0.00  0.00    +0.000 A 
ATOM     20  C   UNL     1       0.968   3.835  20.035  0.00  0.00    +0.000 A 
ATOM     21  C   UNL     1       1.312   3.371  18.765  0.00  0.00    +0.000 A 
ATOM     22  C   UNL     1       2.433   3.885  18.121  0.00  0.00    +0.000 A 
ATOM     23  F   UNL     1       2.709   3.473  16.876  0.00  0.00    +0.000 F 
ENDBRANCH  16  17
ENDBRANCH   2  16
TORSDOF 4
ENDMDL
