MODEL 1
REMARK VINA RESULT:      -7.7      0.000      0.000
REMARK  Name = 
REMARK  6 active torsions:
REMARK  status: ('A' for Active; 'I' for Inactive)
REMARK    1  A    between atoms: C_1  and  C_2
REMARK    2  A    between atoms: C_2  and  C_3
REMARK    3  A    between atoms: C_3  and  C_4
REMARK    4  A    between atoms: C_6  and  C_7
REMARK    5  A    between atoms: N_9  and  C_10
REMARK    6  A    between atoms: N_9  and  C_16
REMARK                            x       y       z     vdW  Elec       q    Type
REMARK                         _______ _______ _______ _____ _____    ______ ____
ROOT
ATOM      1  C   UNL     1       4.468   6.147  16.974  0.00  0.00    +0.000 C 
ATOM      2  O   UNL     1       4.599   7.350  17.220  0.00  0.00    +0.000 OA
ATOM      3  N   UNL     1       3.375   5.444  17.560  0.00  0.00    +0.000 N 
ENDROOT
BRANCH   3   4
ATOM      4  C   UNL     1       2.871   4.048  17.387  0.00  0.00    +0.000 C 
ATOM      5  C   UNL     1       3.853   2.970  17.852  0.00  0.00    +0.000 C 
ATOM      6  C   UNL     1       3.616   2.535  19.280  0.00  0.00    +0.000 C 
ATOM      7  C   UNL     1       2.175   2.085  19.507  0.00  0.00    +0.000 C 
ATOM      8  C   UNL     1       1.091   3.025  18.977  0.00  0.00    +0.000 C 
ATOM      9  C   UNL     1       1.404   3.709  17.657  0.00  0.00    +0.000 C 
ENDBRANCH   3   4
BRANCH   1  12
ATOM     10  C   UNL     1       6.493   4.488  14.435  0.00  0.00    +0.000 A 
ATOM     11  C   UNL     1       5.328   5.093  14.827  0.00  0.00    +0.000 A 
ATOM     12  C   UNL     1       5.554   5.579  16.157  0.00  0.00    +0.000 A 
ATOM     13  N   UNL     1       6.773   5.193  16.559  0.00  0.00    +0.000 NA
ATOM     14  O   UNL     1       7.377   4.568  15.468  0.00  0.00    +0.000 OA
BRANCH  10  15
ATOM     15  C   UNL     1       6.922   3.874  13.147  0.00  0.00    +0.000 C 
BRANCH  15  17
ATOM     16  C   UNL     1       6.177   2.059  11.489  0.00  0.00    +0.000 C 
ATOM     17  C   UNL     1       5.820   3.337  12.234  0.00  0.00    +0.000 C 
ENDBRANCH  15  17
ENDBRANCH  10  15
ENDBRANCH   1  12
BRANCH   3  18
ATOM     18  C   UNL     1       2.485   6.275  18.416  0.00  0.00    +0.000 C 
ATOM     19  C   UNL     1       2.845   6.329  19.905  0.00  0.00    +0.000 C 
ATOM     20  C   UNL     1       1.982   7.469  20.426  0.00  0.00    +0.000 C 
ATOM     21  C   UNL     1       1.819   8.448  19.263  0.00  0.00    +0.000 C 
ATOM     22  C   UNL     1       2.313   7.740  18.001  0.00  0.00    +0.000 C 
ENDBRANCH   3  18
TORSDOF 5
ENDMDL
MODEL 2
REMARK VINA RESULT:      -7.6      1.104      1.814
REMARK  Name = 
REMARK  6 active torsions:
REMARK  status: ('A' for Active; 'I' for Inactive)
REMARK    1  A    between atoms: C_1  and  C_2
REMARK    2  A    between atoms: C_2  and  C_3
REMARK    3  A    between atoms: C_3  and  C_4
REMARK    4  A    between atoms: C_6  and  C_7
REMARK    5  A    between atoms: N_9  and  C_10
REMARK    6  A    between atoms: N_9  and  C_16
REMARK                            x       y       z     vdW  Elec       q    Type
REMARK                         _______ _______ _______ _____ _____    ______ ____
ROOT
ATOM      1  C   UNL     1       4.384   6.581  17.585  0.00  0.00    +0.000 C 
ATOM      2  O   UNL     1       4.696   7.757  17.371  0.00  0.00    +0.000 OA
ATOM      3  N   UNL     1       3.345   6.310  18.523  0.00  0.00    +0.000 N 
ENDROOT
BRANCH   3   4
ATOM      4  C   UNL     1       2.660   5.043  18.923  0.00  0.00    +0.000 C 
ATOM      5  C   UNL     1       1.804   4.424  17.816  0.00  0.00    +0.000 C 
ATOM      6  C   UNL     1       2.550   3.387  17.006  0.00  0.00    +0.000 C 
ATOM      7  C   UNL     1       3.156   2.300  17.891  0.00  0.00    +0.000 C 
ATOM      8  C   UNL     1       3.941   2.792  19.108  0.00  0.00    +0.000 C 
ATOM      9  C   UNL     1       3.372   4.016  19.805  0.00  0.00    +0.000 C 
ENDBRANCH   3   4
BRANCH   1  12
ATOM     10  C   UNL     1       5.908   4.293  15.189  0.00  0.00    +0.000 A 
ATOM     11  C   UNL     1       5.115   5.375  15.471  0.00  0.00    +0.000 A 
ATOM     12  C   UNL     1       5.227   5.599  16.883  0.00  0.00    +0.000 A 
ATOM     13  N   UNL     1       5.983   4.630  17.418  0.00  0.00    +0.000 NA
ATOM     14  O   UNL     1       6.454   3.856  16.358  0.00  0.00    +0.000 OA
BRANCH  10  15
ATOM     15  C   UNL     1       6.283   3.629  13.909  0.00  0.00    +0.000 C 
BRANCH  15  17
ATOM     16  C   UNL     1       5.352   2.665  11.718  0.00  0.00    +0.000 C 
ATOM     17  C   UNL     1       5.320   3.798  12.734  0.00  0.00    +0.000 C 
ENDBRANCH  15  17
ENDBRANCH  10  15
ENDBRANCH   1  12
BRANCH   3  18
ATOM     18  C   UNL     1       2.731   7.517  19.141  0.00  0.00    +0.000 C 
ATOM     19  C   UNL     1       1.841   8.362  18.224  0.00  0.00    +0.000 C 
ATOM     20  C   UNL     1       1.134   9.296  19.196  0.00  0.00    +0.000 C 
ATOM     21  C   UNL     1       1.001   8.525  20.509  0.00  0.00    +0.000 C 
ATOM     22  C   UNL     1       1.890   7.285  20.400  0.00  0.00    +0.000 C 
ENDBRANCH   3  18
TORSDOF 5
ENDMDL
MODEL 3
REMARK VINA RESULT:      -7.6      2.066      3.671
REMARK  Name = 
REMARK  6 active torsions:
REMARK  status: ('A' for Active; 'I' for Inactive)
REMARK    1  A    between atoms: C_1  and  C_2
REMARK    2  A    between atoms: C_2  and  C_3
REMARK    3  A    between atoms: C_3  and  C_4
REMARK    4  A    between atoms: C_6  and  C_7
REMARK    5  A    between atoms: N_9  and  C_10
REMARK    6  A    between atoms: N_9  and  C_16
REMARK                            x       y       z     vdW  Elec       q    Type
REMARK                         _______ _______ _______ _____ _____    ______ ____
ROOT
ATOM      1  C   UNL     1       4.610   3.576  17.133  0.00  0.00    +0.000 C 
ATOM      2  O   UNL     1       4.000   2.506  17.041  0.00  0.00    +0.000 OA
ATOM      3  N   UNL     1       4.338   4.425  18.246  0.00  0.00    +0.000 N 
ENDROOT
BRANCH   3   4
ATOM      4  C   UNL     1       4.962   5.702  18.710  0.00  0.00    +0.000 C 
ATOM      5  C   UNL     1       6.254   5.507  19.506  0.00  0.00    +0.000 C 
ATOM      6  C   UNL     1       7.494   5.590  18.645  0.00  0.00    +0.000 C 
ATOM      7  C   UNL     1       7.546   6.887  17.842  0.00  0.00    +0.000 C 
ATOM      8  C   UNL     1       6.266   7.259  17.092  0.00  0.00    +0.000 C 
ATOM      9  C   UNL     1       4.967   6.939  17.812  0.00  0.00    +0.000 C 
ENDBRANCH   3   4
BRANCH   1  12
ATOM     10  C   UNL     1       6.182   3.844  13.853  0.00  0.00    +0.000 A 
ATOM     11  C   UNL     1       5.077   3.634  14.635  0.00  0.00    +0.000 A 
ATOM     12  C   UNL     1       5.491   3.866  15.988  0.00  0.00    +0.000 A 
ATOM     13  N   UNL     1       6.808   4.110  16.003  0.00  0.00    +0.000 NA
ATOM     14  O   UNL     1       7.224   4.156  14.673  0.00  0.00    +0.000 OA
BRANCH  10  15
ATOM     15  C   UNL     1       6.382   3.848  12.376  0.00  0.00    +0.000 C 
BRANCH  15  17
ATOM     16  C   UNL     1       5.928   1.546  11.331  0.00  0.00    +0.000 C 
ATOM     17  C   UNL     1       5.442   2.973  11.548  0.00  0.00    +0.000 C 
ENDBRANCH  15  17
ENDBRANCH  10  15
ENDBRANCH   1  12
BRANCH   3  18
ATOM     18  C   UNL     1       3.328   3.897  19.202  0.00  0.00    +0.000 C 
ATOM     19  C   UNL     1       3.828   2.837  20.189  0.00  0.00    +0.000 C 
ATOM     20  C   UNL     1       2.693   2.743  21.198  0.00  0.00    +0.000 C 
ATOM     21  C   UNL     1       2.053   4.131  21.251  0.00  0.00    +0.000 C 
ATOM     22  C   UNL     1       2.603   4.930  20.069  0.00  0.00    +0.000 C 
ENDBRANCH   3  18
TORSDOF 5
ENDMDL
MODEL 4
REMARK VINA RESULT:      -7.5      2.115      6.093
REMARK  Name = 
REMARK  6 active torsions:
REMARK  status: ('A' for Active; 'I' for Inactive)
REMARK    1  A    between atoms: C_1  and  C_2
REMARK    2  A    between atoms: C_2  and  C_3
REMARK    3  A    between atoms: C_3  and  C_4
REMARK    4  A    between atoms: C_6  and  C_7
REMARK    5  A    between atoms: N_9  and  C_10
REMARK    6  A    between atoms: N_9  and  C_16
REMARK                            x       y       z     vdW  Elec       q    Type
REMARK                         _______ _______ _______ _____ _____    ______ ____
ROOT
ATOM      1  C   UNL     1       3.586   6.763  17.929  0.00  0.00    +0.000 C 
ATOM      2  O   UNL     1       4.656   7.338  17.703  0.00  0.00    +0.000 OA
ATOM      3  N   UNL     1       3.449   5.397  17.543  0.00  0.00    +0.000 N 
ENDROOT
BRANCH   3   4
ATOM      4  C   UNL     1       2.360   4.397  17.764  0.00  0.00    +0.000 C 
ATOM      5  C   UNL     1       2.608   3.049  17.082  0.00  0.00    +0.000 C 
ATOM      6  C   UNL     1       3.276   2.044  17.992  0.00  0.00    +0.000 C 
ATOM      7  C   UNL     1       2.507   1.855  19.296  0.00  0.00    +0.000 C 
ATOM      8  C   UNL     1       2.093   3.138  20.019  0.00  0.00    +0.000 C 
ATOM      9  C   UNL     1       1.666   4.287  19.122  0.00  0.00    +0.000 C 
ENDBRANCH   3   4
BRANCH   1  12
ATOM     10  C   UNL     1       1.214   9.434  18.665  0.00  0.00    +0.000 A 
ATOM     11  C   UNL     1       2.020   8.760  17.785  0.00  0.00    +0.000 A 
ATOM     12  C   UNL     1       2.545   7.634  18.501  0.00  0.00    +0.000 A 
ATOM     13  N   UNL     1       2.134   7.700  19.775  0.00  0.00    +0.000 NA
ATOM     14  O   UNL     1       1.260   8.783  19.860  0.00  0.00    +0.000 OA
BRANCH  10  15
ATOM     15  C   UNL     1       0.325  10.619  18.506  0.00  0.00    +0.000 C 
BRANCH  15  17
ATOM     16  C   UNL     1      -1.764   9.948  17.171  0.00  0.00    +0.000 C 
ATOM     17  C   UNL     1      -1.181  10.362  18.515  0.00  0.00    +0.000 C 
ENDBRANCH  15  17
ENDBRANCH  10  15
ENDBRANCH   1  12
BRANCH   3  18
ATOM     18  C   UNL     1       4.655   4.805  16.904  0.00  0.00    +0.000 C 
ATOM     19  C   UNL     1       5.167   5.516  15.647  0.00  0.00    +0.000 C 
ATOM     20  C   UNL     1       6.538   4.892  15.433  0.00  0.00    +0.000 C 
ATOM     21  C   UNL     1       7.063   4.525  16.821  0.00  0.00    +0.000 C 
ATOM     22  C   UNL     1       5.891   4.646  17.796  0.00  0.00    +0.000 C 
ENDBRANCH   3  18
TORSDOF 5
ENDMDL
MODEL 5
REMARK VINA RESULT:      -7.5      2.106      6.147
REMARK  Name = 
REMARK  6 active torsions:
REMARK  status: ('A' for Active; 'I' for Inactive)
REMARK    1  A    between atoms: C_1  and  C_2
REMARK    2  A    between atoms: C_2  and  C_3
REMARK    3  A    between atoms: C_3  and  C_4
REMARK    4  A    between atoms: C_6  and  C_7
REMARK    5  A    between atoms: N_9  and  C_10
REMARK    6  A    between atoms: N_9  and  C_16
REMARK                            x       y       z     vdW  Elec       q    Type
REMARK                         _______ _______ _______ _____ _____    ______ ____
ROOT
ATOM      1  C   UNL     1       3.701   6.602  18.027  0.00  0.00    +0.000 C 
ATOM      2  O   UNL     1       4.455   7.124  17.199  0.00  0.00    +0.000 OA
ATOM      3  N   UNL     1       3.859   5.215  18.317  0.00  0.00    +0.000 N 
ENDROOT
BRANCH   3   4
ATOM      4  C   UNL     1       3.208   4.319  19.321  0.00  0.00    +0.000 C 
ATOM      5  C   UNL     1       1.684   4.261  19.205  0.00  0.00    +0.000 C 
ATOM      6  C   UNL     1       1.202   3.113  18.348  0.00  0.00    +0.000 C 
ATOM      7  C   UNL     1       1.759   1.773  18.823  0.00  0.00    +0.000 C 
ATOM      8  C   UNL     1       3.264   1.734  19.092  0.00  0.00    +0.000 C 
ATOM      9  C   UNL     1       3.853   2.989  19.713  0.00  0.00    +0.000 C 
ENDBRANCH   3   4
BRANCH   1  12
ATOM     10  C   UNL     1       1.354   9.330  18.612  0.00  0.00    +0.000 A 
ATOM     11  C   UNL     1       2.181   8.623  17.779  0.00  0.00    +0.000 A 
ATOM     12  C   UNL     1       2.655   7.504  18.538  0.00  0.00    +0.000 A 
ATOM     13  N   UNL     1       2.196   7.604  19.793  0.00  0.00    +0.000 NA
ATOM     14  O   UNL     1       1.340   8.704  19.821  0.00  0.00    +0.000 OA
BRANCH  10  15
ATOM     15  C   UNL     1       0.494  10.528  18.394  0.00  0.00    +0.000 C 
BRANCH  15  17
ATOM     16  C   UNL     1      -1.735   9.946  17.257  0.00  0.00    +0.000 C 
ATOM     17  C   UNL     1      -1.015  10.334  18.541  0.00  0.00    +0.000 C 
ENDBRANCH  15  17
ENDBRANCH  10  15
ENDBRANCH   1  12
BRANCH   3  18
ATOM     18  C   UNL     1       4.959   4.543  17.573  0.00  0.00    +0.000 C 
ATOM     19  C   UNL     1       4.810   4.501  16.048  0.00  0.00    +0.000 C 
ATOM     20  C   UNL     1       6.189   4.060  15.580  0.00  0.00    +0.000 C 
ATOM     21  C   UNL     1       7.183   4.602  16.608  0.00  0.00    +0.000 C 
ATOM     22  C   UNL     1       6.374   5.079  17.814  0.00  0.00    +0.000 C 
ENDBRANCH   3  18
TORSDOF 5
ENDMDL
MODEL 6
REMARK VINA RESULT:      -7.4      1.789      6.509
REMARK  Name = 
REMARK  6 active torsions:
REMARK  status: ('A' for Active; 'I' for Inactive)
REMARK    1  A    between atoms: C_1  and  C_2
REMARK    2  A    between atoms: C_2  and  C_3
REMARK    3  A    between atoms: C_3  and  C_4
REMARK    4  A    between atoms: C_6  and  C_7
REMARK    5  A    between atoms: N_9  and  C_10
REMARK    6  A    between atoms: N_9  and  C_16
REMARK                            x       y       z     vdW  Elec       q    Type
REMARK                         _______ _______ _______ _____ _____    ______ ____
ROOT
ATOM      1  C   UNL     1       3.876   6.468  17.941  0.00  0.00    +0.000 C 
ATOM      2  O   UNL     1       4.633   7.398  17.645  0.00  0.00    +0.000 OA
ATOM      3  N   UNL     1       3.999   5.236  17.234  0.00  0.00    +0.000 N 
ENDROOT
BRANCH   3   4
ATOM      4  C   UNL     1       3.337   3.907  17.411  0.00  0.00    +0.000 C 
ATOM      5  C   UNL     1       4.080   2.965  18.361  0.00  0.00    +0.000 C 
ATOM      6  C   UNL     1       3.575   3.045  19.784  0.00  0.00    +0.000 C 
ATOM      7  C   UNL     1       2.068   2.817  19.868  0.00  0.00    +0.000 C 
ATOM      8  C   UNL     1       1.216   3.617  18.881  0.00  0.00    +0.000 C 
ATOM      9  C   UNL     1       1.814   3.800  17.496  0.00  0.00    +0.000 C 
ENDBRANCH   3   4
BRANCH   1  12
ATOM     10  C   UNL     1       1.450   8.131  20.097  0.00  0.00    +0.000 A 
ATOM     11  C   UNL     1       2.178   8.076  18.937  0.00  0.00    +0.000 A 
ATOM     12  C   UNL     1       2.863   6.816  18.952  0.00  0.00    +0.000 A 
ATOM     13  N   UNL     1       2.616   6.201  20.116  0.00  0.00    +0.000 NA
ATOM     14  O   UNL     1       1.692   6.990  20.800  0.00  0.00    +0.000 OA
BRANCH  10  15
ATOM     15  C   UNL     1       0.473   9.126  20.623  0.00  0.00    +0.000 C 
BRANCH  15  17
ATOM     16  C   UNL     1      -0.374   9.738  22.969  0.00  0.00    +0.000 C 
ATOM     17  C   UNL     1      -0.348   8.712  21.844  0.00  0.00    +0.000 C 
ENDBRANCH  15  17
ENDBRANCH  10  15
ENDBRANCH   1  12
BRANCH   3  18
ATOM     18  C   UNL     1       5.069   5.213  16.200  0.00  0.00    +0.000 C 
ATOM     19  C   UNL     1       6.479   4.883  16.701  0.00  0.00    +0.000 C 
ATOM     20  C   UNL     1       7.250   4.628  15.413  0.00  0.00    +0.000 C 
ATOM     21  C   UNL     1       6.239   4.062  14.415  0.00  0.00    +0.000 C 
ATOM     22  C   UNL     1       4.847   4.277  15.008  0.00  0.00    +0.000 C 
ENDBRANCH   3  18
TORSDOF 5
ENDMDL
MODEL 7
REMARK VINA RESULT:      -7.4      0.924      1.397
REMARK  Name = 
REMARK  6 active torsions:
REMARK  status: ('A' for Active; 'I' for Inactive)
REMARK    1  A    between atoms: C_1  and  C_2
REMARK    2  A    between atoms: C_2  and  C_3
REMARK    3  A    between atoms: C_3  and  C_4
REMARK    4  A    between atoms: C_6  and  C_7
REMARK    5  A    between atoms: N_9  and  C_10
REMARK    6  A    between atoms: N_9  and  C_16
REMARK                            x       y       z     vdW  Elec       q    Type
REMARK                         _______ _______ _______ _____ _____    ______ ____
ROOT
ATOM      1  C   UNL     1       5.297   5.683  17.477  0.00  0.00    +0.000 C 
ATOM      2  O   UNL     1       5.762   6.610  18.149  0.00  0.00    +0.000 OA
ATOM      3  N   UNL     1       4.101   5.048  17.925  0.00  0.00    +0.000 N 
ENDROOT
BRANCH   3   4
ATOM      4  C   UNL     1       3.231   4.000  17.309  0.00  0.00    +0.000 C 
ATOM      5  C   UNL     1       3.807   2.585  17.396  0.00  0.00    +0.000 C 
ATOM      6  C   UNL     1       3.317   1.823  18.607  0.00  0.00    +0.000 C 
ATOM      7  C   UNL     1       1.792   1.791  18.681  0.00  0.00    +0.000 C 
ATOM      8  C   UNL     1       1.086   3.133  18.488  0.00  0.00    +0.000 C 
ATOM      9  C   UNL     1       1.710   4.062  17.461  0.00  0.00    +0.000 C 
ENDBRANCH   3   4
BRANCH   1  12
ATOM     10  C   UNL     1       6.590   4.462  14.294  0.00  0.00    +0.000 A 
ATOM     11  C   UNL     1       5.553   4.912  15.069  0.00  0.00    +0.000 A 
ATOM     12  C   UNL     1       6.129   5.300  16.324  0.00  0.00    +0.000 A 
ATOM     13  N   UNL     1       7.435   5.003  16.313  0.00  0.00    +0.000 NA
ATOM     14  O   UNL     1       7.731   4.539  15.032  0.00  0.00    +0.000 OA
BRANCH  10  15
ATOM     15  C   UNL     1       6.659   4.010  12.876  0.00  0.00    +0.000 C 
BRANCH  15  17
ATOM     16  C   UNL     1       5.697   2.061  11.507  0.00  0.00    +0.000 C 
ATOM     17  C   UNL     1       5.417   3.327  12.304  0.00  0.00    +0.000 C 
ENDBRANCH  15  17
ENDBRANCH  10  15
ENDBRANCH   1  12
BRANCH   3  18
ATOM     18  C   UNL     1       3.531   5.605  19.182  0.00  0.00    +0.000 C 
ATOM     19  C   UNL     1       2.285   6.483  19.022  0.00  0.00    +0.000 C 
ATOM     20  C   UNL     1       1.777   6.622  20.450  0.00  0.00    +0.000 C 
ATOM     21  C   UNL     1       2.172   5.333  21.172  0.00  0.00    +0.000 C 
ATOM     22  C   UNL     1       3.161   4.593  20.271  0.00  0.00    +0.000 C 
ENDBRANCH   3  18
TORSDOF 5
ENDMDL
MODEL 8
REMARK VINA RESULT:      -7.4      2.345      6.610
REMARK  Name = 
REMARK  6 active torsions:
REMARK  status: ('A' for Active; 'I' for Inactive)
REMARK    1  A    between atoms: C_1  and  C_2
REMARK    2  A    between atoms: C_2  and  C_3
REMARK    3  A    between atoms: C_3  and  C_4
REMARK    4  A    between atoms: C_6  and  C_7
REMARK    5  A    between atoms: N_9  and  C_10
REMARK    6  A    between atoms: N_9  and  C_16
REMARK                            x       y       z     vdW  Elec       q    Type
REMARK                         _______ _______ _______ _____ _____    ______ ____
ROOT
ATOM      1  C   UNL     1       2.954   6.217  18.331  0.00  0.00    +0.000 C 
ATOM      2  O   UNL     1       2.143   5.501  18.927  0.00  0.00    +0.000 OA
ATOM      3  N   UNL     1       4.179   5.640  17.884  0.00  0.00    +0.000 N 
ENDROOT
BRANCH   3   4
ATOM      4  C   UNL     1       5.299   6.180  17.055  0.00  0.00    +0.000 C 
ATOM      5  C   UNL     1       6.690   5.814  17.577  0.00  0.00    +0.000 C 
ATOM      6  C   UNL     1       7.248   4.563  16.938  0.00  0.00    +0.000 C 
ATOM      7  C   UNL     1       7.251   4.653  15.414  0.00  0.00    +0.000 C 
ATOM      8  C   UNL     1       5.946   5.127  14.772  0.00  0.00    +0.000 C 
ATOM      9  C   UNL     1       5.196   6.209  15.530  0.00  0.00    +0.000 C 
ENDBRANCH   3   4
BRANCH   1  12
ATOM     10  C   UNL     1       1.411   9.493  18.765  0.00  0.00    +0.000 A 
ATOM     11  C   UNL     1       1.713   8.242  19.237  0.00  0.00    +0.000 A 
ATOM     12  C   UNL     1       2.557   7.634  18.250  0.00  0.00    +0.000 A 
ATOM     13  N   UNL     1       2.669   8.462  17.203  0.00  0.00    +0.000 NA
ATOM     14  O   UNL     1       2.007   9.639  17.549  0.00  0.00    +0.000 OA
BRANCH  10  15
ATOM     15  C   UNL     1       0.658  10.634  19.358  0.00  0.00    +0.000 C 
BRANCH  15  17
ATOM     16  C   UNL     1      -1.544  10.309  18.075  0.00  0.00    +0.000 C 
ATOM     17  C   UNL     1      -0.863  10.502  19.423  0.00  0.00    +0.000 C 
ENDBRANCH  15  17
ENDBRANCH  10  15
ENDBRANCH   1  12
BRANCH   3  18
ATOM     18  C   UNL     1       4.333   4.191  18.188  0.00  0.00    +0.000 C 
ATOM     19  C   UNL     1       4.172   3.793  19.659  0.00  0.00    +0.000 C 
ATOM     20  C   UNL     1       4.065   2.276  19.596  0.00  0.00    +0.000 C 
ATOM     21  C   UNL     1       3.409   1.950  18.254  0.00  0.00    +0.000 C 
ATOM     22  C   UNL     1       3.419   3.231  17.420  0.00  0.00    +0.000 C 
ENDBRANCH   3  18
TORSDOF 5
ENDMDL
MODEL 9
REMARK VINA RESULT:      -7.4      2.323      3.685
REMARK  Name = 
REMARK  6 active torsions:
REMARK  status: ('A' for Active; 'I' for Inactive)
REMARK    1  A    between atoms: C_1  and  C_2
REMARK    2  A    between atoms: C_2  and  C_3
REMARK    3  A    between atoms: C_3  and  C_4
REMARK    4  A    between atoms: C_6  and  C_7
REMARK    5  A    between atoms: N_9  and  C_10
REMARK    6  A    between atoms: N_9  and  C_16
REMARK                            x       y       z     vdW  Elec       q    Type
REMARK                         _______ _______ _______ _____ _____    ______ ____
ROOT
ATOM      1  C   UNL     1       6.838   5.251  15.204  0.00  0.00    +0.000 C 
ATOM      2  O   UNL     1       7.977   5.705  15.346  0.00  0.00    +0.000 OA
ATOM      3  N   UNL     1       5.965   5.227  16.331  0.00  0.00    +0.000 N 
ENDROOT
BRANCH   3   4
ATOM      4  C   UNL     1       4.523   4.860  16.476  0.00  0.00    +0.000 C 
ATOM      5  C   UNL     1       4.289   3.388  16.821  0.00  0.00    +0.000 C 
ATOM      6  C   UNL     1       4.168   3.145  18.309  0.00  0.00    +0.000 C 
ATOM      7  C   UNL     1       3.096   4.025  18.946  0.00  0.00    +0.000 C 
ATOM      8  C   UNL     1       3.148   5.510  18.581  0.00  0.00    +0.000 C 
ATOM      9  C   UNL     1       3.538   5.820  17.146  0.00  0.00    +0.000 C 
ENDBRANCH   3   4
BRANCH   1  12
ATOM     10  C   UNL     1       5.563   3.434  12.310  0.00  0.00    +0.000 A 
ATOM     11  C   UNL     1       5.402   3.925  13.579  0.00  0.00    +0.000 A 
ATOM     12  C   UNL     1       6.575   4.699  13.864  0.00  0.00    +0.000 A 
ATOM     13  N   UNL     1       7.427   4.589  12.836  0.00  0.00    +0.000 NA
ATOM     14  O   UNL     1       6.773   3.854  11.848  0.00  0.00    +0.000 OA
BRANCH  10  15
ATOM     15  C   UNL     1       4.669   2.644  11.418  0.00  0.00    +0.000 C 
BRANCH  15  17
ATOM     16  C   UNL     1       3.198   3.909   9.735  0.00  0.00    +0.000 C 
ATOM     17  C   UNL     1       3.300   3.245  11.101  0.00  0.00    +0.000 C 
ENDBRANCH  15  17
ENDBRANCH  10  15
ENDBRANCH   1  12
BRANCH   3  18
ATOM     18  C   UNL     1       6.547   5.783  17.583  0.00  0.00    +0.000 C 
ATOM     19  C   UNL     1       7.545   4.881  18.317  0.00  0.00    +0.000 C 
ATOM     20  C   UNL     1       8.178   5.822  19.331  0.00  0.00    +0.000 C 
ATOM     21  C   UNL     1       8.161   7.211  18.694  0.00  0.00    +0.000 C 
ATOM     22  C   UNL     1       7.254   7.136  17.465  0.00  0.00    +0.000 C 
ENDBRANCH   3  18
TORSDOF 5
ENDMDL
