MODEL 1
REMARK VINA RESULT:      -7.5      0.000      0.000
REMARK  Name = 
REMARK  7 active torsions:
REMARK  status: ('A' for Active; 'I' for Inactive)
REMARK    1  A    between atoms: C_1  and  O_2
REMARK    2  A    between atoms: O_2  and  C_3
REMARK    3  A    between atoms: C_3  and  C_5
REMARK    4  A    between atoms: C_16  and  C_17
REMARK    5  A    between atoms: C_17  and  C_18
REMARK    6  A    between atoms: C_21  and  N_22
REMARK    7  A    between atoms: C_23  and  C_24
REMARK                            x       y       z     vdW  Elec       q    Type
REMARK                         _______ _______ _______ _____ _____    ______ ____
ROOT
ATOM      1  C   UNL     1       1.957   2.909  18.353  0.00  0.00    +0.000 C 
ATOM      2  C   UNL     1       3.030   2.981  17.231  0.00  0.00    +0.000 C 
ATOM      3  C   UNL     1       3.745   4.277  17.301  0.00  0.00    +0.000 A 
ATOM      4  C   UNL     1       3.142   5.363  17.901  0.00  0.00    +0.000 A 
ATOM      5  N   UNL     1       3.991   6.416  17.760  0.00  0.00    +0.000 N 
ATOM      6  C   UNL     1       5.192   6.020  17.239  0.00  0.00    +0.000 A 
ATOM      7  C   UNL     1       6.366   6.757  17.075  0.00  0.00    +0.000 A 
ATOM      8  C   UNL     1       7.456   6.098  16.518  0.00  0.00    +0.000 A 
ATOM      9  C   UNL     1       7.356   4.759  16.129  0.00  0.00    +0.000 A 
ATOM     10  C   UNL     1       6.165   4.038  16.311  0.00  0.00    +0.000 A 
ATOM     11  C   UNL     1       5.056   4.677  16.896  0.00  0.00    +0.000 A 
ATOM     12  C   UNL     1       1.833   5.434  18.615  0.00  0.00    +0.000 C 
ATOM     13  N   UNL     1       1.098   4.147  18.454  0.00  0.00    +0.000 NA
ATOM     14  H   UNL     1       3.828   7.329  18.156  0.00  0.00    +0.000 HD
ATOM     15  H   UNL     1       0.599   4.211  17.567  0.00  0.00    +0.000 HD
ENDROOT
BRANCH   1  16
ATOM     16  C   UNL     1       2.515   2.470  19.721  0.00  0.00    +0.000 C 
ATOM     17  O   UNL     1       3.703   2.380  20.008  0.00  0.00    +0.000 OA
BRANCH  16  19
ATOM     18  C   UNL     1       1.829   2.778  21.950  0.00  0.00    +0.000 C 
ATOM     19  O   UNL     1       1.505   2.330  20.634  0.00  0.00    +0.000 OA
ENDBRANCH  16  19
ENDBRANCH   1  16
BRANCH  12  20
ATOM     20  C   UNL     1       1.960   5.880  20.093  0.00  0.00    +0.000 C 
BRANCH  20  21
ATOM     21  C   UNL     1       1.889   7.416  20.297  0.00  0.00    +0.000 C 
ATOM     22  O   UNL     1       1.595   8.043  19.047  0.00  0.00    +0.000 OA
ATOM     23  C   UNL     1       1.614   9.470  19.168  0.00  0.00    +0.000 C 
ATOM     24  C   UNL     1       0.606   9.959  20.223  0.00  0.00    +0.000 C 
ATOM     25  C   UNL     1       0.926   9.205  21.526  0.00  0.00    +0.000 C 
ATOM     26  C   UNL     1      -0.037   9.524  22.669  0.00  0.00    +0.000 C 
ATOM     27  O   UNL     1       0.908   7.794  21.263  0.00  0.00    +0.000 OA
BRANCH  24  28
ATOM     28  N   UNL     1      -0.780   9.695  19.784  0.00  0.00    +0.000 NA
ATOM     29  H   UNL     1      -1.035   8.761  20.122  0.00  0.00    +0.000 HD
ATOM     30  H   UNL     1      -0.808   9.616  18.768  0.00  0.00    +0.000 HD
ENDBRANCH  24  28
ENDBRANCH  20  21
ENDBRANCH  12  20
TORSDOF 5
ENDMDL
MODEL 2
REMARK VINA RESULT:      -7.4      2.708      5.132
REMARK  Name = 
REMARK  7 active torsions:
REMARK  status: ('A' for Active; 'I' for Inactive)
REMARK    1  A    between atoms: C_1  and  O_2
REMARK    2  A    between atoms: O_2  and  C_3
REMARK    3  A    between atoms: C_3  and  C_5
REMARK    4  A    between atoms: C_16  and  C_17
REMARK    5  A    between atoms: C_17  and  C_18
REMARK    6  A    between atoms: C_21  and  N_22
REMARK    7  A    between atoms: C_23  and  C_24
REMARK                            x       y       z     vdW  Elec       q    Type
REMARK                         _______ _______ _______ _____ _____    ______ ____
ROOT
ATOM      1  C   UNL     1       5.602   5.791  17.888  0.00  0.00    +0.000 C 
ATOM      2  C   UNL     1       6.811   5.748  16.911  0.00  0.00    +0.000 C 
ATOM      3  C   UNL     1       6.495   4.872  15.759  0.00  0.00    +0.000 A 
ATOM      4  C   UNL     1       5.534   3.891  15.885  0.00  0.00    +0.000 A 
ATOM      5  N   UNL     1       5.506   3.210  14.707  0.00  0.00    +0.000 N 
ATOM      6  C   UNL     1       6.293   3.813  13.766  0.00  0.00    +0.000 A 
ATOM      7  C   UNL     1       6.425   3.517  12.408  0.00  0.00    +0.000 A 
ATOM      8  C   UNL     1       7.302   4.303  11.669  0.00  0.00    +0.000 A 
ATOM      9  C   UNL     1       8.026   5.329  12.281  0.00  0.00    +0.000 A 
ATOM     10  C   UNL     1       7.871   5.611  13.648  0.00  0.00    +0.000 A 
ATOM     11  C   UNL     1       6.970   4.846  14.411  0.00  0.00    +0.000 A 
ATOM     12  C   UNL     1       4.636   3.598  17.040  0.00  0.00    +0.000 C 
ATOM     13  N   UNL     1       5.033   4.431  18.213  0.00  0.00    +0.000 NA
ATOM     14  H   UNL     1       4.853   2.471  14.498  0.00  0.00    +0.000 HD
ATOM     15  H   UNL     1       5.781   3.923  18.684  0.00  0.00    +0.000 HD
ENDROOT
BRANCH   1  16
ATOM     16  C   UNL     1       4.512   6.802  17.483  0.00  0.00    +0.000 C 
ATOM     17  O   UNL     1       4.365   7.279  16.364  0.00  0.00    +0.000 OA
BRANCH  16  19
ATOM     18  C   UNL     1       2.533   7.857  18.193  0.00  0.00    +0.000 C 
ATOM     19  O   UNL     1       3.623   6.992  18.507  0.00  0.00    +0.000 OA
ENDBRANCH  16  19
ENDBRANCH   1  16
BRANCH  12  20
ATOM     20  C   UNL     1       3.131   3.711  16.697  0.00  0.00    +0.000 C 
BRANCH  20  21
ATOM     21  C   UNL     1       2.187   3.451  17.899  0.00  0.00    +0.000 C 
ATOM     22  O   UNL     1       2.462   2.158  18.442  0.00  0.00    +0.000 OA
ATOM     23  C   UNL     1       1.548   1.835  19.496  0.00  0.00    +0.000 C 
ATOM     24  C   UNL     1       1.606   2.875  20.629  0.00  0.00    +0.000 C 
ATOM     25  C   UNL     1       1.371   4.251  19.981  0.00  0.00    +0.000 C 
ATOM     26  C   UNL     1       1.468   5.416  20.966  0.00  0.00    +0.000 C 
ATOM     27  O   UNL     1       2.324   4.437  18.924  0.00  0.00    +0.000 OA
BRANCH  24  28
ATOM     28  N   UNL     1       2.915   2.829  21.315  0.00  0.00    +0.000 NA
ATOM     29  H   UNL     1       3.123   1.845  21.511  0.00  0.00    +0.000 HD
ATOM     30  H   UNL     1       2.834   3.262  22.235  0.00  0.00    +0.000 HD
ENDBRANCH  24  28
ENDBRANCH  20  21
ENDBRANCH  12  20
TORSDOF 5
ENDMDL
MODEL 3
REMARK VINA RESULT:      -7.0      3.625      7.727
REMARK  Name = 
REMARK  7 active torsions:
REMARK  status: ('A' for Active; 'I' for Inactive)
REMARK    1  A    between atoms: C_1  and  O_2
REMARK    2  A    between atoms: O_2  and  C_3
REMARK    3  A    between atoms: C_3  and  C_5
REMARK    4  A    between atoms: C_16  and  C_17
REMARK    5  A    between atoms: C_17  and  C_18
REMARK    6  A    between atoms: C_21  and  N_22
REMARK    7  A    between atoms: C_23  and  C_24
REMARK                            x       y       z     vdW  Elec       q    Type
REMARK                         _______ _______ _______ _____ _____    ______ ____
ROOT
ATOM      1  C   UNL     1       5.513   6.528  18.096  0.00  0.00    +0.000 C 
ATOM      2  C   UNL     1       4.306   6.363  19.062  0.00  0.00    +0.000 C 
ATOM      3  C   UNL     1       3.486   5.201  18.649  0.00  0.00    +0.000 A 
ATOM      4  C   UNL     1       3.530   4.758  17.343  0.00  0.00    +0.000 A 
ATOM      5  N   UNL     1       2.638   3.736  17.241  0.00  0.00    +0.000 N 
ATOM      6  C   UNL     1       2.137   3.390  18.465  0.00  0.00    +0.000 A 
ATOM      7  C   UNL     1       1.317   2.313  18.807  0.00  0.00    +0.000 A 
ATOM      8  C   UNL     1       0.956   2.190  20.144  0.00  0.00    +0.000 A 
ATOM      9  C   UNL     1       1.391   3.125  21.088  0.00  0.00    +0.000 A 
ATOM     10  C   UNL     1       2.221   4.196  20.719  0.00  0.00    +0.000 A 
ATOM     11  C   UNL     1       2.620   4.326  19.376  0.00  0.00    +0.000 A 
ATOM     12  C   UNL     1       4.389   5.233  16.219  0.00  0.00    +0.000 C 
ATOM     13  N   UNL     1       5.137   6.455  16.635  0.00  0.00    +0.000 NA
ATOM     14  H   UNL     1       2.503   3.187  16.406  0.00  0.00    +0.000 HD
ATOM     15  H   UNL     1       4.511   7.243  16.470  0.00  0.00    +0.000 HD
ENDROOT
BRANCH   1  16
ATOM     16  C   UNL     1       6.712   5.623  18.439  0.00  0.00    +0.000 C 
ATOM     17  O   UNL     1       6.641   4.504  18.932  0.00  0.00    +0.000 OA
BRANCH  16  19
ATOM     18  C   UNL     1       7.945   7.595  18.083  0.00  0.00    +0.000 C 
ATOM     19  O   UNL     1       7.879   6.173  17.982  0.00  0.00    +0.000 OA
ENDBRANCH  16  19
ENDBRANCH   1  16
BRANCH  12  20
ATOM     20  C   UNL     1       5.305   4.131  15.633  0.00  0.00    +0.000 C 
BRANCH  20  21
ATOM     21  C   UNL     1       5.603   4.296  14.121  0.00  0.00    +0.000 C 
ATOM     22  O   UNL     1       6.952   3.903  13.862  0.00  0.00    +0.000 OA
ATOM     23  C   UNL     1       7.303   4.129  12.492  0.00  0.00    +0.000 C 
ATOM     24  C   UNL     1       6.368   3.365  11.538  0.00  0.00    +0.000 C 
ATOM     25  C   UNL     1       4.929   3.773  11.904  0.00  0.00    +0.000 C 
ATOM     26  C   UNL     1       3.860   3.044  11.091  0.00  0.00    +0.000 C 
ATOM     27  O   UNL     1       4.718   3.529  13.302  0.00  0.00    +0.000 OA
BRANCH  24  28
ATOM     28  N   UNL     1       6.555   1.906  11.679  0.00  0.00    +0.000 NA
ATOM     29  H   UNL     1       7.472   1.676  11.280  0.00  0.00    +0.000 HD
ATOM     30  H   UNL     1       5.887   1.416  11.084  0.00  0.00    +0.000 HD
ENDBRANCH  24  28
ENDBRANCH  20  21
ENDBRANCH  12  20
TORSDOF 5
ENDMDL
MODEL 4
REMARK VINA RESULT:      -6.9      3.348      5.564
REMARK  Name = 
REMARK  7 active torsions:
REMARK  status: ('A' for Active; 'I' for Inactive)
REMARK    1  A    between atoms: C_1  and  O_2
REMARK    2  A    between atoms: O_2  and  C_3
REMARK    3  A    between atoms: C_3  and  C_5
REMARK    4  A    between atoms: C_16  and  C_17
REMARK    5  A    between atoms: C_17  and  C_18
REMARK    6  A    between atoms: C_21  and  N_22
REMARK    7  A    between atoms: C_23  and  C_24
REMARK                            x       y       z     vdW  Elec       q    Type
REMARK                         _______ _______ _______ _____ _____    ______ ____
ROOT
ATOM      1  C   UNL     1       7.665   5.577  18.001  0.00  0.00    +0.000 C 
ATOM      2  C   UNL     1       8.080   4.822  16.706  0.00  0.00    +0.000 C 
ATOM      3  C   UNL     1       6.871   4.418  15.951  0.00  0.00    +0.000 A 
ATOM      4  C   UNL     1       5.666   4.277  16.607  0.00  0.00    +0.000 A 
ATOM      5  N   UNL     1       4.764   3.839  15.687  0.00  0.00    +0.000 N 
ATOM      6  C   UNL     1       5.293   3.847  14.427  0.00  0.00    +0.000 A 
ATOM      7  C   UNL     1       4.661   3.612  13.205  0.00  0.00    +0.000 A 
ATOM      8  C   UNL     1       5.445   3.692  12.060  0.00  0.00    +0.000 A 
ATOM      9  C   UNL     1       6.810   3.979  12.149  0.00  0.00    +0.000 A 
ATOM     10  C   UNL     1       7.421   4.219  13.391  0.00  0.00    +0.000 A 
ATOM     11  C   UNL     1       6.642   4.169  14.562  0.00  0.00    +0.000 A 
ATOM     12  C   UNL     1       5.333   4.564  18.033  0.00  0.00    +0.000 C 
ATOM     13  N   UNL     1       6.579   4.883  18.789  0.00  0.00    +0.000 NA
ATOM     14  H   UNL     1       3.783   3.703  15.880  0.00  0.00    +0.000 HD
ATOM     15  H   UNL     1       6.975   3.988  19.077  0.00  0.00    +0.000 HD
ENDROOT
BRANCH   1  16
ATOM     16  C   UNL     1       7.364   7.072  17.780  0.00  0.00    +0.000 C 
ATOM     17  O   UNL     1       6.426   7.520  17.131  0.00  0.00    +0.000 OA
BRANCH  16  19
ATOM     18  C   UNL     1       8.306   9.204  18.093  0.00  0.00    +0.000 C 
ATOM     19  O   UNL     1       8.202   7.850  18.531  0.00  0.00    +0.000 OA
ENDBRANCH  16  19
ENDBRANCH   1  16
BRANCH  12  20
ATOM     20  C   UNL     1       4.228   5.635  18.205  0.00  0.00    +0.000 C 
BRANCH  20  21
ATOM     21  C   UNL     1       2.852   5.059  18.628  0.00  0.00    +0.000 C 
ATOM     22  O   UNL     1       2.323   4.271  17.560  0.00  0.00    +0.000 OA
ATOM     23  C   UNL     1       1.008   3.797  17.870  0.00  0.00    +0.000 C 
ATOM     24  C   UNL     1       1.002   2.958  19.160  0.00  0.00    +0.000 C 
ATOM     25  C   UNL     1       1.640   3.828  20.258  0.00  0.00    +0.000 C 
ATOM     26  C   UNL     1       1.778   3.113  21.602  0.00  0.00    +0.000 C 
ATOM     27  O   UNL     1       2.933   4.264  19.812  0.00  0.00    +0.000 OA
BRANCH  24  28
ATOM     28  N   UNL     1       1.758   1.702  18.972  0.00  0.00    +0.000 NA
ATOM     29  H   UNL     1       2.651   1.806  19.467  0.00  0.00    +0.000 HD
ATOM     30  H   UNL     1       2.018   1.604  17.992  0.00  0.00    +0.000 HD
ENDBRANCH  24  28
ENDBRANCH  20  21
ENDBRANCH  12  20
TORSDOF 5
ENDMDL
MODEL 5
REMARK VINA RESULT:      -6.9      8.067     10.587
REMARK  Name = 
REMARK  7 active torsions:
REMARK  status: ('A' for Active; 'I' for Inactive)
REMARK    1  A    between atoms: C_1  and  O_2
REMARK    2  A    between atoms: O_2  and  C_3
REMARK    3  A    between atoms: C_3  and  C_5
REMARK    4  A    between atoms: C_16  and  C_17
REMARK    5  A    between atoms: C_17  and  C_18
REMARK    6  A    between atoms: C_21  and  N_22
REMARK    7  A    between atoms: C_23  and  C_24
REMARK                            x       y       z     vdW  Elec       q    Type
REMARK                         _______ _______ _______ _____ _____    ______ ____
ROOT
ATOM      1  C   UNL     1      -7.393  11.699  19.322  0.00  0.00    +0.000 C 
ATOM      2  C   UNL     1      -6.413  11.301  18.182  0.00  0.00    +0.000 C 
ATOM      3  C   UNL     1      -5.027  11.659  18.562  0.00  0.00    +0.000 A 
ATOM      4  C   UNL     1      -4.805  12.649  19.497  0.00  0.00    +0.000 A 
ATOM      5  N   UNL     1      -3.457  12.806  19.595  0.00  0.00    +0.000 N 
ATOM      6  C   UNL     1      -2.791  11.847  18.884  0.00  0.00    +0.000 A 
ATOM      7  C   UNL     1      -1.423  11.573  18.842  0.00  0.00    +0.000 A 
ATOM      8  C   UNL     1      -1.011  10.523  18.030  0.00  0.00    +0.000 A 
ATOM      9  C   UNL     1      -1.940   9.794  17.282  0.00  0.00    +0.000 A 
ATOM     10  C   UNL     1      -3.312  10.085  17.347  0.00  0.00    +0.000 A 
ATOM     11  C   UNL     1      -3.755  11.128  18.181  0.00  0.00    +0.000 A 
ATOM     12  C   UNL     1      -5.797  13.414  20.309  0.00  0.00    +0.000 C 
ATOM     13  N   UNL     1      -7.179  13.099  19.846  0.00  0.00    +0.000 NA
ATOM     14  H   UNL     1      -3.008  13.429  20.249  0.00  0.00    +0.000 HD
ATOM     15  H   UNL     1      -7.366  13.721  19.059  0.00  0.00    +0.000 HD
ENDROOT
BRANCH   1  16
ATOM     16  C   UNL     1      -7.487  10.657  20.453  0.00  0.00    +0.000 C 
ATOM     17  O   UNL     1      -7.818  10.892  21.610  0.00  0.00    +0.000 OA
BRANCH  16  19
ATOM     18  C   UNL     1      -7.767   8.350  20.816  0.00  0.00    +0.000 C 
ATOM     19  O   UNL     1      -7.294   9.394  19.965  0.00  0.00    +0.000 OA
ENDBRANCH  16  19
ENDBRANCH   1  16
BRANCH  12  20
ATOM     20  C   UNL     1      -5.612  13.237  21.836  0.00  0.00    +0.000 C 
BRANCH  20  21
ATOM     21  C   UNL     1      -4.723  14.323  22.494  0.00  0.00    +0.000 C 
ATOM     22  O   UNL     1      -5.387  14.839  23.649  0.00  0.00    +0.000 OA
ATOM     23  C   UNL     1      -4.645  15.913  24.236  0.00  0.00    +0.000 C 
ATOM     24  C   UNL     1      -3.227  15.467  24.633  0.00  0.00    +0.000 C 
ATOM     25  C   UNL     1      -2.583  14.861  23.373  0.00  0.00    +0.000 C 
ATOM     26  C   UNL     1      -1.183  14.297  23.613  0.00  0.00    +0.000 C 
ATOM     27  O   UNL     1      -3.437  13.825  22.867  0.00  0.00    +0.000 OA
BRANCH  24  28
ATOM     28  N   UNL     1      -3.278  14.477  25.730  0.00  0.00    +0.000 NA
ATOM     29  H   UNL     1      -4.182  13.999  25.668  0.00  0.00    +0.000 HD
ATOM     30  H   UNL     1      -3.305  14.962  26.626  0.00  0.00    +0.000 HD
ENDBRANCH  24  28
ENDBRANCH  20  21
ENDBRANCH  12  20
TORSDOF 5
ENDMDL
MODEL 6
REMARK VINA RESULT:      -6.8      8.057     10.428
REMARK  Name = 
REMARK  7 active torsions:
REMARK  status: ('A' for Active; 'I' for Inactive)
REMARK    1  A    between atoms: C_1  and  O_2
REMARK    2  A    between atoms: O_2  and  C_3
REMARK    3  A    between atoms: C_3  and  C_5
REMARK    4  A    between atoms: C_16  and  C_17
REMARK    5  A    between atoms: C_17  and  C_18
REMARK    6  A    between atoms: C_21  and  N_22
REMARK    7  A    between atoms: C_23  and  C_24
REMARK                            x       y       z     vdW  Elec       q    Type
REMARK                         _______ _______ _______ _____ _____    ______ ____
ROOT
ATOM      1  C   UNL     1      -7.296  11.866  19.507  0.00  0.00    +0.000 C 
ATOM      2  C   UNL     1      -6.424  11.519  18.267  0.00  0.00    +0.000 C 
ATOM      3  C   UNL     1      -4.992  11.722  18.587  0.00  0.00    +0.000 A 
ATOM      4  C   UNL     1      -4.630  12.581  19.604  0.00  0.00    +0.000 A 
ATOM      5  N   UNL     1      -3.270  12.619  19.625  0.00  0.00    +0.000 N 
ATOM      6  C   UNL     1      -2.733  11.695  18.773  0.00  0.00    +0.000 A 
ATOM      7  C   UNL     1      -1.399  11.319  18.608  0.00  0.00    +0.000 A 
ATOM      8  C   UNL     1      -1.128  10.336  17.664  0.00  0.00    +0.000 A 
ATOM      9  C   UNL     1      -2.159   9.770  16.909  0.00  0.00    +0.000 A 
ATOM     10  C   UNL     1      -3.495  10.161  17.098  0.00  0.00    +0.000 A 
ATOM     11  C   UNL     1      -3.796  11.136  18.066  0.00  0.00    +0.000 A 
ATOM     12  C   UNL     1      -5.502  13.328  20.557  0.00  0.00    +0.000 C 
ATOM     13  N   UNL     1      -6.931  13.178  20.160  0.00  0.00    +0.000 NA
ATOM     14  H   UNL     1      -2.730  13.128  20.309  0.00  0.00    +0.000 HD
ATOM     15  H   UNL     1      -7.110  13.896  19.458  0.00  0.00    +0.000 HD
ENDROOT
BRANCH   1  16
ATOM     16  C   UNL     1      -7.412  10.716  20.527  0.00  0.00    +0.000 C 
ATOM     17  O   UNL     1      -7.763  10.835  21.695  0.00  0.00    +0.000 OA
BRANCH  16  19
ATOM     18  C   UNL     1      -7.673   8.383  20.667  0.00  0.00    +0.000 C 
ATOM     19  O   UNL     1      -7.215   9.507  19.917  0.00  0.00    +0.000 OA
ENDBRANCH  16  19
ENDBRANCH   1  16
BRANCH  12  20
ATOM     20  C   UNL     1      -5.243  12.970  22.041  0.00  0.00    +0.000 C 
BRANCH  20  21
ATOM     21  C   UNL     1      -4.444  14.046  22.820  0.00  0.00    +0.000 C 
ATOM     22  O   UNL     1      -3.937  13.474  24.028  0.00  0.00    +0.000 OA
ATOM     23  C   UNL     1      -3.273  14.458  24.828  0.00  0.00    +0.000 C 
ATOM     24  C   UNL     1      -2.112  15.116  24.061  0.00  0.00    +0.000 C 
ATOM     25  C   UNL     1      -2.699  15.655  22.744  0.00  0.00    +0.000 C 
ATOM     26  C   UNL     1      -1.655  16.283  21.821  0.00  0.00    +0.000 C 
ATOM     27  O   UNL     1      -3.363  14.584  22.058  0.00  0.00    +0.000 OA
BRANCH  24  28
ATOM     28  N   UNL     1      -1.036  14.137  23.800  0.00  0.00    +0.000 NA
ATOM     29  H   UNL     1      -0.149  14.582  24.061  0.00  0.00    +0.000 HD
ATOM     30  H   UNL     1      -0.956  13.976  22.797  0.00  0.00    +0.000 HD
ENDBRANCH  24  28
ENDBRANCH  20  21
ENDBRANCH  12  20
TORSDOF 5
ENDMDL
MODEL 7
REMARK VINA RESULT:      -6.8      6.415      8.923
REMARK  Name = 
REMARK  7 active torsions:
REMARK  status: ('A' for Active; 'I' for Inactive)
REMARK    1  A    between atoms: C_1  and  O_2
REMARK    2  A    between atoms: O_2  and  C_3
REMARK    3  A    between atoms: C_3  and  C_5
REMARK    4  A    between atoms: C_16  and  C_17
REMARK    5  A    between atoms: C_17  and  C_18
REMARK    6  A    between atoms: C_21  and  N_22
REMARK    7  A    between atoms: C_23  and  C_24
REMARK                            x       y       z     vdW  Elec       q    Type
REMARK                         _______ _______ _______ _____ _____    ______ ____
ROOT
ATOM      1  C   UNL     1      -1.975  11.094  17.336  0.00  0.00    +0.000 C 
ATOM      2  C   UNL     1      -0.669  10.678  18.069  0.00  0.00    +0.000 C 
ATOM      3  C   UNL     1      -0.842  10.835  19.532  0.00  0.00    +0.000 A 
ATOM      4  C   UNL     1      -1.789  11.709  20.022  0.00  0.00    +0.000 A 
ATOM      5  N   UNL     1      -1.677  11.695  21.378  0.00  0.00    +0.000 N 
ATOM      6  C   UNL     1      -0.808  10.727  21.795  0.00  0.00    +0.000 A 
ATOM      7  C   UNL     1      -0.527  10.296  23.093  0.00  0.00    +0.000 A 
ATOM      8  C   UNL     1       0.406   9.276  23.235  0.00  0.00    +0.000 A 
ATOM      9  C   UNL     1       1.039   8.728  22.115  0.00  0.00    +0.000 A 
ATOM     10  C   UNL     1       0.734   9.175  20.819  0.00  0.00    +0.000 A 
ATOM     11  C   UNL     1      -0.227  10.189  20.649  0.00  0.00    +0.000 A 
ATOM     12  C   UNL     1      -2.798  12.516  19.275  0.00  0.00    +0.000 C 
ATOM     13  N   UNL     1      -2.546  12.409  17.809  0.00  0.00    +0.000 NA
ATOM     14  H   UNL     1      -2.288  12.203  22.000  0.00  0.00    +0.000 HD
ATOM     15  H   UNL     1      -1.841  13.113  17.587  0.00  0.00    +0.000 HD
ENDROOT
BRANCH   1  16
ATOM     16  C   UNL     1      -3.039   9.980  17.279  0.00  0.00    +0.000 C 
ATOM     17  O   UNL     1      -3.279   9.180  18.176  0.00  0.00    +0.000 OA
BRANCH  16  19
ATOM     18  C   UNL     1      -3.039  10.266  14.945  0.00  0.00    +0.000 C 
ATOM     19  O   UNL     1      -3.793  10.088  16.143  0.00  0.00    +0.000 OA
ENDBRANCH  16  19
ENDBRANCH   1  16
BRANCH  12  20
ATOM     20  C   UNL     1      -4.261  12.192  19.665  0.00  0.00    +0.000 C 
BRANCH  20  21
ATOM     21  C   UNL     1      -4.774  12.977  20.900  0.00  0.00    +0.000 C 
ATOM     22  O   UNL     1      -6.193  13.116  20.812  0.00  0.00    +0.000 OA
ATOM     23  C   UNL     1      -6.701  13.919  21.883  0.00  0.00    +0.000 C 
ATOM     24  C   UNL     1      -6.341  13.321  23.255  0.00  0.00    +0.000 C 
ATOM     25  C   UNL     1      -4.814  13.131  23.270  0.00  0.00    +0.000 C 
ATOM     26  C   UNL     1      -4.291  12.473  24.546  0.00  0.00    +0.000 C 
ATOM     27  O   UNL     1      -4.432  12.342  22.133  0.00  0.00    +0.000 OA
BRANCH  24  28
ATOM     28  N   UNL     1      -7.037  12.033  23.463  0.00  0.00    +0.000 NA
ATOM     29  H   UNL     1      -8.032  12.190  23.274  0.00  0.00    +0.000 HD
ATOM     30  H   UNL     1      -7.000  11.781  24.450  0.00  0.00    +0.000 HD
ENDBRANCH  24  28
ENDBRANCH  20  21
ENDBRANCH  12  20
TORSDOF 5
ENDMDL
MODEL 8
REMARK VINA RESULT:      -6.7      2.256      4.583
REMARK  Name = 
REMARK  7 active torsions:
REMARK  status: ('A' for Active; 'I' for Inactive)
REMARK    1  A    between atoms: C_1  and  O_2
REMARK    2  A    between atoms: O_2  and  C_3
REMARK    3  A    between atoms: C_3  and  C_5
REMARK    4  A    between atoms: C_16  and  C_17
REMARK    5  A    between atoms: C_17  and  C_18
REMARK    6  A    between atoms: C_21  and  N_22
REMARK    7  A    between atoms: C_23  and  C_24
REMARK                            x       y       z     vdW  Elec       q    Type
REMARK                         _______ _______ _______ _____ _____    ______ ____
ROOT
ATOM      1  C   UNL     1       5.876   5.614  16.932  0.00  0.00    +0.000 C 
ATOM      2  C   UNL     1       5.484   4.263  17.596  0.00  0.00    +0.000 C 
ATOM      3  C   UNL     1       4.145   4.379  18.219  0.00  0.00    +0.000 A 
ATOM      4  C   UNL     1       3.661   5.618  18.583  0.00  0.00    +0.000 A 
ATOM      5  N   UNL     1       2.457   5.412  19.181  0.00  0.00    +0.000 N 
ATOM      6  C   UNL     1       2.064   4.108  19.074  0.00  0.00    +0.000 A 
ATOM      7  C   UNL     1       0.845   3.523  19.423  0.00  0.00    +0.000 A 
ATOM      8  C   UNL     1       0.708   2.158  19.199  0.00  0.00    +0.000 A 
ATOM      9  C   UNL     1       1.764   1.416  18.661  0.00  0.00    +0.000 A 
ATOM     10  C   UNL     1       2.978   2.028  18.312  0.00  0.00    +0.000 A 
ATOM     11  C   UNL     1       3.130   3.414  18.507  0.00  0.00    +0.000 A 
ATOM     12  C   UNL     1       4.266   6.964  18.362  0.00  0.00    +0.000 C 
ATOM     13  N   UNL     1       5.646   6.816  17.817  0.00  0.00    +0.000 NA
ATOM     14  H   UNL     1       1.850   6.154  19.498  0.00  0.00    +0.000 HD
ATOM     15  H   UNL     1       6.259   6.689  18.622  0.00  0.00    +0.000 HD
ENDROOT
BRANCH   1  16
ATOM     16  C   UNL     1       5.291   5.805  15.520  0.00  0.00    +0.000 C 
ATOM     17  O   UNL     1       5.101   6.883  14.968  0.00  0.00    +0.000 OA
BRANCH  16  19
ATOM     18  C   UNL     1       6.255   4.213  14.081  0.00  0.00    +0.000 C 
ATOM     19  O   UNL     1       5.144   4.599  14.890  0.00  0.00    +0.000 OA
ENDBRANCH  16  19
ENDBRANCH   1  16
BRANCH  12  20
ATOM     20  C   UNL     1       3.377   7.909  17.516  0.00  0.00    +0.000 C 
BRANCH  20  21
ATOM     21  C   UNL     1       2.665   9.012  18.341  0.00  0.00    +0.000 C 
ATOM     22  O   UNL     1       2.104   9.978  17.450  0.00  0.00    +0.000 OA
ATOM     23  C   UNL     1       1.519  11.068  18.171  0.00  0.00    +0.000 C 
ATOM     24  C   UNL     1       0.422  10.581  19.134  0.00  0.00    +0.000 C 
ATOM     25  C   UNL     1       1.060   9.499  20.023  0.00  0.00    +0.000 C 
ATOM     26  C   UNL     1       0.079   8.852  21.000  0.00  0.00    +0.000 C 
ATOM     27  O   UNL     1       1.638   8.488  19.184  0.00  0.00    +0.000 OA
BRANCH  24  28
ATOM     28  N   UNL     1      -0.730  10.038  18.384  0.00  0.00    +0.000 NA
ATOM     29  H   UNL     1      -1.542  10.064  19.011  0.00  0.00    +0.000 HD
ATOM     30  H   UNL     1      -0.581   9.047  18.199  0.00  0.00    +0.000 HD
ENDBRANCH  24  28
ENDBRANCH  20  21
ENDBRANCH  12  20
TORSDOF 5
ENDMDL
MODEL 9
REMARK VINA RESULT:      -6.7      3.053      8.138
REMARK  Name = 
REMARK  7 active torsions:
REMARK  status: ('A' for Active; 'I' for Inactive)
REMARK    1  A    between atoms: C_1  and  O_2
REMARK    2  A    between atoms: O_2  and  C_3
REMARK    3  A    between atoms: C_3  and  C_5
REMARK    4  A    between atoms: C_16  and  C_17
REMARK    5  A    between atoms: C_17  and  C_18
REMARK    6  A    between atoms: C_21  and  N_22
REMARK    7  A    between atoms: C_23  and  C_24
REMARK                            x       y       z     vdW  Elec       q    Type
REMARK                         _______ _______ _______ _____ _____    ______ ____
ROOT
ATOM      1  C   UNL     1      -0.090  11.966  21.614  0.00  0.00    +0.000 C 
ATOM      2  C   UNL     1      -0.853  12.543  20.389  0.00  0.00    +0.000 C 
ATOM      3  C   UNL     1      -1.002  11.497  19.351  0.00  0.00    +0.000 A 
ATOM      4  C   UNL     1      -0.126  10.432  19.317  0.00  0.00    +0.000 A 
ATOM      5  N   UNL     1      -0.460   9.679  18.234  0.00  0.00    +0.000 N 
ATOM      6  C   UNL     1      -1.618  10.121  17.659  0.00  0.00    +0.000 A 
ATOM      7  C   UNL     1      -2.365   9.545  16.630  0.00  0.00    +0.000 A 
ATOM      8  C   UNL     1      -3.521  10.209  16.237  0.00  0.00    +0.000 A 
ATOM      9  C   UNL     1      -3.894  11.411  16.845  0.00  0.00    +0.000 A 
ATOM     10  C   UNL     1      -3.128  11.967  17.883  0.00  0.00    +0.000 A 
ATOM     11  C   UNL     1      -1.967  11.299  18.315  0.00  0.00    +0.000 A 
ATOM     12  C   UNL     1       0.971  10.089  20.268  0.00  0.00    +0.000 C 
ATOM     13  N   UNL     1       1.158  11.198  21.248  0.00  0.00    +0.000 NA
ATOM     14  H   UNL     1      -0.017   8.804  17.998  0.00  0.00    +0.000 HD
ATOM     15  H   UNL     1       1.777  11.874  20.800  0.00  0.00    +0.000 HD
ENDROOT
BRANCH   1  16
ATOM     16  C   UNL     1      -0.988  11.190  22.597  0.00  0.00    +0.000 C 
ATOM     17  O   UNL     1      -0.593  10.431  23.475  0.00  0.00    +0.000 OA
BRANCH  16  19
ATOM     18  C   UNL     1      -2.830  12.267  23.587  0.00  0.00    +0.000 C 
ATOM     19  O   UNL     1      -2.296  11.571  22.462  0.00  0.00    +0.000 OA
ENDBRANCH  16  19
ENDBRANCH   1  16
BRANCH  12  20
ATOM     20  C   UNL     1       0.794   8.706  20.943  0.00  0.00    +0.000 C 
BRANCH  20  21
ATOM     21  C   UNL     1       1.850   7.655  20.515  0.00  0.00    +0.000 C 
ATOM     22  O   UNL     1       1.331   6.344  20.750  0.00  0.00    +0.000 OA
ATOM     23  C   UNL     1       2.310   5.341  20.460  0.00  0.00    +0.000 C 
ATOM     24  C   UNL     1       2.794   5.433  19.001  0.00  0.00    +0.000 C 
ATOM     25  C   UNL     1       3.278   6.877  18.784  0.00  0.00    +0.000 C 
ATOM     26  C   UNL     1       3.730   7.162  17.352  0.00  0.00    +0.000 C 
ATOM     27  O   UNL     1       2.222   7.781  19.142  0.00  0.00    +0.000 OA
BRANCH  24  28
ATOM     28  N   UNL     1       1.701   5.094  18.065  0.00  0.00    +0.000 NA
ATOM     29  H   UNL     1       0.833   5.058  18.609  0.00  0.00    +0.000 HD
ATOM     30  H   UNL     1       1.828   4.142  17.722  0.00  0.00    +0.000 HD
ENDBRANCH  24  28
ENDBRANCH  20  21
ENDBRANCH  12  20
TORSDOF 5
ENDMDL
