MODEL 1
REMARK VINA RESULT:      -6.8      0.000      0.000
REMARK  Name = 
REMARK  6 active torsions:
REMARK  status: ('A' for Active; 'I' for Inactive)
REMARK    1  A    between atoms: C_1  and  C_2
REMARK    2  A    between atoms: C_2  and  C_3
REMARK    3  A    between atoms: C_3  and  C_4
REMARK    4  A    between atoms: C_4  and  N_5
REMARK    5  A    between atoms: N_5  and  C_6
REMARK    6  A    between atoms: C_9  and  C_10
REMARK                            x       y       z     vdW  Elec       q    Type
REMARK                         _______ _______ _______ _____ _____    ______ ____
ROOT
ATOM      1  C   UNL     1       3.473   5.536  17.930  0.00  0.00    +0.000 A 
ATOM      2  C   UNL     1       3.688   4.214  18.113  0.00  0.00    +0.000 A 
ATOM      3  C   UNL     1       3.154   3.524  19.277  0.00  0.00    +0.000 A 
ATOM      4  C   UNL     1       2.405   4.153  20.198  0.00  0.00    +0.000 A 
ATOM      5  C   UNL     1       2.150   5.547  20.050  0.00  0.00    +0.000 A 
ATOM      6  N   UNL     1       1.474   6.360  20.828  0.00  0.00    +0.000 NA
ATOM      7  C   UNL     1       1.519   7.578  20.216  0.00  0.00    +0.000 A 
ATOM      8  C   UNL     1       0.933   8.782  20.642  0.00  0.00    +0.000 A 
ATOM      9  C   UNL     1       1.078   9.929  19.860  0.00  0.00    +0.000 A 
ATOM     10  C   UNL     1       1.786   9.874  18.663  0.00  0.00    +0.000 A 
ATOM     11  C   UNL     1       2.372   8.681  18.218  0.00  0.00    +0.000 A 
ATOM     12  C   UNL     1       2.244   7.533  19.021  0.00  0.00    +0.000 A 
ATOM     13  N   UNL     1       2.683   6.208  18.925  0.00  0.00    +0.000 N 
ATOM     14  C   UNL     1       3.582   2.087  19.245  0.00  0.00    +0.000 C 
ATOM     15  C   UNL     1       3.982   1.874  17.792  0.00  0.00    +0.000 C 
ATOM     16  C   UNL     1       4.473   3.230  17.299  0.00  0.00    +0.000 C 
ENDROOT
BRANCH   1  17
ATOM     17  N   UNL     1       4.014   6.237  16.855  0.00  0.00    +0.000 N 
ATOM     18  H   UNL     1       3.869   5.793  15.956  0.00  0.00    +0.000 HD
BRANCH  17  19
ATOM     19  C   UNL     1       5.242   7.017  16.956  0.00  0.00    +0.000 C 
BRANCH  19  20
ATOM     20  C   UNL     1       6.479   6.154  16.717  0.00  0.00    +0.000 C 
BRANCH  20  22
ATOM     21  C   UNL     1       7.019   5.601  19.127  0.00  0.00    +0.000 C 
ATOM     22  C   UNL     1       7.468   6.328  17.873  0.00  0.00    +0.000 C 
ENDBRANCH  20  22
ENDBRANCH  19  20
ENDBRANCH  17  19
ENDBRANCH   1  17
BRANCH   4  23
ATOM     23  C   UNL     1       1.872   3.374  21.390  0.00  0.00    +0.000 C 
ATOM     24  N   UNL     1       1.430   2.727  22.378  0.00  0.00    +0.000 NA
ENDBRANCH   4  23
TORSDOF 5
ENDMDL
MODEL 2
REMARK VINA RESULT:      -6.8      0.839      1.325
REMARK  Name = 
REMARK  6 active torsions:
REMARK  status: ('A' for Active; 'I' for Inactive)
REMARK    1  A    between atoms: C_1  and  C_2
REMARK    2  A    between atoms: C_2  and  C_3
REMARK    3  A    between atoms: C_3  and  C_4
REMARK    4  A    between atoms: C_4  and  N_5
REMARK    5  A    between atoms: N_5  and  C_6
REMARK    6  A    between atoms: C_9  and  C_10
REMARK                            x       y       z     vdW  Elec       q    Type
REMARK                         _______ _______ _______ _____ _____    ______ ____
ROOT
ATOM      1  C   UNL     1       3.479   5.410  17.938  0.00  0.00    +0.000 A 
ATOM      2  C   UNL     1       3.663   4.086  18.145  0.00  0.00    +0.000 A 
ATOM      3  C   UNL     1       3.103   3.427  19.314  0.00  0.00    +0.000 A 
ATOM      4  C   UNL     1       2.360   4.088  20.219  0.00  0.00    +0.000 A 
ATOM      5  C   UNL     1       2.138   5.485  20.046  0.00  0.00    +0.000 A 
ATOM      6  N   UNL     1       1.474   6.325  20.805  0.00  0.00    +0.000 NA
ATOM      7  C   UNL     1       1.551   7.531  20.174  0.00  0.00    +0.000 A 
ATOM      8  C   UNL     1       0.989   8.754  20.576  0.00  0.00    +0.000 A 
ATOM      9  C   UNL     1       1.166   9.885  19.777  0.00  0.00    +0.000 A 
ATOM     10  C   UNL     1       1.882   9.795  18.587  0.00  0.00    +0.000 A 
ATOM     11  C   UNL     1       2.445   8.583  18.167  0.00  0.00    +0.000 A 
ATOM     12  C   UNL     1       2.285   7.451  18.987  0.00  0.00    +0.000 A 
ATOM     13  N   UNL     1       2.695   6.115  18.916  0.00  0.00    +0.000 N 
ATOM     14  C   UNL     1       3.499   1.981  19.309  0.00  0.00    +0.000 C 
ATOM     15  C   UNL     1       3.907   1.735  17.863  0.00  0.00    +0.000 C 
ATOM     16  C   UNL     1       4.433   3.072  17.352  0.00  0.00    +0.000 C 
ENDROOT
BRANCH   1  17
ATOM     17  N   UNL     1       4.044   6.082  16.857  0.00  0.00    +0.000 N 
ATOM     18  H   UNL     1       3.769   5.717  15.953  0.00  0.00    +0.000 HD
BRANCH  17  19
ATOM     19  C   UNL     1       5.382   6.659  16.896  0.00  0.00    +0.000 C 
BRANCH  19  20
ATOM     20  C   UNL     1       6.377   5.835  16.081  0.00  0.00    +0.000 C 
BRANCH  20  22
ATOM     21  C   UNL     1       6.362   4.007  14.333  0.00  0.00    +0.000 C 
ATOM     22  C   UNL     1       5.692   5.273  14.835  0.00  0.00    +0.000 C 
ENDBRANCH  20  22
ENDBRANCH  19  20
ENDBRANCH  17  19
ENDBRANCH   1  17
BRANCH   4  23
ATOM     23  C   UNL     1       1.800   3.340  21.418  0.00  0.00    +0.000 C 
ATOM     24  N   UNL     1       1.336   2.718  22.413  0.00  0.00    +0.000 NA
ENDBRANCH   4  23
TORSDOF 5
ENDMDL
MODEL 3
REMARK VINA RESULT:      -6.4      2.135      5.875
REMARK  Name = 
REMARK  6 active torsions:
REMARK  status: ('A' for Active; 'I' for Inactive)
REMARK    1  A    between atoms: C_1  and  C_2
REMARK    2  A    between atoms: C_2  and  C_3
REMARK    3  A    between atoms: C_3  and  C_4
REMARK    4  A    between atoms: C_4  and  N_5
REMARK    5  A    between atoms: N_5  and  C_6
REMARK    6  A    between atoms: C_9  and  C_10
REMARK                            x       y       z     vdW  Elec       q    Type
REMARK                         _______ _______ _______ _____ _____    ______ ____
ROOT
ATOM      1  C   UNL     1       4.048   4.471  18.721  0.00  0.00    +0.000 A 
ATOM      2  C   UNL     1       3.190   5.104  19.553  0.00  0.00    +0.000 A 
ATOM      3  C   UNL     1       2.720   6.449  19.261  0.00  0.00    +0.000 A 
ATOM      4  C   UNL     1       3.087   7.108  18.148  0.00  0.00    +0.000 A 
ATOM      5  C   UNL     1       3.991   6.484  17.240  0.00  0.00    +0.000 A 
ATOM      6  N   UNL     1       4.498   6.943  16.120  0.00  0.00    +0.000 NA
ATOM      7  C   UNL     1       5.284   5.940  15.634  0.00  0.00    +0.000 A 
ATOM      8  C   UNL     1       6.036   5.929  14.447  0.00  0.00    +0.000 A 
ATOM      9  C   UNL     1       6.769   4.790  14.111  0.00  0.00    +0.000 A 
ATOM     10  C   UNL     1       6.741   3.671  14.939  0.00  0.00    +0.000 A 
ATOM     11  C   UNL     1       5.993   3.661  16.122  0.00  0.00    +0.000 A 
ATOM     12  C   UNL     1       5.274   4.820  16.470  0.00  0.00    +0.000 A 
ATOM     13  N   UNL     1       4.449   5.186  17.540  0.00  0.00    +0.000 N 
ATOM     14  C   UNL     1       1.821   6.914  20.367  0.00  0.00    +0.000 C 
ATOM     15  C   UNL     1       1.424   5.620  21.063  0.00  0.00    +0.000 C 
ATOM     16  C   UNL     1       2.598   4.668  20.860  0.00  0.00    +0.000 C 
ENDROOT
BRANCH   1  17
ATOM     17  N   UNL     1       4.558   3.205  18.997  0.00  0.00    +0.000 N 
ATOM     18  H   UNL     1       5.568   3.171  19.064  0.00  0.00    +0.000 HD
BRANCH  17  19
ATOM     19  C   UNL     1       3.941   1.980  18.505  0.00  0.00    +0.000 C 
BRANCH  19  20
ATOM     20  C   UNL     1       2.593   2.253  17.841  0.00  0.00    +0.000 C 
BRANCH  20  22
ATOM     21  C   UNL     1       0.333   2.840  18.816  0.00  0.00    +0.000 C 
ATOM     22  C   UNL     1       1.456   1.821  18.770  0.00  0.00    +0.000 C 
ENDBRANCH  20  22
ENDBRANCH  19  20
ENDBRANCH  17  19
ENDBRANCH   1  17
BRANCH   4  23
ATOM     23  C   UNL     1       2.557   8.511  17.900  0.00  0.00    +0.000 C 
ATOM     24  N   UNL     1       2.118   9.675  17.693  0.00  0.00    +0.000 NA
ENDBRANCH   4  23
TORSDOF 5
ENDMDL
MODEL 4
REMARK VINA RESULT:      -6.3      1.649      4.441
REMARK  Name = 
REMARK  6 active torsions:
REMARK  status: ('A' for Active; 'I' for Inactive)
REMARK    1  A    between atoms: C_1  and  C_2
REMARK    2  A    between atoms: C_2  and  C_3
REMARK    3  A    between atoms: C_3  and  C_4
REMARK    4  A    between atoms: C_4  and  N_5
REMARK    5  A    between atoms: N_5  and  C_6
REMARK    6  A    between atoms: C_9  and  C_10
REMARK                            x       y       z     vdW  Elec       q    Type
REMARK                         _______ _______ _______ _____ _____    ______ ____
ROOT
ATOM      1  C   UNL     1       3.083   5.654  19.988  0.00  0.00    +0.000 A 
ATOM      2  C   UNL     1       3.990   4.910  19.315  0.00  0.00    +0.000 A 
ATOM      3  C   UNL     1       4.477   5.326  18.009  0.00  0.00    +0.000 A 
ATOM      4  C   UNL     1       4.077   6.471  17.430  0.00  0.00    +0.000 A 
ATOM      5  C   UNL     1       3.123   7.290  18.099  0.00  0.00    +0.000 A 
ATOM      6  N   UNL     1       2.579   8.421  17.716  0.00  0.00    +0.000 NA
ATOM      7  C   UNL     1       1.751   8.794  18.734  0.00  0.00    +0.000 A 
ATOM      8  C   UNL     1       0.949   9.945  18.817  0.00  0.00    +0.000 A 
ATOM      9  C   UNL     1       0.177  10.160  19.961  0.00  0.00    +0.000 A 
ATOM     10  C   UNL     1       0.215   9.249  21.011  0.00  0.00    +0.000 A 
ATOM     11  C   UNL     1       1.013   8.099  20.948  0.00  0.00    +0.000 A 
ATOM     12  C   UNL     1       1.771   7.873  19.785  0.00  0.00    +0.000 A 
ATOM     13  N   UNL     1       2.648   6.870  19.358  0.00  0.00    +0.000 N 
ATOM     14  C   UNL     1       5.432   4.297  17.482  0.00  0.00    +0.000 C 
ATOM     15  C   UNL     1       5.829   3.518  18.728  0.00  0.00    +0.000 C 
ATOM     16  C   UNL     1       4.627   3.598  19.663  0.00  0.00    +0.000 C 
ENDROOT
BRANCH   1  17
ATOM     17  N   UNL     1       2.557   5.258  21.216  0.00  0.00    +0.000 N 
ATOM     18  H   UNL     1       3.127   5.518  22.013  0.00  0.00    +0.000 HD
BRANCH  17  19
ATOM     19  C   UNL     1       1.793   4.029  21.390  0.00  0.00    +0.000 C 
BRANCH  19  20
ATOM     20  C   UNL     1       0.787   3.824  20.259  0.00  0.00    +0.000 C 
BRANCH  20  22
ATOM     21  C   UNL     1       1.538   2.611  18.169  0.00  0.00    +0.000 C 
ATOM     22  C   UNL     1       1.023   2.469  19.590  0.00  0.00    +0.000 C 
ENDBRANCH  20  22
ENDBRANCH  19  20
ENDBRANCH  17  19
ENDBRANCH   1  17
BRANCH   4  23
ATOM     23  C   UNL     1       4.627   6.851  16.064  0.00  0.00    +0.000 C 
ATOM     24  N   UNL     1       5.084   7.165  14.931  0.00  0.00    +0.000 NA
ENDBRANCH   4  23
TORSDOF 5
ENDMDL
MODEL 5
REMARK VINA RESULT:      -6.2      1.769      4.747
REMARK  Name = 
REMARK  6 active torsions:
REMARK  status: ('A' for Active; 'I' for Inactive)
REMARK    1  A    between atoms: C_1  and  C_2
REMARK    2  A    between atoms: C_2  and  C_3
REMARK    3  A    between atoms: C_3  and  C_4
REMARK    4  A    between atoms: C_4  and  N_5
REMARK    5  A    between atoms: N_5  and  C_6
REMARK    6  A    between atoms: C_9  and  C_10
REMARK                            x       y       z     vdW  Elec       q    Type
REMARK                         _______ _______ _______ _____ _____    ______ ____
ROOT
ATOM      1  C   UNL     1       2.885   5.241  18.825  0.00  0.00    +0.000 A 
ATOM      2  C   UNL     1       2.231   4.257  19.484  0.00  0.00    +0.000 A 
ATOM      3  C   UNL     1       2.954   3.128  20.049  0.00  0.00    +0.000 A 
ATOM      4  C   UNL     1       4.291   3.025  19.972  0.00  0.00    +0.000 A 
ATOM      5  C   UNL     1       5.026   4.037  19.289  0.00  0.00    +0.000 A 
ATOM      6  N   UNL     1       6.317   4.129  19.073  0.00  0.00    +0.000 NA
ATOM      7  C   UNL     1       6.494   5.298  18.393  0.00  0.00    +0.000 A 
ATOM      8  C   UNL     1       7.699   5.861  17.940  0.00  0.00    +0.000 A 
ATOM      9  C   UNL     1       7.674   7.087  17.273  0.00  0.00    +0.000 A 
ATOM     10  C   UNL     1       6.467   7.749  17.072  0.00  0.00    +0.000 A 
ATOM     11  C   UNL     1       5.256   7.207  17.522  0.00  0.00    +0.000 A 
ATOM     12  C   UNL     1       5.282   5.960  18.173  0.00  0.00    +0.000 A 
ATOM     13  N   UNL     1       4.315   5.119  18.734  0.00  0.00    +0.000 N 
ATOM     14  C   UNL     1       1.979   2.176  20.676  0.00  0.00    +0.000 C 
ATOM     15  C   UNL     1       0.730   3.026  20.860  0.00  0.00    +0.000 C 
ATOM     16  C   UNL     1       0.767   4.059  19.739  0.00  0.00    +0.000 C 
ENDROOT
BRANCH   1  17
ATOM     17  N   UNL     1       2.220   6.308  18.228  0.00  0.00    +0.000 N 
ATOM     18  H   UNL     1       2.294   6.329  17.218  0.00  0.00    +0.000 HD
BRANCH  17  19
ATOM     19  C   UNL     1       2.103   7.619  18.855  0.00  0.00    +0.000 C 
BRANCH  19  20
ATOM     20  C   UNL     1       1.850   8.717  17.825  0.00  0.00    +0.000 C 
BRANCH  20  22
ATOM     21  C   UNL     1      -0.224  10.110  18.223  0.00  0.00    +0.000 C 
ATOM     22  C   UNL     1       1.257   9.950  18.511  0.00  0.00    +0.000 C 
ENDBRANCH  20  22
ENDBRANCH  19  20
ENDBRANCH  17  19
ENDBRANCH   1  17
BRANCH   4  23
ATOM     23  C   UNL     1       4.987   1.821  20.588  0.00  0.00    +0.000 C 
ATOM     24  N   UNL     1       5.562   0.822  21.098  0.00  0.00    +0.000 NA
ENDBRANCH   4  23
TORSDOF 5
ENDMDL
MODEL 6
REMARK VINA RESULT:      -6.2      1.838      4.492
REMARK  Name = 
REMARK  6 active torsions:
REMARK  status: ('A' for Active; 'I' for Inactive)
REMARK    1  A    between atoms: C_1  and  C_2
REMARK    2  A    between atoms: C_2  and  C_3
REMARK    3  A    between atoms: C_3  and  C_4
REMARK    4  A    between atoms: C_4  and  N_5
REMARK    5  A    between atoms: N_5  and  C_6
REMARK    6  A    between atoms: C_9  and  C_10
REMARK                            x       y       z     vdW  Elec       q    Type
REMARK                         _______ _______ _______ _____ _____    ______ ____
ROOT
ATOM      1  C   UNL     1       3.197   5.222  18.132  0.00  0.00    +0.000 A 
ATOM      2  C   UNL     1       2.455   4.191  18.595  0.00  0.00    +0.000 A 
ATOM      3  C   UNL     1       3.060   3.128  19.382  0.00  0.00    +0.000 A 
ATOM      4  C   UNL     1       4.363   3.136  19.709  0.00  0.00    +0.000 A 
ATOM      5  C   UNL     1       5.188   4.201  19.246  0.00  0.00    +0.000 A 
ATOM      6  N   UNL     1       6.474   4.398  19.421  0.00  0.00    +0.000 NA
ATOM      7  C   UNL     1       6.755   5.574  18.790  0.00  0.00    +0.000 A 
ATOM      8  C   UNL     1       7.993   6.232  18.699  0.00  0.00    +0.000 A 
ATOM      9  C   UNL     1       8.074   7.448  18.019  0.00  0.00    +0.000 A 
ATOM     10  C   UNL     1       6.935   8.008  17.448  0.00  0.00    +0.000 A 
ATOM     11  C   UNL     1       5.691   7.370  17.534  0.00  0.00    +0.000 A 
ATOM     12  C   UNL     1       5.617   6.132  18.200  0.00  0.00    +0.000 A 
ATOM     13  N   UNL     1       4.594   5.218  18.473  0.00  0.00    +0.000 N 
ATOM     14  C   UNL     1       2.019   2.103  19.719  0.00  0.00    +0.000 C 
ATOM     15  C   UNL     1       0.710   2.848  19.498  0.00  0.00    +0.000 C 
ATOM     16  C   UNL     1       1.001   3.874  18.409  0.00  0.00    +0.000 C 
ENDROOT
BRANCH   1  17
ATOM     17  N   UNL     1       2.661   6.227  17.332  0.00  0.00    +0.000 N 
ATOM     18  H   UNL     1       3.101   6.313  16.423  0.00  0.00    +0.000 HD
BRANCH  17  19
ATOM     19  C   UNL     1       2.139   7.476  17.874  0.00  0.00    +0.000 C 
BRANCH  19  20
ATOM     20  C   UNL     1       2.257   7.523  19.396  0.00  0.00    +0.000 C 
BRANCH  20  22
ATOM     21  C   UNL     1       0.953   8.430  21.366  0.00  0.00    +0.000 C 
ATOM     22  C   UNL     1       1.430   8.686  19.948  0.00  0.00    +0.000 C 
ENDBRANCH  20  22
ENDBRANCH  19  20
ENDBRANCH  17  19
ENDBRANCH   1  17
BRANCH   4  23
ATOM     23  C   UNL     1       4.934   1.996  20.539  0.00  0.00    +0.000 C 
ATOM     24  N   UNL     1       5.407   1.051  21.227  0.00  0.00    +0.000 NA
ENDBRANCH   4  23
TORSDOF 5
ENDMDL
MODEL 7
REMARK VINA RESULT:      -6.2      1.687      6.258
REMARK  Name = 
REMARK  6 active torsions:
REMARK  status: ('A' for Active; 'I' for Inactive)
REMARK    1  A    between atoms: C_1  and  C_2
REMARK    2  A    between atoms: C_2  and  C_3
REMARK    3  A    between atoms: C_3  and  C_4
REMARK    4  A    between atoms: C_4  and  N_5
REMARK    5  A    between atoms: N_5  and  C_6
REMARK    6  A    between atoms: C_9  and  C_10
REMARK                            x       y       z     vdW  Elec       q    Type
REMARK                         _______ _______ _______ _____ _____    ______ ____
ROOT
ATOM      1  C   UNL     1       2.121   6.583  20.059  0.00  0.00    +0.000 A 
ATOM      2  C   UNL     1       1.420   7.649  20.508  0.00  0.00    +0.000 A 
ATOM      3  C   UNL     1       1.461   8.921  19.803  0.00  0.00    +0.000 A 
ATOM      4  C   UNL     1       2.164   9.087  18.670  0.00  0.00    +0.000 A 
ATOM      5  C   UNL     1       2.919   7.993  18.156  0.00  0.00    +0.000 A 
ATOM      6  N   UNL     1       3.687   7.935  17.093  0.00  0.00    +0.000 NA
ATOM      7  C   UNL     1       4.153   6.654  17.046  0.00  0.00    +0.000 A 
ATOM      8  C   UNL     1       5.004   6.079  16.088  0.00  0.00    +0.000 A 
ATOM      9  C   UNL     1       5.357   4.733  16.204  0.00  0.00    +0.000 A 
ATOM     10  C   UNL     1       4.858   3.968  17.253  0.00  0.00    +0.000 A 
ATOM     11  C   UNL     1       4.003   4.522  18.215  0.00  0.00    +0.000 A 
ATOM     12  C   UNL     1       3.669   5.885  18.108  0.00  0.00    +0.000 A 
ATOM     13  N   UNL     1       2.882   6.769  18.854  0.00  0.00    +0.000 N 
ATOM     14  C   UNL     1       0.633   9.928  20.544  0.00  0.00    +0.000 C 
ATOM     15  C   UNL     1      -0.253   9.067  21.433  0.00  0.00    +0.000 C 
ATOM     16  C   UNL     1       0.557   7.808  21.723  0.00  0.00    +0.000 C 
ENDROOT
BRANCH   1  17
ATOM     17  N   UNL     1       2.145   5.367  20.738  0.00  0.00    +0.000 N 
ATOM     18  H   UNL     1       3.075   4.993  20.884  0.00  0.00    +0.000 HD
BRANCH  17  19
ATOM     19  C   UNL     1       1.102   4.360  20.593  0.00  0.00    +0.000 C 
BRANCH  19  20
ATOM     20  C   UNL     1       1.578   2.983  21.050  0.00  0.00    +0.000 C 
BRANCH  20  22
ATOM     21  C   UNL     1       0.898   2.422  18.678  0.00  0.00    +0.000 C 
ATOM     22  C   UNL     1       1.821   2.085  19.835  0.00  0.00    +0.000 C 
ENDBRANCH  20  22
ENDBRANCH  19  20
ENDBRANCH  17  19
ENDBRANCH   1  17
BRANCH   4  23
ATOM     23  C   UNL     1       2.162  10.441  17.979  0.00  0.00    +0.000 C 
ATOM     24  N   UNL     1       2.160  11.565  17.406  0.00  0.00    +0.000 NA
ENDBRANCH   4  23
TORSDOF 5
ENDMDL
MODEL 8
REMARK VINA RESULT:      -5.9      1.249      4.892
REMARK  Name = 
REMARK  6 active torsions:
REMARK  status: ('A' for Active; 'I' for Inactive)
REMARK    1  A    between atoms: C_1  and  C_2
REMARK    2  A    between atoms: C_2  and  C_3
REMARK    3  A    between atoms: C_3  and  C_4
REMARK    4  A    between atoms: C_4  and  N_5
REMARK    5  A    between atoms: N_5  and  C_6
REMARK    6  A    between atoms: C_9  and  C_10
REMARK                            x       y       z     vdW  Elec       q    Type
REMARK                         _______ _______ _______ _____ _____    ______ ____
ROOT
ATOM      1  C   UNL     1       2.743   7.386  18.308  0.00  0.00    +0.000 A 
ATOM      2  C   UNL     1       2.213   8.625  18.419  0.00  0.00    +0.000 A 
ATOM      3  C   UNL     1       1.363   8.976  19.546  0.00  0.00    +0.000 A 
ATOM      4  C   UNL     1       1.090   8.106  20.533  0.00  0.00    +0.000 A 
ATOM      5  C   UNL     1       1.625   6.788  20.462  0.00  0.00    +0.000 A 
ATOM      6  N   UNL     1       1.473   5.780  21.289  0.00  0.00    +0.000 NA
ATOM      7  C   UNL     1       2.212   4.760  20.765  0.00  0.00    +0.000 A 
ATOM      8  C   UNL     1       2.391   3.467  21.285  0.00  0.00    +0.000 A 
ATOM      9  C   UNL     1       3.208   2.563  20.605  0.00  0.00    +0.000 A 
ATOM     10  C   UNL     1       3.849   2.946  19.431  0.00  0.00    +0.000 A 
ATOM     11  C   UNL     1       3.688   4.232  18.901  0.00  0.00    +0.000 A 
ATOM     12  C   UNL     1       2.845   5.134  19.576  0.00  0.00    +0.000 A 
ATOM     13  N   UNL     1       2.438   6.455  19.360  0.00  0.00    +0.000 N 
ATOM     14  C   UNL     1       0.884  10.389  19.388  0.00  0.00    +0.000 C 
ATOM     15  C   UNL     1       1.863  10.979  18.382  0.00  0.00    +0.000 C 
ATOM     16  C   UNL     1       2.306   9.812  17.507  0.00  0.00    +0.000 C 
ENDROOT
BRANCH   1  17
ATOM     17  N   UNL     1       3.518   7.001  17.217  0.00  0.00    +0.000 N 
ATOM     18  H   UNL     1       3.171   6.183  16.731  0.00  0.00    +0.000 HD
BRANCH  17  19
ATOM     19  C   UNL     1       4.966   7.159  17.181  0.00  0.00    +0.000 C 
BRANCH  19  20
ATOM     20  C   UNL     1       5.628   6.109  16.291  0.00  0.00    +0.000 C 
BRANCH  20  22
ATOM     21  C   UNL     1       7.558   6.909  17.718  0.00  0.00    +0.000 C 
ATOM     22  C   UNL     1       7.049   5.828  16.783  0.00  0.00    +0.000 C 
ENDBRANCH  20  22
ENDBRANCH  19  20
ENDBRANCH  17  19
ENDBRANCH   1  17
BRANCH   4  23
ATOM     23  C   UNL     1       0.197   8.538  21.685  0.00  0.00    +0.000 C 
ATOM     24  N   UNL     1      -0.544   8.896  22.641  0.00  0.00    +0.000 NA
ENDBRANCH   4  23
TORSDOF 5
ENDMDL
MODEL 9
REMARK VINA RESULT:      -5.9      6.133      9.783
REMARK  Name = 
REMARK  6 active torsions:
REMARK  status: ('A' for Active; 'I' for Inactive)
REMARK    1  A    between atoms: C_1  and  C_2
REMARK    2  A    between atoms: C_2  and  C_3
REMARK    3  A    between atoms: C_3  and  C_4
REMARK    4  A    between atoms: C_4  and  N_5
REMARK    5  A    between atoms: N_5  and  C_6
REMARK    6  A    between atoms: C_9  and  C_10
REMARK                            x       y       z     vdW  Elec       q    Type
REMARK                         _______ _______ _______ _____ _____    ______ ____
ROOT
ATOM      1  C   UNL     1      -3.718  12.040  18.796  0.00  0.00    +0.000 A 
ATOM      2  C   UNL     1      -3.469  11.332  17.672  0.00  0.00    +0.000 A 
ATOM      3  C   UNL     1      -2.196  10.656  17.480  0.00  0.00    +0.000 A 
ATOM      4  C   UNL     1      -1.229  10.676  18.414  0.00  0.00    +0.000 A 
ATOM      5  C   UNL     1      -1.443  11.409  19.617  0.00  0.00    +0.000 A 
ATOM      6  N   UNL     1      -0.641  11.585  20.641  0.00  0.00    +0.000 NA
ATOM      7  C   UNL     1      -1.342  12.346  21.530  0.00  0.00    +0.000 A 
ATOM      8  C   UNL     1      -0.929  12.798  22.795  0.00  0.00    +0.000 A 
ATOM      9  C   UNL     1      -1.806  13.558  23.571  0.00  0.00    +0.000 A 
ATOM     10  C   UNL     1      -3.081  13.853  23.098  0.00  0.00    +0.000 A 
ATOM     11  C   UNL     1      -3.513  13.406  21.843  0.00  0.00    +0.000 A 
ATOM     12  C   UNL     1      -2.618  12.660  21.053  0.00  0.00    +0.000 A 
ATOM     13  N   UNL     1      -2.676  12.070  19.786  0.00  0.00    +0.000 N 
ATOM     14  C   UNL     1      -2.181   9.992  16.136  0.00  0.00    +0.000 C 
ATOM     15  C   UNL     1      -3.655   9.919  15.765  0.00  0.00    +0.000 C 
ATOM     16  C   UNL     1      -4.309  11.115  16.449  0.00  0.00    +0.000 C 
ENDROOT
BRANCH   1  17
ATOM     17  N   UNL     1      -4.905  12.742  18.988  0.00  0.00    +0.000 N 
ATOM     18  H   UNL     1      -4.781  13.741  19.106  0.00  0.00    +0.000 HD
BRANCH  17  19
ATOM     19  C   UNL     1      -6.047  12.184  19.702  0.00  0.00    +0.000 C 
BRANCH  19  20
ATOM     20  C   UNL     1      -6.966  11.397  18.769  0.00  0.00    +0.000 C 
BRANCH  20  22
ATOM     21  C   UNL     1      -7.528   9.611  20.471  0.00  0.00    +0.000 C 
ATOM     22  C   UNL     1      -6.911   9.908  19.117  0.00  0.00    +0.000 C 
ENDBRANCH  20  22
ENDBRANCH  19  20
ENDBRANCH  17  19
ENDBRANCH   1  17
BRANCH   4  23
ATOM     23  C   UNL     1       0.078   9.945  18.154  0.00  0.00    +0.000 C 
ATOM     24  N   UNL     1       1.162   9.338  17.939  0.00  0.00    +0.000 NA
ENDBRANCH   4  23
TORSDOF 5
ENDMDL
