MODEL 1
REMARK VINA RESULT:      -6.5      0.000      0.000
REMARK  Name = 
REMARK  8 active torsions:
REMARK  status: ('A' for Active; 'I' for Inactive)
REMARK    1  A    between atoms: C_1  and  C_2
REMARK    2  A    between atoms: C_5  and  N_6
REMARK    3  A    between atoms: N_9  and  C_10
REMARK    4  A    between atoms: C_10  and  C_11
REMARK    5  A    between atoms: C_11  and  S_12
REMARK    6  A    between atoms: S_12  and  C_13
REMARK    7  A    between atoms: C_13  and  N_15
REMARK    8  A    between atoms: C_18  and  O_19
REMARK                            x       y       z     vdW  Elec       q    Type
REMARK                         _______ _______ _______ _____ _____    ______ ____
ROOT
ATOM      1  C   UNL     1       5.017   3.649  18.784  0.00  0.00    +0.000 C 
ENDROOT
BRANCH   1   2
ATOM      2  C   UNL     1       4.208   2.648  19.616  0.00  0.00    +0.000 C 
BRANCH   2   8
ATOM      3  C   UNL     1       2.868   2.300  16.832  0.00  0.00    +0.000 C 
ATOM      4  C   UNL     1       2.163   2.564  18.116  0.00  0.00    +0.000 A 
ATOM      5  N   UNL     1       0.852   2.661  18.216  0.00  0.00    +0.000 NA
ATOM      6  C   UNL     1       0.583   2.897  19.532  0.00  0.00    +0.000 A 
ATOM      7  C   UNL     1       1.750   2.960  20.252  0.00  0.00    +0.000 A 
ATOM      8  N   UNL     1       2.772   2.738  19.354  0.00  0.00    +0.000 N 
BRANCH   7   9
ATOM      9  N   UNL     1       1.874   3.204  21.646  0.00  0.00    +0.000 N 
ATOM     10  O   UNL     1       2.400   4.274  21.975  0.00  0.00    +0.000 OA
ATOM     11  O   UNL     1       1.469   2.336  22.425  0.00  0.00    +0.000 OA
ENDBRANCH   7   9
ENDBRANCH   2   8
ENDBRANCH   1   2
BRANCH   1  12
ATOM     12  S   UNL     1       4.873   5.348  19.444  0.00  0.00    +0.000 S 
BRANCH  12  13
ATOM     13  C   UNL     1       4.538   6.327  17.993  0.00  0.00    +0.000 C 
ATOM     14  S   UNL     1       3.137   7.257  17.867  0.00  0.00    +0.000 S 
BRANCH  13  15
ATOM     15  N   UNL     1       5.496   6.230  16.966  0.00  0.00    +0.000 N 
ATOM     16  C   UNL     1       6.942   6.069  17.194  0.00  0.00    +0.000 C 
ATOM     17  C   UNL     1       7.435   4.755  16.583  0.00  0.00    +0.000 C 
ATOM     18  C   UNL     1       7.069   4.626  15.105  0.00  0.00    +0.000 C 
ATOM     19  C   UNL     1       5.583   4.892  14.870  0.00  0.00    +0.000 C 
ATOM     20  C   UNL     1       5.125   6.186  15.538  0.00  0.00    +0.000 C 
BRANCH  18  21
ATOM     21  O   UNL     1       7.870   5.502  14.314  0.00  0.00    +0.000 OA
ATOM     22  H   UNL     1       8.805   5.252  14.393  0.00  0.00    +0.000 HD
ENDBRANCH  18  21
ENDBRANCH  13  15
ENDBRANCH  12  13
ENDBRANCH   1  12
TORSDOF 7
ENDMDL
MODEL 2
REMARK VINA RESULT:      -6.4      4.382      6.274
REMARK  Name = 
REMARK  8 active torsions:
REMARK  status: ('A' for Active; 'I' for Inactive)
REMARK    1  A    between atoms: C_1  and  C_2
REMARK    2  A    between atoms: C_5  and  N_6
REMARK    3  A    between atoms: N_9  and  C_10
REMARK    4  A    between atoms: C_10  and  C_11
REMARK    5  A    between atoms: C_11  and  S_12
REMARK    6  A    between atoms: S_12  and  C_13
REMARK    7  A    between atoms: C_13  and  N_15
REMARK    8  A    between atoms: C_18  and  O_19
REMARK                            x       y       z     vdW  Elec       q    Type
REMARK                         _______ _______ _______ _____ _____    ______ ____
ROOT
ATOM      1  C   UNL     1       3.236   6.271  19.006  0.00  0.00    +0.000 C 
ENDROOT
BRANCH   1   2
ATOM      2  C   UNL     1       4.036   5.091  19.567  0.00  0.00    +0.000 C 
BRANCH   2   8
ATOM      3  C   UNL     1       4.759   3.858  16.806  0.00  0.00    +0.000 C 
ATOM      4  C   UNL     1       3.891   3.236  17.843  0.00  0.00    +0.000 A 
ATOM      5  N   UNL     1       3.334   2.048  17.704  0.00  0.00    +0.000 NA
ATOM      6  C   UNL     1       2.627   1.819  18.848  0.00  0.00    +0.000 A 
ATOM      7  C   UNL     1       2.740   2.891  19.699  0.00  0.00    +0.000 A 
ATOM      8  N   UNL     1       3.556   3.804  19.068  0.00  0.00    +0.000 N 
BRANCH   7   9
ATOM      9  N   UNL     1       2.132   3.025  20.976  0.00  0.00    +0.000 N 
ATOM     10  O   UNL     1       1.003   3.530  21.001  0.00  0.00    +0.000 OA
ATOM     11  O   UNL     1       2.771   2.651  21.965  0.00  0.00    +0.000 OA
ENDBRANCH   7   9
ENDBRANCH   2   8
ENDBRANCH   1   2
BRANCH   1  12
ATOM     12  S   UNL     1       1.989   6.870  20.200  0.00  0.00    +0.000 S 
BRANCH  12  13
ATOM     13  C   UNL     1       1.632   8.521  19.632  0.00  0.00    +0.000 C 
ATOM     14  S   UNL     1       1.862   8.962  18.020  0.00  0.00    +0.000 S 
BRANCH  13  15
ATOM     15  N   UNL     1       1.194   9.419  20.624  0.00  0.00    +0.000 N 
ATOM     16  C   UNL     1       0.753  10.797  20.356  0.00  0.00    +0.000 C 
ATOM     17  C   UNL     1      -0.706  10.983  20.782  0.00  0.00    +0.000 C 
ATOM     18  C   UNL     1      -0.943  10.576  22.236  0.00  0.00    +0.000 C 
ATOM     19  C   UNL     1      -0.392   9.180  22.525  0.00  0.00    +0.000 C 
ATOM     20  C   UNL     1       1.047   9.026  22.039  0.00  0.00    +0.000 C 
BRANCH  18  21
ATOM     21  O   UNL     1      -0.375  11.537  23.124  0.00  0.00    +0.000 OA
ATOM     22  H   UNL     1      -1.072  12.124  23.460  0.00  0.00    +0.000 HD
ENDBRANCH  18  21
ENDBRANCH  13  15
ENDBRANCH  12  13
ENDBRANCH   1  12
TORSDOF 7
ENDMDL
MODEL 3
REMARK VINA RESULT:      -6.4      4.729      6.099
REMARK  Name = 
REMARK  8 active torsions:
REMARK  status: ('A' for Active; 'I' for Inactive)
REMARK    1  A    between atoms: C_1  and  C_2
REMARK    2  A    between atoms: C_5  and  N_6
REMARK    3  A    between atoms: N_9  and  C_10
REMARK    4  A    between atoms: C_10  and  C_11
REMARK    5  A    between atoms: C_11  and  S_12
REMARK    6  A    between atoms: S_12  and  C_13
REMARK    7  A    between atoms: C_13  and  N_15
REMARK    8  A    between atoms: C_18  and  O_19
REMARK                            x       y       z     vdW  Elec       q    Type
REMARK                         _______ _______ _______ _____ _____    ______ ____
ROOT
ATOM      1  C   UNL     1       2.057   6.128  19.620  0.00  0.00    +0.000 C 
ENDROOT
BRANCH   1   2
ATOM      2  C   UNL     1       3.390   5.385  19.762  0.00  0.00    +0.000 C 
BRANCH   2   8
ATOM      3  C   UNL     1       4.472   4.600  16.955  0.00  0.00    +0.000 C 
ATOM      4  C   UNL     1       3.844   3.678  17.940  0.00  0.00    +0.000 A 
ATOM      5  N   UNL     1       3.693   2.385  17.729  0.00  0.00    +0.000 NA
ATOM      6  C   UNL     1       3.093   1.881  18.845  0.00  0.00    +0.000 A 
ATOM      7  C   UNL     1       2.858   2.883  19.753  0.00  0.00    +0.000 A 
ATOM      8  N   UNL     1       3.344   4.042  19.187  0.00  0.00    +0.000 N 
BRANCH   7   9
ATOM      9  N   UNL     1       2.237   2.748  21.023  0.00  0.00    +0.000 N 
ATOM     10  O   UNL     1       1.019   2.958  21.069  0.00  0.00    +0.000 OA
ATOM     11  O   UNL     1       2.948   2.449  21.988  0.00  0.00    +0.000 OA
ENDBRANCH   7   9
ENDBRANCH   2   8
ENDBRANCH   1   2
BRANCH   1  12
ATOM     12  S   UNL     1       2.265   7.730  18.765  0.00  0.00    +0.000 S 
BRANCH  12  13
ATOM     13  C   UNL     1       1.353   8.866  19.791  0.00  0.00    +0.000 C 
ATOM     14  S   UNL     1       1.183   8.608  21.449  0.00  0.00    +0.000 S 
BRANCH  13  15
ATOM     15  N   UNL     1       0.763   9.950  19.114  0.00  0.00    +0.000 N 
ATOM     16  C   UNL     1       0.089   9.843  17.809  0.00  0.00    +0.000 C 
ATOM     17  C   UNL     1      -1.380  10.254  17.933  0.00  0.00    +0.000 C 
ATOM     18  C   UNL     1      -1.548  11.640  18.554  0.00  0.00    +0.000 C 
ATOM     19  C   UNL     1      -0.763  11.768  19.859  0.00  0.00    +0.000 C 
ATOM     20  C   UNL     1       0.682  11.302  19.701  0.00  0.00    +0.000 C 
BRANCH  18  21
ATOM     21  O   UNL     1      -1.158  12.653  17.629  0.00  0.00    +0.000 OA
ATOM     22  H   UNL     1      -0.882  13.449  18.112  0.00  0.00    +0.000 HD
ENDBRANCH  18  21
ENDBRANCH  13  15
ENDBRANCH  12  13
ENDBRANCH   1  12
TORSDOF 7
ENDMDL
MODEL 4
REMARK VINA RESULT:      -6.3      2.514      6.088
REMARK  Name = 
REMARK  8 active torsions:
REMARK  status: ('A' for Active; 'I' for Inactive)
REMARK    1  A    between atoms: C_1  and  C_2
REMARK    2  A    between atoms: C_5  and  N_6
REMARK    3  A    between atoms: N_9  and  C_10
REMARK    4  A    between atoms: C_10  and  C_11
REMARK    5  A    between atoms: C_11  and  S_12
REMARK    6  A    between atoms: S_12  and  C_13
REMARK    7  A    between atoms: C_13  and  N_15
REMARK    8  A    between atoms: C_18  and  O_19
REMARK                            x       y       z     vdW  Elec       q    Type
REMARK                         _______ _______ _______ _____ _____    ______ ____
ROOT
ATOM      1  C   UNL     1       4.187   6.588  17.574  0.00  0.00    +0.000 C 
ENDROOT
BRANCH   1   2
ATOM      2  C   UNL     1       5.602   6.989  17.146  0.00  0.00    +0.000 C 
BRANCH   2   8
ATOM      3  C   UNL     1       5.626   4.884  14.857  0.00  0.00    +0.000 C 
ATOM      4  C   UNL     1       6.537   4.909  16.034  0.00  0.00    +0.000 A 
ATOM      5  N   UNL     1       7.495   4.023  16.227  0.00  0.00    +0.000 NA
ATOM      6  C   UNL     1       8.113   4.372  17.391  0.00  0.00    +0.000 A 
ATOM      7  C   UNL     1       7.515   5.484  17.931  0.00  0.00    +0.000 A 
ATOM      8  N   UNL     1       6.507   5.843  17.064  0.00  0.00    +0.000 N 
BRANCH   7   9
ATOM      9  N   UNL     1       7.871   6.132  19.145  0.00  0.00    +0.000 N 
ATOM     10  O   UNL     1       7.520   5.575  20.192  0.00  0.00    +0.000 OA
ATOM     11  O   UNL     1       8.483   7.202  19.074  0.00  0.00    +0.000 OA
ENDBRANCH   7   9
ENDBRANCH   2   8
ENDBRANCH   1   2
BRANCH   1  12
ATOM     12  S   UNL     1       4.146   6.003  19.306  0.00  0.00    +0.000 S 
BRANCH  12  13
ATOM     13  C   UNL     1       2.411   6.028  19.709  0.00  0.00    +0.000 C 
ATOM     14  S   UNL     1       1.723   7.323  20.542  0.00  0.00    +0.000 S 
BRANCH  13  15
ATOM     15  N   UNL     1       1.685   4.886  19.322  0.00  0.00    +0.000 N 
ATOM     16  C   UNL     1       1.593   4.393  17.938  0.00  0.00    +0.000 C 
ATOM     17  C   UNL     1       2.177   2.982  17.835  0.00  0.00    +0.000 C 
ATOM     18  C   UNL     1       1.542   2.014  18.832  0.00  0.00    +0.000 C 
ATOM     19  C   UNL     1       1.557   2.582  20.251  0.00  0.00    +0.000 C 
ATOM     20  C   UNL     1       1.012   4.007  20.298  0.00  0.00    +0.000 C 
BRANCH  18  21
ATOM     21  O   UNL     1       0.213   1.685  18.434  0.00  0.00    +0.000 OA
ATOM     22  H   UNL     1       0.195   1.491  17.482  0.00  0.00    +0.000 HD
ENDBRANCH  18  21
ENDBRANCH  13  15
ENDBRANCH  12  13
ENDBRANCH   1  12
TORSDOF 7
ENDMDL
MODEL 5
REMARK VINA RESULT:      -6.3      5.016      6.668
REMARK  Name = 
REMARK  8 active torsions:
REMARK  status: ('A' for Active; 'I' for Inactive)
REMARK    1  A    between atoms: C_1  and  C_2
REMARK    2  A    between atoms: C_5  and  N_6
REMARK    3  A    between atoms: N_9  and  C_10
REMARK    4  A    between atoms: C_10  and  C_11
REMARK    5  A    between atoms: C_11  and  S_12
REMARK    6  A    between atoms: S_12  and  C_13
REMARK    7  A    between atoms: C_13  and  N_15
REMARK    8  A    between atoms: C_18  and  O_19
REMARK                            x       y       z     vdW  Elec       q    Type
REMARK                         _______ _______ _______ _____ _____    ______ ____
ROOT
ATOM      1  C   UNL     1       2.597   6.673  19.268  0.00  0.00    +0.000 C 
ENDROOT
BRANCH   1   2
ATOM      2  C   UNL     1       3.063   5.648  18.229  0.00  0.00    +0.000 C 
BRANCH   2   8
ATOM      3  C   UNL     1       6.038   4.931  18.779  0.00  0.00    +0.000 C 
ATOM      4  C   UNL     1       4.858   4.086  19.109  0.00  0.00    +0.000 A 
ATOM      5  N   UNL     1       4.951   2.914  19.708  0.00  0.00    +0.000 NA
ATOM      6  C   UNL     1       3.676   2.451  19.845  0.00  0.00    +0.000 A 
ATOM      7  C   UNL     1       2.784   3.347  19.309  0.00  0.00    +0.000 A 
ATOM      8  N   UNL     1       3.531   4.406  18.841  0.00  0.00    +0.000 N 
BRANCH   7   9
ATOM      9  N   UNL     1       1.372   3.205  19.253  0.00  0.00    +0.000 N 
ATOM     10  O   UNL     1       0.911   2.665  18.240  0.00  0.00    +0.000 OA
ATOM     11  O   UNL     1       0.706   3.640  20.198  0.00  0.00    +0.000 OA
ENDBRANCH   7   9
ENDBRANCH   2   8
ENDBRANCH   1   2
BRANCH   1  12
ATOM     12  S   UNL     1       2.147   8.265  18.493  0.00  0.00    +0.000 S 
BRANCH  12  13
ATOM     13  C   UNL     1       1.192   9.084  19.754  0.00  0.00    +0.000 C 
ATOM     14  S   UNL     1       1.160   8.511  21.340  0.00  0.00    +0.000 S 
BRANCH  13  15
ATOM     15  N   UNL     1       0.449  10.198  19.321  0.00  0.00    +0.000 N 
ATOM     16  C   UNL     1      -0.361  10.226  18.092  0.00  0.00    +0.000 C 
ATOM     17  C   UNL     1      -1.833  10.477  18.428  0.00  0.00    +0.000 C 
ATOM     18  C   UNL     1      -2.030  11.734  19.274  0.00  0.00    +0.000 C 
ATOM     19  C   UNL     1      -1.112  11.738  20.496  0.00  0.00    +0.000 C 
ATOM     20  C   UNL     1       0.336  11.435  20.119  0.00  0.00    +0.000 C 
BRANCH  18  21
ATOM     21  O   UNL     1      -1.826  12.905  18.485  0.00  0.00    +0.000 OA
ATOM     22  H   UNL     1      -2.532  12.981  17.823  0.00  0.00    +0.000 HD
ENDBRANCH  18  21
ENDBRANCH  13  15
ENDBRANCH  12  13
ENDBRANCH   1  12
TORSDOF 7
ENDMDL
MODEL 6
REMARK VINA RESULT:      -6.2      4.930      6.614
REMARK  Name = 
REMARK  8 active torsions:
REMARK  status: ('A' for Active; 'I' for Inactive)
REMARK    1  A    between atoms: C_1  and  C_2
REMARK    2  A    between atoms: C_5  and  N_6
REMARK    3  A    between atoms: N_9  and  C_10
REMARK    4  A    between atoms: C_10  and  C_11
REMARK    5  A    between atoms: C_11  and  S_12
REMARK    6  A    between atoms: S_12  and  C_13
REMARK    7  A    between atoms: C_13  and  N_15
REMARK    8  A    between atoms: C_18  and  O_19
REMARK                            x       y       z     vdW  Elec       q    Type
REMARK                         _______ _______ _______ _____ _____    ______ ____
ROOT
ATOM      1  C   UNL     1       2.810   6.645  18.968  0.00  0.00    +0.000 C 
ENDROOT
BRANCH   1   2
ATOM      2  C   UNL     1       2.897   5.413  18.060  0.00  0.00    +0.000 C 
BRANCH   2   8
ATOM      3  C   UNL     1       0.983   3.245  19.201  0.00  0.00    +0.000 C 
ATOM      4  C   UNL     1       2.469   3.230  19.281  0.00  0.00    +0.000 A 
ATOM      5  N   UNL     1       3.155   2.255  19.844  0.00  0.00    +0.000 NA
ATOM      6  C   UNL     1       4.471   2.588  19.719  0.00  0.00    +0.000 A 
ATOM      7  C   UNL     1       4.597   3.797  19.080  0.00  0.00    +0.000 A 
ATOM      8  N   UNL     1       3.317   4.215  18.785  0.00  0.00    +0.000 N 
BRANCH   7   9
ATOM      9  N   UNL     1       5.809   4.476  18.782  0.00  0.00    +0.000 N 
ATOM     10  O   UNL     1       6.332   5.104  19.710  0.00  0.00    +0.000 OA
ATOM     11  O   UNL     1       6.244   4.409  17.629  0.00  0.00    +0.000 OA
ENDBRANCH   7   9
ENDBRANCH   2   8
ENDBRANCH   1   2
BRANCH   1  12
ATOM     12  S   UNL     1       2.313   8.137  18.036  0.00  0.00    +0.000 S 
BRANCH  12  13
ATOM     13  C   UNL     1       1.365   9.068  19.223  0.00  0.00    +0.000 C 
ATOM     14  S   UNL     1       1.201   8.546  20.818  0.00  0.00    +0.000 S 
BRANCH  13  15
ATOM     15  N   UNL     1       0.742  10.227  18.722  0.00  0.00    +0.000 N 
ATOM     16  C   UNL     1      -0.657  10.284  18.268  0.00  0.00    +0.000 C 
ATOM     17  C   UNL     1      -1.452  11.283  19.114  0.00  0.00    +0.000 C 
ATOM     18  C   UNL     1      -0.801  12.665  19.146  0.00  0.00    +0.000 C 
ATOM     19  C   UNL     1       0.677  12.581  19.524  0.00  0.00    +0.000 C 
ATOM     20  C   UNL     1       1.418  11.539  18.690  0.00  0.00    +0.000 C 
BRANCH  18  21
ATOM     21  O   UNL     1      -0.965  13.324  17.892  0.00  0.00    +0.000 OA
ATOM     22  H   UNL     1      -1.714  13.942  17.942  0.00  0.00    +0.000 HD
ENDBRANCH  18  21
ENDBRANCH  13  15
ENDBRANCH  12  13
ENDBRANCH   1  12
TORSDOF 7
ENDMDL
MODEL 7
REMARK VINA RESULT:      -6.2      4.813      6.400
REMARK  Name = 
REMARK  8 active torsions:
REMARK  status: ('A' for Active; 'I' for Inactive)
REMARK    1  A    between atoms: C_1  and  C_2
REMARK    2  A    between atoms: C_5  and  N_6
REMARK    3  A    between atoms: N_9  and  C_10
REMARK    4  A    between atoms: C_10  and  C_11
REMARK    5  A    between atoms: C_11  and  S_12
REMARK    6  A    between atoms: S_12  and  C_13
REMARK    7  A    between atoms: C_13  and  N_15
REMARK    8  A    between atoms: C_18  and  O_19
REMARK                            x       y       z     vdW  Elec       q    Type
REMARK                         _______ _______ _______ _____ _____    ______ ____
ROOT
ATOM      1  C   UNL     1       2.421   6.287  18.372  0.00  0.00    +0.000 C 
ENDROOT
BRANCH   1   2
ATOM      2  C   UNL     1       3.429   5.388  17.649  0.00  0.00    +0.000 C 
BRANCH   2   8
ATOM      3  C   UNL     1       6.146   5.310  19.159  0.00  0.00    +0.000 C 
ATOM      4  C   UNL     1       5.100   4.252  19.183  0.00  0.00    +0.000 A 
ATOM      5  N   UNL     1       5.209   3.141  19.887  0.00  0.00    +0.000 NA
ATOM      6  C   UNL     1       4.067   2.431  19.665  0.00  0.00    +0.000 A 
ATOM      7  C   UNL     1       3.247   3.110  18.798  0.00  0.00    +0.000 A 
ATOM      8  N   UNL     1       3.896   4.285  18.489  0.00  0.00    +0.000 N 
BRANCH   7   9
ATOM      9  N   UNL     1       1.979   2.681  18.319  0.00  0.00    +0.000 N 
ATOM     10  O   UNL     1       1.015   2.857  19.074  0.00  0.00    +0.000 OA
ATOM     11  O   UNL     1       1.928   2.153  17.204  0.00  0.00    +0.000 OA
ENDBRANCH   7   9
ENDBRANCH   2   8
ENDBRANCH   1   2
BRANCH   1  12
ATOM     12  S   UNL     1       2.713   8.055  18.011  0.00  0.00    +0.000 S 
BRANCH  12  13
ATOM     13  C   UNL     1       1.587   8.892  19.109  0.00  0.00    +0.000 C 
ATOM     14  S   UNL     1       1.366   8.376  20.700  0.00  0.00    +0.000 S 
BRANCH  13  15
ATOM     15  N   UNL     1       0.879   9.968  18.541  0.00  0.00    +0.000 N 
ATOM     16  C   UNL     1      -0.396   9.830  17.818  0.00  0.00    +0.000 C 
ATOM     17  C   UNL     1      -1.499  10.621  18.527  0.00  0.00    +0.000 C 
ATOM     18  C   UNL     1      -1.118  12.084  18.746  0.00  0.00    +0.000 C 
ATOM     19  C   UNL     1       0.254  12.213  19.409  0.00  0.00    +0.000 C 
ATOM     20  C   UNL     1       1.310  11.371  18.699  0.00  0.00    +0.000 C 
BRANCH  18  21
ATOM     21  O   UNL     1      -1.152  12.800  17.513  0.00  0.00    +0.000 OA
ATOM     22  H   UNL     1      -1.471  13.704  17.668  0.00  0.00    +0.000 HD
ENDBRANCH  18  21
ENDBRANCH  13  15
ENDBRANCH  12  13
ENDBRANCH   1  12
TORSDOF 7
ENDMDL
MODEL 8
REMARK VINA RESULT:      -6.2      1.558      2.339
REMARK  Name = 
REMARK  8 active torsions:
REMARK  status: ('A' for Active; 'I' for Inactive)
REMARK    1  A    between atoms: C_1  and  C_2
REMARK    2  A    between atoms: C_5  and  N_6
REMARK    3  A    between atoms: N_9  and  C_10
REMARK    4  A    between atoms: C_10  and  C_11
REMARK    5  A    between atoms: C_11  and  S_12
REMARK    6  A    between atoms: S_12  and  C_13
REMARK    7  A    between atoms: C_13  and  N_15
REMARK    8  A    between atoms: C_18  and  O_19
REMARK                            x       y       z     vdW  Elec       q    Type
REMARK                         _______ _______ _______ _____ _____    ______ ____
ROOT
ATOM      1  C   UNL     1       4.450   3.191  17.727  0.00  0.00    +0.000 C 
ENDROOT
BRANCH   1   2
ATOM      2  C   UNL     1       3.840   1.939  18.365  0.00  0.00    +0.000 C 
BRANCH   2   8
ATOM      3  C   UNL     1       4.934   1.661  21.262  0.00  0.00    +0.000 C 
ATOM      4  C   UNL     1       3.578   2.141  20.881  0.00  0.00    +0.000 A 
ATOM      5  N   UNL     1       2.674   2.531  21.759  0.00  0.00    +0.000 NA
ATOM      6  C   UNL     1       1.575   2.901  21.041  0.00  0.00    +0.000 A 
ATOM      7  C   UNL     1       1.803   2.723  19.699  0.00  0.00    +0.000 A 
ATOM      8  N   UNL     1       3.089   2.243  19.582  0.00  0.00    +0.000 N 
BRANCH   7   9
ATOM      9  N   UNL     1       0.889   2.984  18.643  0.00  0.00    +0.000 N 
ATOM     10  O   UNL     1       0.007   2.137  18.453  0.00  0.00    +0.000 OA
ATOM     11  O   UNL     1       1.043   4.016  17.983  0.00  0.00    +0.000 OA
ENDBRANCH   7   9
ENDBRANCH   2   8
ENDBRANCH   1   2
BRANCH   1  12
ATOM     12  S   UNL     1       4.483   4.597  18.894  0.00  0.00    +0.000 S 
BRANCH  12  13
ATOM     13  C   UNL     1       4.467   6.022  17.825  0.00  0.00    +0.000 C 
ATOM     14  S   UNL     1       3.292   7.222  17.981  0.00  0.00    +0.000 S 
BRANCH  13  15
ATOM     15  N   UNL     1       5.466   6.043  16.834  0.00  0.00    +0.000 N 
ATOM     16  C   UNL     1       6.902   5.862  17.102  0.00  0.00    +0.000 C 
ATOM     17  C   UNL     1       7.430   4.626  16.367  0.00  0.00    +0.000 C 
ATOM     18  C   UNL     1       7.125   4.664  14.871  0.00  0.00    +0.000 C 
ATOM     19  C   UNL     1       5.647   4.951  14.606  0.00  0.00    +0.000 C 
ATOM     20  C   UNL     1       5.153   6.160  15.396  0.00  0.00    +0.000 C 
BRANCH  18  21
ATOM     21  O   UNL     1       7.951   5.626  14.216  0.00  0.00    +0.000 OA
ATOM     22  H   UNL     1       8.885   5.379  14.318  0.00  0.00    +0.000 HD
ENDBRANCH  18  21
ENDBRANCH  13  15
ENDBRANCH  12  13
ENDBRANCH   1  12
TORSDOF 7
ENDMDL
MODEL 9
REMARK VINA RESULT:      -6.1      5.292      6.902
REMARK  Name = 
REMARK  8 active torsions:
REMARK  status: ('A' for Active; 'I' for Inactive)
REMARK    1  A    between atoms: C_1  and  C_2
REMARK    2  A    between atoms: C_5  and  N_6
REMARK    3  A    between atoms: N_9  and  C_10
REMARK    4  A    between atoms: C_10  and  C_11
REMARK    5  A    between atoms: C_11  and  S_12
REMARK    6  A    between atoms: S_12  and  C_13
REMARK    7  A    between atoms: C_13  and  N_15
REMARK    8  A    between atoms: C_18  and  O_19
REMARK                            x       y       z     vdW  Elec       q    Type
REMARK                         _______ _______ _______ _____ _____    ______ ____
ROOT
ATOM      1  C   UNL     1       2.438   7.406  18.919  0.00  0.00    +0.000 C 
ENDROOT
BRANCH   1   2
ATOM      2  C   UNL     1       2.570   6.191  17.996  0.00  0.00    +0.000 C 
BRANCH   2   8
ATOM      3  C   UNL     1       5.668   5.936  17.913  0.00  0.00    +0.000 C 
ATOM      4  C   UNL     1       4.730   4.999  18.589  0.00  0.00    +0.000 A 
ATOM      5  N   UNL     1       5.127   3.937  19.264  0.00  0.00    +0.000 NA
ATOM      6  C   UNL     1       3.998   3.338  19.738  0.00  0.00    +0.000 A 
ATOM      7  C   UNL     1       2.886   4.035  19.336  0.00  0.00    +0.000 A 
ATOM      8  N   UNL     1       3.343   5.109  18.604  0.00  0.00    +0.000 N 
BRANCH   7   9
ATOM      9  N   UNL     1       1.532   3.710  19.622  0.00  0.00    +0.000 N 
ATOM     10  O   UNL     1       1.053   2.749  19.006  0.00  0.00    +0.000 OA
ATOM     11  O   UNL     1       0.928   4.407  20.442  0.00  0.00    +0.000 OA
ENDBRANCH   7   9
ENDBRANCH   2   8
ENDBRANCH   1   2
BRANCH   1  12
ATOM     12  S   UNL     1       1.951   8.907  17.996  0.00  0.00    +0.000 S 
BRANCH  12  13
ATOM     13  C   UNL     1       0.733   9.665  19.052  0.00  0.00    +0.000 C 
ATOM     14  S   UNL     1       0.812   9.514  20.730  0.00  0.00    +0.000 S 
BRANCH  13  15
ATOM     15  N   UNL     1      -0.301  10.350  18.386  0.00  0.00    +0.000 N 
ATOM     16  C   UNL     1      -1.161   9.748  17.354  0.00  0.00    +0.000 C 
ATOM     17  C   UNL     1      -2.625   9.767  17.802  0.00  0.00    +0.000 C 
ATOM     18  C   UNL     1      -3.094  11.167  18.197  0.00  0.00    +0.000 C 
ATOM     19  C   UNL     1      -2.138  11.818  19.196  0.00  0.00    +0.000 C 
ATOM     20  C   UNL     1      -0.687  11.732  18.731  0.00  0.00    +0.000 C 
BRANCH  18  21
ATOM     21  O   UNL     1      -3.252  11.987  17.041  0.00  0.00    +0.000 OA
ATOM     22  H   UNL     1      -2.398  12.382  16.800  0.00  0.00    +0.000 HD
ENDBRANCH  18  21
ENDBRANCH  13  15
ENDBRANCH  12  13
ENDBRANCH   1  12
TORSDOF 7
ENDMDL
