MODEL 1
REMARK VINA RESULT:      -9.0      0.000      0.000
REMARK  Name = 
REMARK  10 active torsions:
REMARK  status: ('A' for Active; 'I' for Inactive)
REMARK    1  A    between atoms: C_1  and  O_2
REMARK    2  A    between atoms: O_2  and  C_3
REMARK    3  A    between atoms: C_5  and  C_6
REMARK    4  A    between atoms: C_6  and  N_7
REMARK    5  A    between atoms: C_15  and  O_16
REMARK    6  A    between atoms: O_16  and  C_17
REMARK    7  A    between atoms: C_17  and  C_18
REMARK    8  A    between atoms: C_18  and  C_19
REMARK    9  A    between atoms: C_19  and  N_20
REMARK   10  A    between atoms: C_23  and  C_24
REMARK                            x       y       z     vdW  Elec       q    Type
REMARK                         _______ _______ _______ _____ _____    ______ ____
ROOT
ATOM      1  C   UNL     1       1.755   5.362  20.957  0.00  0.00    +0.000 C 
ENDROOT
BRANCH   1   2
ATOM      2  C   UNL     1       2.432   6.208  19.884  0.00  0.00    +0.000 C 
BRANCH   2   3
ATOM      3  O   UNL     1       2.533   7.548  20.355  0.00  0.00    +0.000 OA
BRANCH   3   9
ATOM      4  C   UNL     1       0.481   8.903  20.829  0.00  0.00    +0.000 A 
ATOM      5  C   UNL     1      -0.462   9.781  20.271  0.00  0.00    +0.000 A 
ATOM      6  C   UNL     1      -0.436  10.111  18.908  0.00  0.00    +0.000 A 
ATOM      7  C   UNL     1       0.622   9.644  18.127  0.00  0.00    +0.000 A 
ATOM      8  C   UNL     1       1.590   8.808  18.680  0.00  0.00    +0.000 A 
ATOM      9  C   UNL     1       1.519   8.409  20.019  0.00  0.00    +0.000 A 
BRANCH   4  11
ATOM     10  C   UNL     1      -0.025   9.562  23.063  0.00  0.00    +0.000 C 
ATOM     11  O   UNL     1       0.444   8.568  22.156  0.00  0.00    +0.000 OA
ENDBRANCH   4  11
BRANCH   6  12
ATOM     12  C   UNL     1      -1.525  10.961  18.301  0.00  0.00    +0.000 C 
BRANCH  12  13
ATOM     13  N   UNL     1      -2.676  10.271  17.720  0.00  0.00    +0.000 NA
ATOM     14  C   UNL     1      -2.563   9.849  16.320  0.00  0.00    +0.000 C 
ATOM     15  C   UNL     1      -3.159  10.823  15.288  0.00  0.00    +0.000 C 
ATOM     16  O   UNL     1      -4.501  11.192  15.621  0.00  0.00    +0.000 OA
ATOM     17  C   UNL     1      -4.555  11.785  16.923  0.00  0.00    +0.000 C 
ATOM     18  C   UNL     1      -4.000  10.836  18.000  0.00  0.00    +0.000 C 
ENDBRANCH  12  13
ENDBRANCH   6  12
ENDBRANCH   3   9
ENDBRANCH   2   3
ENDBRANCH   1   2
BRANCH   1  19
ATOM     19  C   UNL     1       0.932   4.232  20.330  0.00  0.00    +0.000 C 
BRANCH  19  20
ATOM     20  N   UNL     1       1.686   3.399  19.372  0.00  0.00    +0.000 NA
ATOM     21  C   UNL     1       1.764   4.028  18.047  0.00  0.00    +0.000 C 
ATOM     22  C   UNL     1       2.471   3.108  17.062  0.00  0.00    +0.000 C 
ATOM     23  C   UNL     1       3.906   2.780  17.510  0.00  0.00    +0.000 C 
ATOM     24  C   UNL     1       3.873   2.256  18.946  0.00  0.00    +0.000 C 
ATOM     25  C   UNL     1       3.022   3.094  19.903  0.00  0.00    +0.000 C 
BRANCH  23  26
ATOM     26  C   UNL     1       4.872   3.891  17.150  0.00  0.00    +0.000 A 
ATOM     27  N   UNL     1       4.892   4.214  15.839  0.00  0.00    +0.000 NA
ATOM     28  O   UNL     1       5.784   5.242  15.695  0.00  0.00    +0.000 OA
ATOM     29  C   UNL     1       6.343   5.530  16.889  0.00  0.00    +0.000 A 
ATOM     30  C   UNL     1       7.301   6.522  17.092  0.00  0.00    +0.000 A 
ATOM     31  C   UNL     1       7.762   6.657  18.392  0.00  0.00    +0.000 A 
ATOM     32  F   UNL     1       8.673   7.592  18.666  0.00  0.00    +0.000 F 
ATOM     33  C   UNL     1       7.293   5.843  19.425  0.00  0.00    +0.000 A 
ATOM     34  C   UNL     1       6.321   4.850  19.184  0.00  0.00    +0.000 A 
ATOM     35  C   UNL     1       5.820   4.693  17.867  0.00  0.00    +0.000 A 
ENDBRANCH  23  26
ENDBRANCH  19  20
ENDBRANCH   1  19
TORSDOF 9
ENDMDL
MODEL 2
REMARK VINA RESULT:      -8.5      2.852      3.859
REMARK  Name = 
REMARK  10 active torsions:
REMARK  status: ('A' for Active; 'I' for Inactive)
REMARK    1  A    between atoms: C_1  and  O_2
REMARK    2  A    between atoms: O_2  and  C_3
REMARK    3  A    between atoms: C_5  and  C_6
REMARK    4  A    between atoms: C_6  and  N_7
REMARK    5  A    between atoms: C_15  and  O_16
REMARK    6  A    between atoms: O_16  and  C_17
REMARK    7  A    between atoms: C_17  and  C_18
REMARK    8  A    between atoms: C_18  and  C_19
REMARK    9  A    between atoms: C_19  and  N_20
REMARK   10  A    between atoms: C_23  and  C_24
REMARK                            x       y       z     vdW  Elec       q    Type
REMARK                         _______ _______ _______ _____ _____    ______ ____
ROOT
ATOM      1  C   UNL     1       1.811   5.821  20.718  0.00  0.00    +0.000 C 
ENDROOT
BRANCH   1   2
ATOM      2  C   UNL     1       0.819   6.895  21.152  0.00  0.00    +0.000 C 
BRANCH   2   3
ATOM      3  O   UNL     1       1.458   8.165  21.075  0.00  0.00    +0.000 OA
BRANCH   3   9
ATOM      4  C   UNL     1       0.562  10.468  20.671  0.00  0.00    +0.000 A 
ATOM      5  C   UNL     1      -0.270  11.476  21.184  0.00  0.00    +0.000 A 
ATOM      6  C   UNL     1      -0.896  11.342  22.433  0.00  0.00    +0.000 A 
ATOM      7  C   UNL     1      -0.777  10.129  23.113  0.00  0.00    +0.000 A 
ATOM      8  C   UNL     1       0.010   9.103  22.592  0.00  0.00    +0.000 A 
ATOM      9  C   UNL     1       0.704   9.267  21.389  0.00  0.00    +0.000 A 
BRANCH   4  11
ATOM     10  C   UNL     1       0.663   9.856  18.370  0.00  0.00    +0.000 C 
ATOM     11  O   UNL     1       1.187  10.608  19.461  0.00  0.00    +0.000 OA
ENDBRANCH   4  11
BRANCH   6  12
ATOM     12  C   UNL     1      -1.691  12.481  23.022  0.00  0.00    +0.000 C 
BRANCH  12  13
ATOM     13  N   UNL     1      -1.251  13.842  22.713  0.00  0.00    +0.000 NA
ATOM     14  C   UNL     1      -1.009  14.737  23.849  0.00  0.00    +0.000 C 
ATOM     15  C   UNL     1      -2.185  15.654  24.228  0.00  0.00    +0.000 C 
ATOM     16  O   UNL     1      -2.689  16.366  23.093  0.00  0.00    +0.000 OA
ATOM     17  C   UNL     1      -3.105  15.455  22.069  0.00  0.00    +0.000 C 
ATOM     18  C   UNL     1      -1.953  14.536  21.629  0.00  0.00    +0.000 C 
ENDBRANCH  12  13
ENDBRANCH   6  12
ENDBRANCH   3   9
ENDBRANCH   2   3
ENDBRANCH   1   2
BRANCH   1  19
ATOM     19  C   UNL     1       1.102   4.487  20.459  0.00  0.00    +0.000 C 
BRANCH  19  20
ATOM     20  N   UNL     1       1.763   3.639  19.447  0.00  0.00    +0.000 NA
ATOM     21  C   UNL     1       1.837   4.308  18.142  0.00  0.00    +0.000 C 
ATOM     22  C   UNL     1       2.444   3.377  17.101  0.00  0.00    +0.000 C 
ATOM     23  C   UNL     1       3.869   2.939  17.484  0.00  0.00    +0.000 C 
ATOM     24  C   UNL     1       3.851   2.369  18.903  0.00  0.00    +0.000 C 
ATOM     25  C   UNL     1       3.093   3.229  19.918  0.00  0.00    +0.000 C 
BRANCH  23  26
ATOM     26  C   UNL     1       4.894   3.995  17.123  0.00  0.00    +0.000 A 
ATOM     27  N   UNL     1       4.995   4.251  15.802  0.00  0.00    +0.000 NA
ATOM     28  O   UNL     1       5.933   5.238  15.657  0.00  0.00    +0.000 OA
ATOM     29  C   UNL     1       6.440   5.565  16.864  0.00  0.00    +0.000 A 
ATOM     30  C   UNL     1       7.422   6.530  17.070  0.00  0.00    +0.000 A 
ATOM     31  C   UNL     1       7.820   6.714  18.386  0.00  0.00    +0.000 A 
ATOM     32  F   UNL     1       8.750   7.628  18.663  0.00  0.00    +0.000 F 
ATOM     33  C   UNL     1       7.266   5.970  19.430  0.00  0.00    +0.000 A 
ATOM     34  C   UNL     1       6.271   5.002  19.184  0.00  0.00    +0.000 A 
ATOM     35  C   UNL     1       5.833   4.797  17.852  0.00  0.00    +0.000 A 
ENDBRANCH  23  26
ENDBRANCH  19  20
ENDBRANCH   1  19
TORSDOF 9
ENDMDL
MODEL 3
REMARK VINA RESULT:      -8.5      6.145      9.941
REMARK  Name = 
REMARK  10 active torsions:
REMARK  status: ('A' for Active; 'I' for Inactive)
REMARK    1  A    between atoms: C_1  and  O_2
REMARK    2  A    between atoms: O_2  and  C_3
REMARK    3  A    between atoms: C_5  and  C_6
REMARK    4  A    between atoms: C_6  and  N_7
REMARK    5  A    between atoms: C_15  and  O_16
REMARK    6  A    between atoms: O_16  and  C_17
REMARK    7  A    between atoms: C_17  and  C_18
REMARK    8  A    between atoms: C_18  and  C_19
REMARK    9  A    between atoms: C_19  and  N_20
REMARK   10  A    between atoms: C_23  and  C_24
REMARK                            x       y       z     vdW  Elec       q    Type
REMARK                         _______ _______ _______ _____ _____    ______ ____
ROOT
ATOM      1  C   UNL     1       8.211   7.982  18.303  0.00  0.00    +0.000 C 
ENDROOT
BRANCH   1   2
ATOM      2  C   UNL     1       7.607   7.310  17.074  0.00  0.00    +0.000 C 
BRANCH   2   3
ATOM      3  O   UNL     1       6.196   7.227  17.246  0.00  0.00    +0.000 OA
BRANCH   3   9
ATOM      4  C   UNL     1       5.172   5.045  16.569  0.00  0.00    +0.000 A 
ATOM      5  C   UNL     1       4.668   3.823  17.043  0.00  0.00    +0.000 A 
ATOM      6  C   UNL     1       4.574   3.556  18.417  0.00  0.00    +0.000 A 
ATOM      7  C   UNL     1       5.105   4.482  19.316  0.00  0.00    +0.000 A 
ATOM      8  C   UNL     1       5.650   5.679  18.854  0.00  0.00    +0.000 A 
ATOM      9  C   UNL     1       5.667   5.985  17.490  0.00  0.00    +0.000 A 
BRANCH   4  11
ATOM     10  C   UNL     1       6.407   4.855  14.539  0.00  0.00    +0.000 C 
ATOM     11  O   UNL     1       5.245   5.312  15.227  0.00  0.00    +0.000 OA
ENDBRANCH   4  11
BRANCH   6  12
ATOM     12  C   UNL     1       3.921   2.289  18.912  0.00  0.00    +0.000 C 
BRANCH  12  13
ATOM     13  N   UNL     1       2.514   2.363  19.306  0.00  0.00    +0.000 NA
ATOM     14  C   UNL     1       1.654   3.266  18.534  0.00  0.00    +0.000 C 
ATOM     15  C   UNL     1       1.461   4.668  19.138  0.00  0.00    +0.000 C 
ATOM     16  O   UNL     1       1.061   4.604  20.511  0.00  0.00    +0.000 OA
ATOM     17  C   UNL     1       2.024   3.880  21.284  0.00  0.00    +0.000 C 
ATOM     18  C   UNL     1       2.230   2.455  20.742  0.00  0.00    +0.000 C 
ENDBRANCH  12  13
ENDBRANCH   6  12
ENDBRANCH   3   9
ENDBRANCH   2   3
ENDBRANCH   1   2
BRANCH   1  19
ATOM     19  C   UNL     1       8.228   9.506  18.145  0.00  0.00    +0.000 C 
BRANCH  19  20
ATOM     20  N   UNL     1       9.405  10.162  18.750  0.00  0.00    +0.000 NA
ATOM     21  C   UNL     1       9.997  11.157  17.847  0.00  0.00    +0.000 C 
ATOM     22  C   UNL     1      11.257  11.751  18.464  0.00  0.00    +0.000 C 
ATOM     23  C   UNL     1      10.965  12.450  19.804  0.00  0.00    +0.000 C 
ATOM     24  C   UNL     1      10.214  11.481  20.718  0.00  0.00    +0.000 C 
ATOM     25  C   UNL     1       9.046  10.756  20.045  0.00  0.00    +0.000 C 
BRANCH  23  26
ATOM     26  C   UNL     1      10.418  13.848  19.598  0.00  0.00    +0.000 A 
ATOM     27  N   UNL     1       9.437  14.198  20.456  0.00  0.00    +0.000 NA
ATOM     28  O   UNL     1       9.082  15.485  20.153  0.00  0.00    +0.000 OA
ATOM     29  C   UNL     1       9.801  15.919  19.097  0.00  0.00    +0.000 A 
ATOM     30  C   UNL     1       9.680  17.184  18.527  0.00  0.00    +0.000 A 
ATOM     31  C   UNL     1      10.501  17.437  17.439  0.00  0.00    +0.000 A 
ATOM     32  F   UNL     1      10.448  18.631  16.847  0.00  0.00    +0.000 F 
ATOM     33  C   UNL     1      11.387  16.474  16.951  0.00  0.00    +0.000 A 
ATOM     34  C   UNL     1      11.485  15.204  17.554  0.00  0.00    +0.000 A 
ATOM     35  C   UNL     1      10.668  14.917  18.676  0.00  0.00    +0.000 A 
ENDBRANCH  23  26
ENDBRANCH  19  20
ENDBRANCH   1  19
TORSDOF 9
ENDMDL
MODEL 4
REMARK VINA RESULT:      -8.4      2.894      3.749
REMARK  Name = 
REMARK  10 active torsions:
REMARK  status: ('A' for Active; 'I' for Inactive)
REMARK    1  A    between atoms: C_1  and  O_2
REMARK    2  A    between atoms: O_2  and  C_3
REMARK    3  A    between atoms: C_5  and  C_6
REMARK    4  A    between atoms: C_6  and  N_7
REMARK    5  A    between atoms: C_15  and  O_16
REMARK    6  A    between atoms: O_16  and  C_17
REMARK    7  A    between atoms: C_17  and  C_18
REMARK    8  A    between atoms: C_18  and  C_19
REMARK    9  A    between atoms: C_19  and  N_20
REMARK   10  A    between atoms: C_23  and  C_24
REMARK                            x       y       z     vdW  Elec       q    Type
REMARK                         _______ _______ _______ _____ _____    ______ ____
ROOT
ATOM      1  C   UNL     1       1.870   6.070  20.734  0.00  0.00    +0.000 C 
ENDROOT
BRANCH   1   2
ATOM      2  C   UNL     1       0.911   7.082  21.351  0.00  0.00    +0.000 C 
BRANCH   2   3
ATOM      3  O   UNL     1       0.985   8.294  20.608  0.00  0.00    +0.000 OA
BRANCH   3   9
ATOM      4  C   UNL     1      -0.012  10.586  20.459  0.00  0.00    +0.000 A 
ATOM      5  C   UNL     1      -0.724  11.570  21.164  0.00  0.00    +0.000 A 
ATOM      6  C   UNL     1      -1.056  11.403  22.517  0.00  0.00    +0.000 A 
ATOM      7  C   UNL     1      -0.771  10.182  23.130  0.00  0.00    +0.000 A 
ATOM      8  C   UNL     1      -0.104   9.180  22.427  0.00  0.00    +0.000 A 
ATOM      9  C   UNL     1       0.303   9.376  21.103  0.00  0.00    +0.000 A 
BRANCH   4  11
ATOM     10  C   UNL     1      -0.526  11.586  18.358  0.00  0.00    +0.000 C 
ATOM     11  O   UNL     1       0.327  10.758  19.144  0.00  0.00    +0.000 OA
ENDBRANCH   4  11
BRANCH   6  12
ATOM     12  C   UNL     1      -1.716  12.518  23.291  0.00  0.00    +0.000 C 
BRANCH  12  13
ATOM     13  N   UNL     1      -2.719  13.323  22.594  0.00  0.00    +0.000 NA
ATOM     14  C   UNL     1      -2.772  14.751  22.921  0.00  0.00    +0.000 C 
ATOM     15  C   UNL     1      -3.809  15.145  23.988  0.00  0.00    +0.000 C 
ATOM     16  O   UNL     1      -5.107  14.626  23.682  0.00  0.00    +0.000 OA
ATOM     17  C   UNL     1      -5.065  13.200  23.562  0.00  0.00    +0.000 C 
ATOM     18  C   UNL     1      -4.066  12.753  22.481  0.00  0.00    +0.000 C 
ENDBRANCH  12  13
ENDBRANCH   6  12
ENDBRANCH   3   9
ENDBRANCH   2   3
ENDBRANCH   1   2
BRANCH   1  19
ATOM     19  C   UNL     1       1.184   4.715  20.526  0.00  0.00    +0.000 C 
BRANCH  19  20
ATOM     20  N   UNL     1       1.811   3.876  19.486  0.00  0.00    +0.000 NA
ATOM     21  C   UNL     1       1.882   4.571  18.195  0.00  0.00    +0.000 C 
ATOM     22  C   UNL     1       2.453   3.650  17.125  0.00  0.00    +0.000 C 
ATOM     23  C   UNL     1       3.872   3.171  17.477  0.00  0.00    +0.000 C 
ATOM     24  C   UNL     1       3.862   2.571  18.883  0.00  0.00    +0.000 C 
ATOM     25  C   UNL     1       3.138   3.425  19.928  0.00  0.00    +0.000 C 
BRANCH  23  26
ATOM     26  C   UNL     1       4.917   4.212  17.125  0.00  0.00    +0.000 A 
ATOM     27  N   UNL     1       5.007   4.492  15.807  0.00  0.00    +0.000 NA
ATOM     28  O   UNL     1       5.964   5.461  15.670  0.00  0.00    +0.000 OA
ATOM     29  C   UNL     1       6.493   5.753  16.877  0.00  0.00    +0.000 A 
ATOM     30  C   UNL     1       7.499   6.692  17.090  0.00  0.00    +0.000 A 
ATOM     31  C   UNL     1       7.917   6.841  18.404  0.00  0.00    +0.000 A 
ATOM     32  F   UNL     1       8.871   7.728  18.687  0.00  0.00    +0.000 F 
ATOM     33  C   UNL     1       7.360   6.088  19.440  0.00  0.00    +0.000 A 
ATOM     34  C   UNL     1       6.340   5.147  19.187  0.00  0.00    +0.000 A 
ATOM     35  C   UNL     1       5.882   4.979  17.857  0.00  0.00    +0.000 A 
ENDBRANCH  23  26
ENDBRANCH  19  20
ENDBRANCH   1  19
TORSDOF 9
ENDMDL
MODEL 5
REMARK VINA RESULT:      -8.4      6.223     10.082
REMARK  Name = 
REMARK  10 active torsions:
REMARK  status: ('A' for Active; 'I' for Inactive)
REMARK    1  A    between atoms: C_1  and  O_2
REMARK    2  A    between atoms: O_2  and  C_3
REMARK    3  A    between atoms: C_5  and  C_6
REMARK    4  A    between atoms: C_6  and  N_7
REMARK    5  A    between atoms: C_15  and  O_16
REMARK    6  A    between atoms: O_16  and  C_17
REMARK    7  A    between atoms: C_17  and  C_18
REMARK    8  A    between atoms: C_18  and  C_19
REMARK    9  A    between atoms: C_19  and  N_20
REMARK   10  A    between atoms: C_23  and  C_24
REMARK                            x       y       z     vdW  Elec       q    Type
REMARK                         _______ _______ _______ _____ _____    ______ ____
ROOT
ATOM      1  C   UNL     1       8.022   9.237  17.750  0.00  0.00    +0.000 C 
ENDROOT
BRANCH   1   2
ATOM      2  C   UNL     1       7.881   7.730  17.938  0.00  0.00    +0.000 C 
BRANCH   2   3
ATOM      3  O   UNL     1       7.049   7.216  16.903  0.00  0.00    +0.000 OA
BRANCH   3   9
ATOM      4  C   UNL     1       5.650   5.232  16.291  0.00  0.00    +0.000 A 
ATOM      5  C   UNL     1       4.967   4.115  16.799  0.00  0.00    +0.000 A 
ATOM      6  C   UNL     1       4.881   3.877  18.180  0.00  0.00    +0.000 A 
ATOM      7  C   UNL     1       5.592   4.708  19.047  0.00  0.00    +0.000 A 
ATOM      8  C   UNL     1       6.312   5.794  18.550  0.00  0.00    +0.000 A 
ATOM      9  C   UNL     1       6.329   6.082  17.182  0.00  0.00    +0.000 A 
BRANCH   4  11
ATOM     10  C   UNL     1       6.017   4.362  14.102  0.00  0.00    +0.000 C 
ATOM     11  O   UNL     1       5.718   5.472  14.945  0.00  0.00    +0.000 OA
ENDBRANCH   4  11
BRANCH   6  12
ATOM     12  C   UNL     1       4.044   2.741  18.714  0.00  0.00    +0.000 C 
BRANCH  12  13
ATOM     13  N   UNL     1       2.616   2.989  18.913  0.00  0.00    +0.000 NA
ATOM     14  C   UNL     1       2.108   4.307  18.518  0.00  0.00    +0.000 C 
ATOM     15  C   UNL     1       2.017   5.345  19.651  0.00  0.00    +0.000 C 
ATOM     16  O   UNL     1       1.316   4.828  20.787  0.00  0.00    +0.000 OA
ATOM     17  C   UNL     1       1.952   3.643  21.277  0.00  0.00    +0.000 C 
ATOM     18  C   UNL     1       2.039   2.557  20.190  0.00  0.00    +0.000 C 
ENDBRANCH  12  13
ENDBRANCH   6  12
ENDBRANCH   3   9
ENDBRANCH   2   3
ENDBRANCH   1   2
BRANCH   1  19
ATOM     19  C   UNL     1       8.919   9.846  18.832  0.00  0.00    +0.000 C 
BRANCH  19  20
ATOM     20  N   UNL     1       9.776  10.949  18.354  0.00  0.00    +0.000 NA
ATOM     21  C   UNL     1       9.046  12.222  18.301  0.00  0.00    +0.000 C 
ATOM     22  C   UNL     1       9.931  13.319  17.724  0.00  0.00    +0.000 C 
ATOM     23  C   UNL     1      11.198  13.540  18.569  0.00  0.00    +0.000 C 
ATOM     24  C   UNL     1      11.906  12.199  18.766  0.00  0.00    +0.000 C 
ATOM     25  C   UNL     1      10.982  11.054  19.187  0.00  0.00    +0.000 C 
BRANCH  23  26
ATOM     26  C   UNL     1      10.919  14.414  19.775  0.00  0.00    +0.000 A 
ATOM     27  N   UNL     1      11.523  15.621  19.746  0.00  0.00    +0.000 NA
ATOM     28  O   UNL     1      11.145  16.285  20.882  0.00  0.00    +0.000 OA
ATOM     29  C   UNL     1      10.350  15.491  21.629  0.00  0.00    +0.000 A 
ATOM     30  C   UNL     1       9.798  15.858  22.854  0.00  0.00    +0.000 A 
ATOM     31  C   UNL     1       9.015  14.897  23.476  0.00  0.00    +0.000 A 
ATOM     32  F   UNL     1       8.445  15.180  24.647  0.00  0.00    +0.000 F 
ATOM     33  C   UNL     1       8.804  13.641  22.902  0.00  0.00    +0.000 A 
ATOM     34  C   UNL     1       9.377  13.304  21.659  0.00  0.00    +0.000 A 
ATOM     35  C   UNL     1      10.173  14.268  20.991  0.00  0.00    +0.000 A 
ENDBRANCH  23  26
ENDBRANCH  19  20
ENDBRANCH   1  19
TORSDOF 9
ENDMDL
MODEL 6
REMARK VINA RESULT:      -8.4      2.742      3.581
REMARK  Name = 
REMARK  10 active torsions:
REMARK  status: ('A' for Active; 'I' for Inactive)
REMARK    1  A    between atoms: C_1  and  O_2
REMARK    2  A    between atoms: O_2  and  C_3
REMARK    3  A    between atoms: C_5  and  C_6
REMARK    4  A    between atoms: C_6  and  N_7
REMARK    5  A    between atoms: C_15  and  O_16
REMARK    6  A    between atoms: O_16  and  C_17
REMARK    7  A    between atoms: C_17  and  C_18
REMARK    8  A    between atoms: C_18  and  C_19
REMARK    9  A    between atoms: C_19  and  N_20
REMARK   10  A    between atoms: C_23  and  C_24
REMARK                            x       y       z     vdW  Elec       q    Type
REMARK                         _______ _______ _______ _____ _____    ______ ____
ROOT
ATOM      1  C   UNL     1       1.939   5.899  21.048  0.00  0.00    +0.000 C 
ENDROOT
BRANCH   1   2
ATOM      2  C   UNL     1       1.573   7.328  20.662  0.00  0.00    +0.000 C 
BRANCH   2   3
ATOM      3  O   UNL     1       0.218   7.568  21.031  0.00  0.00    +0.000 OA
BRANCH   3   9
ATOM      4  C   UNL     1      -0.240   9.958  20.441  0.00  0.00    +0.000 A 
ATOM      5  C   UNL     1      -0.618  11.209  20.954  0.00  0.00    +0.000 A 
ATOM      6  C   UNL     1      -0.812  11.406  22.329  0.00  0.00    +0.000 A 
ATOM      7  C   UNL     1      -0.741  10.302  23.180  0.00  0.00    +0.000 A 
ATOM      8  C   UNL     1      -0.411   9.045  22.675  0.00  0.00    +0.000 A 
ATOM      9  C   UNL     1      -0.134   8.863  21.317  0.00  0.00    +0.000 A 
BRANCH   4  11
ATOM     10  C   UNL     1       1.208  10.226  18.566  0.00  0.00    +0.000 C 
ATOM     11  O   UNL     1      -0.033   9.771  19.100  0.00  0.00    +0.000 OA
ENDBRANCH   4  11
BRANCH   6  12
ATOM     12  C   UNL     1      -1.101  12.783  22.877  0.00  0.00    +0.000 C 
BRANCH  12  13
ATOM     13  N   UNL     1      -2.427  13.017  23.448  0.00  0.00    +0.000 NA
ATOM     14  C   UNL     1      -3.582  12.643  22.626  0.00  0.00    +0.000 C 
ATOM     15  C   UNL     1      -4.199  13.784  21.798  0.00  0.00    +0.000 C 
ATOM     16  O   UNL     1      -4.476  14.934  22.604  0.00  0.00    +0.000 OA
ATOM     17  C   UNL     1      -3.284  15.401  23.245  0.00  0.00    +0.000 C 
ATOM     18  C   UNL     1      -2.644  14.305  24.115  0.00  0.00    +0.000 C 
ENDBRANCH  12  13
ENDBRANCH   6  12
ENDBRANCH   3   9
ENDBRANCH   2   3
ENDBRANCH   1   2
BRANCH   1  19
ATOM     19  C   UNL     1       0.987   4.890  20.396  0.00  0.00    +0.000 C 
BRANCH  19  20
ATOM     20  N   UNL     1       1.642   3.973  19.443  0.00  0.00    +0.000 NA
ATOM     21  C   UNL     1       1.775   4.576  18.110  0.00  0.00    +0.000 C 
ATOM     22  C   UNL     1       2.375   3.575  17.131  0.00  0.00    +0.000 C 
ATOM     23  C   UNL     1       3.772   3.104  17.574  0.00  0.00    +0.000 C 
ATOM     24  C   UNL     1       3.695   2.603  19.017  0.00  0.00    +0.000 C 
ATOM     25  C   UNL     1       2.943   3.537  19.969  0.00  0.00    +0.000 C 
BRANCH  23  26
ATOM     26  C   UNL     1       4.845   4.105  17.194  0.00  0.00    +0.000 A 
ATOM     27  N   UNL     1       4.973   4.314  15.867  0.00  0.00    +0.000 NA
ATOM     28  O   UNL     1       5.953   5.255  15.703  0.00  0.00    +0.000 OA
ATOM     29  C   UNL     1       6.458   5.600  16.906  0.00  0.00    +0.000 A 
ATOM     30  C   UNL     1       7.478   6.530  17.095  0.00  0.00    +0.000 A 
ATOM     31  C   UNL     1       7.867   6.740  18.409  0.00  0.00    +0.000 A 
ATOM     32  F   UNL     1       8.831   7.623  18.670  0.00  0.00    +0.000 F 
ATOM     33  C   UNL     1       7.269   6.053  19.469  0.00  0.00    +0.000 A 
ATOM     34  C   UNL     1       6.237   5.120  19.240  0.00  0.00    +0.000 A 
ATOM     35  C   UNL     1       5.808   4.891  17.909  0.00  0.00    +0.000 A 
ENDBRANCH  23  26
ENDBRANCH  19  20
ENDBRANCH   1  19
TORSDOF 9
ENDMDL
MODEL 7
REMARK VINA RESULT:      -8.3      2.122      2.846
REMARK  Name = 
REMARK  10 active torsions:
REMARK  status: ('A' for Active; 'I' for Inactive)
REMARK    1  A    between atoms: C_1  and  O_2
REMARK    2  A    between atoms: O_2  and  C_3
REMARK    3  A    between atoms: C_5  and  C_6
REMARK    4  A    between atoms: C_6  and  N_7
REMARK    5  A    between atoms: C_15  and  O_16
REMARK    6  A    between atoms: O_16  and  C_17
REMARK    7  A    between atoms: C_17  and  C_18
REMARK    8  A    between atoms: C_18  and  C_19
REMARK    9  A    between atoms: C_19  and  N_20
REMARK   10  A    between atoms: C_23  and  C_24
REMARK                            x       y       z     vdW  Elec       q    Type
REMARK                         _______ _______ _______ _____ _____    ______ ____
ROOT
ATOM      1  C   UNL     1       2.164   4.895  21.186  0.00  0.00    +0.000 C 
ENDROOT
BRANCH   1   2
ATOM      2  C   UNL     1       1.349   6.178  21.051  0.00  0.00    +0.000 C 
BRANCH   2   3
ATOM      3  O   UNL     1       1.967   7.011  20.076  0.00  0.00    +0.000 OA
BRANCH   3   9
ATOM      4  C   UNL     1       1.530   9.190  18.924  0.00  0.00    +0.000 A 
ATOM      5  C   UNL     1       1.086  10.510  19.106  0.00  0.00    +0.000 A 
ATOM      6  C   UNL     1       0.759  11.002  20.378  0.00  0.00    +0.000 A 
ATOM      7  C   UNL     1       0.766  10.118  21.459  0.00  0.00    +0.000 A 
ATOM      8  C   UNL     1       1.162   8.793  21.282  0.00  0.00    +0.000 A 
ATOM      9  C   UNL     1       1.570   8.323  20.030  0.00  0.00    +0.000 A 
BRANCH   4  11
ATOM     10  C   UNL     1       3.122   8.055  17.560  0.00  0.00    +0.000 C 
ATOM     11  O   UNL     1       1.866   8.717  17.683  0.00  0.00    +0.000 OA
ENDBRANCH   4  11
BRANCH   6  12
ATOM     12  C   UNL     1       0.398  12.454  20.573  0.00  0.00    +0.000 C 
BRANCH  12  13
ATOM     13  N   UNL     1      -0.725  12.981  19.797  0.00  0.00    +0.000 NA
ATOM     14  C   UNL     1      -0.853  14.439  19.717  0.00  0.00    +0.000 C 
ATOM     15  C   UNL     1      -1.809  15.075  20.742  0.00  0.00    +0.000 C 
ATOM     16  O   UNL     1      -3.088  14.433  20.742  0.00  0.00    +0.000 OA
ATOM     17  C   UNL     1      -2.952  13.035  21.020  0.00  0.00    +0.000 C 
ATOM     18  C   UNL     1      -2.030  12.343  20.001  0.00  0.00    +0.000 C 
ENDBRANCH  12  13
ENDBRANCH   6  12
ENDBRANCH   3   9
ENDBRANCH   2   3
ENDBRANCH   1   2
BRANCH   1  19
ATOM     19  C   UNL     1       1.371   3.683  20.688  0.00  0.00    +0.000 C 
BRANCH  19  20
ATOM     20  N   UNL     1       1.934   3.050  19.479  0.00  0.00    +0.000 NA
ATOM     21  C   UNL     1       1.863   3.942  18.315  0.00  0.00    +0.000 C 
ATOM     22  C   UNL     1       2.371   3.231  17.067  0.00  0.00    +0.000 C 
ATOM     23  C   UNL     1       3.833   2.776  17.221  0.00  0.00    +0.000 C 
ATOM     24  C   UNL     1       3.970   1.963  18.508  0.00  0.00    +0.000 C 
ATOM     25  C   UNL     1       3.310   2.604  19.732  0.00  0.00    +0.000 C 
BRANCH  23  26
ATOM     26  C   UNL     1       4.802   3.911  16.957  0.00  0.00    +0.000 A 
ATOM     27  N   UNL     1       4.831   4.338  15.676  0.00  0.00    +0.000 NA
ATOM     28  O   UNL     1       5.725   5.373  15.620  0.00  0.00    +0.000 OA
ATOM     29  C   UNL     1       6.277   5.564  16.836  0.00  0.00    +0.000 A 
ATOM     30  C   UNL     1       7.234   6.535  17.124  0.00  0.00    +0.000 A 
ATOM     31  C   UNL     1       7.687   6.566  18.434  0.00  0.00    +0.000 A 
ATOM     32  F   UNL     1       8.597   7.475  18.786  0.00  0.00    +0.000 F 
ATOM     33  C   UNL     1       7.210   5.672  19.395  0.00  0.00    +0.000 A 
ATOM     34  C   UNL     1       6.239   4.703  19.069  0.00  0.00    +0.000 A 
ATOM     35  C   UNL     1       5.746   4.652  17.742  0.00  0.00    +0.000 A 
ENDBRANCH  23  26
ENDBRANCH  19  20
ENDBRANCH   1  19
TORSDOF 9
ENDMDL
MODEL 8
REMARK VINA RESULT:      -8.3      2.055      2.477
REMARK  Name = 
REMARK  10 active torsions:
REMARK  status: ('A' for Active; 'I' for Inactive)
REMARK    1  A    between atoms: C_1  and  O_2
REMARK    2  A    between atoms: O_2  and  C_3
REMARK    3  A    between atoms: C_5  and  C_6
REMARK    4  A    between atoms: C_6  and  N_7
REMARK    5  A    between atoms: C_15  and  O_16
REMARK    6  A    between atoms: O_16  and  C_17
REMARK    7  A    between atoms: C_17  and  C_18
REMARK    8  A    between atoms: C_18  and  C_19
REMARK    9  A    between atoms: C_19  and  N_20
REMARK   10  A    between atoms: C_23  and  C_24
REMARK                            x       y       z     vdW  Elec       q    Type
REMARK                         _______ _______ _______ _____ _____    ______ ____
ROOT
ATOM      1  C   UNL     1       1.863   5.548  20.913  0.00  0.00    +0.000 C 
ENDROOT
BRANCH   1   2
ATOM      2  C   UNL     1       1.500   6.828  20.168  0.00  0.00    +0.000 C 
BRANCH   2   3
ATOM      3  O   UNL     1       1.148   7.827  21.119  0.00  0.00    +0.000 OA
BRANCH   3   9
ATOM      4  C   UNL     1       0.867  10.296  21.422  0.00  0.00    +0.000 A 
ATOM      5  C   UNL     1       0.901  11.539  20.769  0.00  0.00    +0.000 A 
ATOM      6  C   UNL     1       1.113  11.631  19.385  0.00  0.00    +0.000 A 
ATOM      7  C   UNL     1       1.413  10.467  18.676  0.00  0.00    +0.000 A 
ATOM      8  C   UNL     1       1.427   9.232  19.323  0.00  0.00    +0.000 A 
ATOM      9  C   UNL     1       1.131   9.128  20.685  0.00  0.00    +0.000 A 
BRANCH   4  11
ATOM     10  C   UNL     1      -0.716  10.121  23.196  0.00  0.00    +0.000 C 
ATOM     11  O   UNL     1       0.641  10.208  22.770  0.00  0.00    +0.000 OA
ENDBRANCH   4  11
BRANCH   6  12
ATOM     12  C   UNL     1       1.029  12.963  18.679  0.00  0.00    +0.000 C 
BRANCH  12  13
ATOM     13  N   UNL     1      -0.297  13.559  18.519  0.00  0.00    +0.000 NA
ATOM     14  C   UNL     1      -0.419  14.994  18.793  0.00  0.00    +0.000 C 
ATOM     15  C   UNL     1      -0.891  15.356  20.213  0.00  0.00    +0.000 C 
ATOM     16  O   UNL     1      -2.081  14.647  20.572  0.00  0.00    +0.000 OA
ATOM     17  C   UNL     1      -1.873  13.233  20.485  0.00  0.00    +0.000 C 
ATOM     18  C   UNL     1      -1.432  12.813  19.072  0.00  0.00    +0.000 C 
ENDBRANCH  12  13
ENDBRANCH   6  12
ENDBRANCH   3   9
ENDBRANCH   2   3
ENDBRANCH   1   2
BRANCH   1  19
ATOM     19  C   UNL     1       1.035   4.362  20.407  0.00  0.00    +0.000 C 
BRANCH  19  20
ATOM     20  N   UNL     1       1.737   3.515  19.422  0.00  0.00    +0.000 NA
ATOM     21  C   UNL     1       1.812   4.160  18.105  0.00  0.00    +0.000 C 
ATOM     22  C   UNL     1       2.464   3.228  17.092  0.00  0.00    +0.000 C 
ATOM     23  C   UNL     1       3.894   2.839  17.506  0.00  0.00    +0.000 C 
ATOM     24  C   UNL     1       3.870   2.297  18.935  0.00  0.00    +0.000 C 
ATOM     25  C   UNL     1       3.071   3.153  19.921  0.00  0.00    +0.000 C 
BRANCH  23  26
ATOM     26  C   UNL     1       4.894   3.918  17.141  0.00  0.00    +0.000 A 
ATOM     27  N   UNL     1       4.969   4.191  15.821  0.00  0.00    +0.000 NA
ATOM     28  O   UNL     1       5.886   5.196  15.671  0.00  0.00    +0.000 OA
ATOM     29  C   UNL     1       6.405   5.520  16.874  0.00  0.00    +0.000 A 
ATOM     30  C   UNL     1       7.374   6.501  17.076  0.00  0.00    +0.000 A 
ATOM     31  C   UNL     1       7.789   6.678  18.387  0.00  0.00    +0.000 A 
ATOM     32  F   UNL     1       8.707   7.606  18.659  0.00  0.00    +0.000 F 
ATOM     33  C   UNL     1       7.266   5.913  19.431  0.00  0.00    +0.000 A 
ATOM     34  C   UNL     1       6.285   4.929  19.190  0.00  0.00    +0.000 A 
ATOM     35  C   UNL     1       5.830   4.730  17.863  0.00  0.00    +0.000 A 
ENDBRANCH  23  26
ENDBRANCH  19  20
ENDBRANCH   1  19
TORSDOF 9
ENDMDL
MODEL 9
REMARK VINA RESULT:      -8.3      3.283      4.055
REMARK  Name = 
REMARK  10 active torsions:
REMARK  status: ('A' for Active; 'I' for Inactive)
REMARK    1  A    between atoms: C_1  and  O_2
REMARK    2  A    between atoms: O_2  and  C_3
REMARK    3  A    between atoms: C_5  and  C_6
REMARK    4  A    between atoms: C_6  and  N_7
REMARK    5  A    between atoms: C_15  and  O_16
REMARK    6  A    between atoms: O_16  and  C_17
REMARK    7  A    between atoms: C_17  and  C_18
REMARK    8  A    between atoms: C_18  and  C_19
REMARK    9  A    between atoms: C_19  and  N_20
REMARK   10  A    between atoms: C_23  and  C_24
REMARK                            x       y       z     vdW  Elec       q    Type
REMARK                         _______ _______ _______ _____ _____    ______ ____
ROOT
ATOM      1  C   UNL     1       2.565   7.891  17.896  0.00  0.00    +0.000 C 
ENDROOT
BRANCH   1   2
ATOM      2  C   UNL     1       2.097   9.271  18.347  0.00  0.00    +0.000 C 
BRANCH   2   3
ATOM      3  O   UNL     1       1.376   9.132  19.568  0.00  0.00    +0.000 OA
BRANCH   3   9
ATOM      4  C   UNL     1      -0.015  10.621  21.022  0.00  0.00    +0.000 A 
ATOM      5  C   UNL     1      -1.091  11.523  21.036  0.00  0.00    +0.000 A 
ATOM      6  C   UNL     1      -1.842  11.783  19.880  0.00  0.00    +0.000 A 
ATOM      7  C   UNL     1      -1.426  11.220  18.672  0.00  0.00    +0.000 A 
ATOM      8  C   UNL     1      -0.330  10.359  18.638  0.00  0.00    +0.000 A 
ATOM      9  C   UNL     1       0.367  10.030  19.805  0.00  0.00    +0.000 A 
BRANCH   4  11
ATOM     10  C   UNL     1       0.086   9.525  23.137  0.00  0.00    +0.000 C 
ATOM     11  O   UNL     1       0.705  10.354  22.156  0.00  0.00    +0.000 OA
ENDBRANCH   4  11
BRANCH   6  12
ATOM     12  C   UNL     1      -3.067  12.663  19.938  0.00  0.00    +0.000 C 
BRANCH  12  13
ATOM     13  N   UNL     1      -3.476  13.165  21.250  0.00  0.00    +0.000 NA
ATOM     14  C   UNL     1      -4.795  12.752  21.739  0.00  0.00    +0.000 C 
ATOM     15  C   UNL     1      -5.939  13.746  21.470  0.00  0.00    +0.000 C 
ATOM     16  O   UNL     1      -5.605  15.068  21.904  0.00  0.00    +0.000 OA
ATOM     17  C   UNL     1      -4.413  15.527  21.258  0.00  0.00    +0.000 C 
ATOM     18  C   UNL     1      -3.226  14.584  21.525  0.00  0.00    +0.000 C 
ENDBRANCH  12  13
ENDBRANCH   6  12
ENDBRANCH   3   9
ENDBRANCH   2   3
ENDBRANCH   1   2
BRANCH   1  19
ATOM     19  C   UNL     1       2.273   6.833  18.965  0.00  0.00    +0.000 C 
BRANCH  19  20
ATOM     20  N   UNL     1       3.068   5.597  18.823  0.00  0.00    +0.000 NA
ATOM     21  C   UNL     1       3.030   5.080  17.449  0.00  0.00    +0.000 C 
ATOM     22  C   UNL     1       3.788   3.762  17.356  0.00  0.00    +0.000 C 
ATOM     23  C   UNL     1       5.265   3.919  17.756  0.00  0.00    +0.000 C 
ATOM     24  C   UNL     1       5.341   4.592  19.127  0.00  0.00    +0.000 C 
ATOM     25  C   UNL     1       4.448   5.826  19.274  0.00  0.00    +0.000 C 
BRANCH  23  26
ATOM     26  C   UNL     1       6.098   4.467  16.615  0.00  0.00    +0.000 A 
ATOM     27  N   UNL     1       6.992   5.413  16.977  0.00  0.00    +0.000 NA
ATOM     28  O   UNL     1       7.672   5.773  15.845  0.00  0.00    +0.000 OA
ATOM     29  C   UNL     1       7.185   5.093  14.786  0.00  0.00    +0.000 A 
ATOM     30  C   UNL     1       7.651   5.231  13.480  0.00  0.00    +0.000 A 
ATOM     31  C   UNL     1       7.012   4.452  12.527  0.00  0.00    +0.000 A 
ATOM     32  F   UNL     1       7.410   4.522  11.256  0.00  0.00    +0.000 F 
ATOM     33  C   UNL     1       5.967   3.590  12.866  0.00  0.00    +0.000 A 
ATOM     34  C   UNL     1       5.522   3.475  14.199  0.00  0.00    +0.000 A 
ATOM     35  C   UNL     1       6.161   4.248  15.200  0.00  0.00    +0.000 A 
ENDBRANCH  23  26
ENDBRANCH  19  20
ENDBRANCH   1  19
TORSDOF 9
ENDMDL
