MODEL 1
REMARK VINA RESULT:      -7.8      0.000      0.000
REMARK  Name = 
REMARK  8 active torsions:
REMARK  status: ('A' for Active; 'I' for Inactive)
REMARK    1  A    between atoms: C_1  and  C_2
REMARK    2  A    between atoms: C_2  and  O_3
REMARK    3  A    between atoms: O_3  and  C_4
REMARK    4  A    between atoms: C_4  and  C_6
REMARK    5  A    between atoms: N_9  and  C_10
REMARK    6  A    between atoms: C_10  and  C_11
REMARK    7  A    between atoms: N_14  and  C_15
REMARK    8  A    between atoms: C_22  and  C_23
REMARK                            x       y       z     vdW  Elec       q    Type
REMARK                         _______ _______ _______ _____ _____    ______ ____
ROOT
ATOM      1  C   UNL     1       2.689   7.519  18.456  0.00  0.00    +0.000 A 
ATOM      2  N   UNL     1       2.592   6.644  19.504  0.00  0.00    +0.000 NA
ATOM      3  N   UNL     1       1.905   7.228  20.469  0.00  0.00    +0.000 NA
ATOM      4  N   UNL     1       1.466   8.428  20.020  0.00  0.00    +0.000 N 
ATOM      5  C   UNL     1       1.965   8.667  18.752  0.00  0.00    +0.000 A 
ATOM      6  C   UNL     1       1.897   9.958  18.029  0.00  0.00    +0.000 C 
ENDROOT
BRANCH   4   7
ATOM      7  C   UNL     1       0.617   9.210  20.839  0.00  0.00    +0.000 A 
ATOM      8  C   UNL     1      -0.051  10.303  20.263  0.00  0.00    +0.000 A 
ATOM      9  C   UNL     1      -0.796  11.163  21.069  0.00  0.00    +0.000 A 
ATOM     10  C   UNL     1      -0.857  10.936  22.439  0.00  0.00    +0.000 A 
ATOM     11  F   UNL     1      -1.513  11.803  23.222  0.00  0.00    +0.000 F 
ATOM     12  C   UNL     1      -0.229   9.837  23.014  0.00  0.00    +0.000 A 
ATOM     13  C   UNL     1       0.512   8.965  22.214  0.00  0.00    +0.000 A 
ENDBRANCH   4   7
BRANCH   1  14
ATOM     14  C   UNL     1       3.548   7.158  17.285  0.00  0.00    +0.000 C 
BRANCH  14  18
ATOM     15  C   UNL     1       7.052   4.691  16.768  0.00  0.00    +0.000 C 
ATOM     16  C   UNL     1       5.778   4.070  17.332  0.00  0.00    +0.000 C 
ATOM     17  C   UNL     1       4.554   4.948  17.058  0.00  0.00    +0.000 C 
ATOM     18  N   UNL     1       4.697   6.288  17.653  0.00  0.00    +0.000 NA
ATOM     19  C   UNL     1       5.941   6.950  17.195  0.00  0.00    +0.000 C 
ATOM     20  C   UNL     1       7.207   6.101  17.360  0.00  0.00    +0.000 C 
BRANCH  15  21
ATOM     21  C   UNL     1       7.040   4.735  15.248  0.00  0.00    +0.000 C 
ATOM     22  O   UNL     1       7.602   5.596  14.576  0.00  0.00    +0.000 OA
BRANCH  21  23
ATOM     23  O   UNL     1       6.347   3.692  14.725  0.00  0.00    +0.000 OA
BRANCH  23  25
ATOM     24  C   UNL     1       6.161   3.367  12.332  0.00  0.00    +0.000 C 
ATOM     25  C   UNL     1       5.550   4.006  13.573  0.00  0.00    +0.000 C 
ENDBRANCH  23  25
ENDBRANCH  21  23
ENDBRANCH  15  21
ENDBRANCH  14  18
ENDBRANCH   1  14
TORSDOF 6
ENDMDL
MODEL 2
REMARK VINA RESULT:      -7.7      2.144      3.601
REMARK  Name = 
REMARK  8 active torsions:
REMARK  status: ('A' for Active; 'I' for Inactive)
REMARK    1  A    between atoms: C_1  and  C_2
REMARK    2  A    between atoms: C_2  and  O_3
REMARK    3  A    between atoms: O_3  and  C_4
REMARK    4  A    between atoms: C_4  and  C_6
REMARK    5  A    between atoms: N_9  and  C_10
REMARK    6  A    between atoms: C_10  and  C_11
REMARK    7  A    between atoms: N_14  and  C_15
REMARK    8  A    between atoms: C_22  and  C_23
REMARK                            x       y       z     vdW  Elec       q    Type
REMARK                         _______ _______ _______ _____ _____    ______ ____
ROOT
ATOM      1  C   UNL     1       3.110   6.149  18.317  0.00  0.00    +0.000 A 
ATOM      2  N   UNL     1       3.317   7.296  17.600  0.00  0.00    +0.000 NA
ATOM      3  N   UNL     1       2.664   8.280  18.193  0.00  0.00    +0.000 NA
ATOM      4  N   UNL     1       2.125   7.807  19.342  0.00  0.00    +0.000 N 
ATOM      5  C   UNL     1       2.360   6.447  19.447  0.00  0.00    +0.000 A 
ATOM      6  C   UNL     1       1.736   5.540  20.438  0.00  0.00    +0.000 C 
ENDROOT
BRANCH   4   7
ATOM      7  C   UNL     1       1.454   8.696  20.215  0.00  0.00    +0.000 A 
ATOM      8  C   UNL     1       1.578   8.499  21.600  0.00  0.00    +0.000 A 
ATOM      9  C   UNL     1       0.833   9.282  22.481  0.00  0.00    +0.000 A 
ATOM     10  C   UNL     1      -0.037  10.241  21.976  0.00  0.00    +0.000 A 
ATOM     11  F   UNL     1      -0.805  10.942  22.820  0.00  0.00    +0.000 F 
ATOM     12  C   UNL     1      -0.141  10.468  20.609  0.00  0.00    +0.000 A 
ATOM     13  C   UNL     1       0.608   9.695  19.719  0.00  0.00    +0.000 A 
ENDBRANCH   4   7
BRANCH   1  14
ATOM     14  C   UNL     1       3.620   4.851  17.775  0.00  0.00    +0.000 C 
BRANCH  14  18
ATOM     15  C   UNL     1       7.821   5.740  18.223  0.00  0.00    +0.000 C 
ATOM     16  C   UNL     1       7.380   4.728  17.171  0.00  0.00    +0.000 C 
ATOM     17  C   UNL     1       5.884   4.846  16.866  0.00  0.00    +0.000 C 
ATOM     18  N   UNL     1       5.061   4.625  18.069  0.00  0.00    +0.000 NA
ATOM     19  C   UNL     1       5.456   5.541  19.166  0.00  0.00    +0.000 C 
ATOM     20  C   UNL     1       6.956   5.542  19.479  0.00  0.00    +0.000 C 
BRANCH  15  21
ATOM     21  C   UNL     1       7.723   7.170  17.714  0.00  0.00    +0.000 C 
ATOM     22  O   UNL     1       7.102   7.506  16.708  0.00  0.00    +0.000 OA
BRANCH  21  23
ATOM     23  O   UNL     1       8.394   8.033  18.520  0.00  0.00    +0.000 OA
BRANCH  23  25
ATOM     24  C   UNL     1       9.272  10.243  18.979  0.00  0.00    +0.000 C 
ATOM     25  C   UNL     1       8.302   9.415  18.143  0.00  0.00    +0.000 C 
ENDBRANCH  23  25
ENDBRANCH  21  23
ENDBRANCH  15  21
ENDBRANCH  14  18
ENDBRANCH   1  14
TORSDOF 6
ENDMDL
MODEL 3
REMARK VINA RESULT:      -7.6      0.382      1.033
REMARK  Name = 
REMARK  8 active torsions:
REMARK  status: ('A' for Active; 'I' for Inactive)
REMARK    1  A    between atoms: C_1  and  C_2
REMARK    2  A    between atoms: C_2  and  O_3
REMARK    3  A    between atoms: O_3  and  C_4
REMARK    4  A    between atoms: C_4  and  C_6
REMARK    5  A    between atoms: N_9  and  C_10
REMARK    6  A    between atoms: C_10  and  C_11
REMARK    7  A    between atoms: N_14  and  C_15
REMARK    8  A    between atoms: C_22  and  C_23
REMARK                            x       y       z     vdW  Elec       q    Type
REMARK                         _______ _______ _______ _____ _____    ______ ____
ROOT
ATOM      1  C   UNL     1       2.672   7.518  18.384  0.00  0.00    +0.000 A 
ATOM      2  N   UNL     1       2.563   6.652  19.439  0.00  0.00    +0.000 NA
ATOM      3  N   UNL     1       1.937   7.273  20.423  0.00  0.00    +0.000 NA
ATOM      4  N   UNL     1       1.546   8.493  19.982  0.00  0.00    +0.000 N 
ATOM      5  C   UNL     1       2.018   8.703  18.698  0.00  0.00    +0.000 A 
ATOM      6  C   UNL     1       1.993   9.994  17.972  0.00  0.00    +0.000 C 
ENDROOT
BRANCH   4   7
ATOM      7  C   UNL     1       0.765   9.320  20.823  0.00  0.00    +0.000 A 
ATOM      8  C   UNL     1       0.362   8.820  22.072  0.00  0.00    +0.000 A 
ATOM      9  C   UNL     1      -0.509   9.562  22.869  0.00  0.00    +0.000 A 
ATOM     10  C   UNL     1      -0.980  10.786  22.411  0.00  0.00    +0.000 A 
ATOM     11  F   UNL     1      -1.872  11.465  23.144  0.00  0.00    +0.000 F 
ATOM     12  C   UNL     1      -0.560  11.308  21.192  0.00  0.00    +0.000 A 
ATOM     13  C   UNL     1       0.319  10.576  20.391  0.00  0.00    +0.000 A 
ENDBRANCH   4   7
BRANCH   1  14
ATOM     14  C   UNL     1       3.474   7.111  17.189  0.00  0.00    +0.000 C 
BRANCH  14  18
ATOM     15  C   UNL     1       6.854   4.495  16.577  0.00  0.00    +0.000 C 
ATOM     16  C   UNL     1       5.520   3.902  17.019  0.00  0.00    +0.000 C 
ATOM     17  C   UNL     1       4.363   4.876  16.783  0.00  0.00    +0.000 C 
ATOM     18  N   UNL     1       4.553   6.140  17.517  0.00  0.00    +0.000 NA
ATOM     19  C   UNL     1       5.854   6.766  17.182  0.00  0.00    +0.000 C 
ATOM     20  C   UNL     1       7.059   5.828  17.315  0.00  0.00    +0.000 C 
BRANCH  15  21
ATOM     21  C   UNL     1       6.919   4.690  15.070  0.00  0.00    +0.000 C 
ATOM     22  O   UNL     1       7.566   5.574  14.513  0.00  0.00    +0.000 OA
BRANCH  21  23
ATOM     23  O   UNL     1       6.188   3.752  14.414  0.00  0.00    +0.000 OA
BRANCH  23  25
ATOM     24  C   UNL     1       5.031   3.490  12.303  0.00  0.00    +0.000 C 
ATOM     25  C   UNL     1       6.371   3.722  12.991  0.00  0.00    +0.000 C 
ENDBRANCH  23  25
ENDBRANCH  21  23
ENDBRANCH  15  21
ENDBRANCH  14  18
ENDBRANCH   1  14
TORSDOF 6
ENDMDL
MODEL 4
REMARK VINA RESULT:      -7.6      2.032      3.460
REMARK  Name = 
REMARK  8 active torsions:
REMARK  status: ('A' for Active; 'I' for Inactive)
REMARK    1  A    between atoms: C_1  and  C_2
REMARK    2  A    between atoms: C_2  and  O_3
REMARK    3  A    between atoms: O_3  and  C_4
REMARK    4  A    between atoms: C_4  and  C_6
REMARK    5  A    between atoms: N_9  and  C_10
REMARK    6  A    between atoms: C_10  and  C_11
REMARK    7  A    between atoms: N_14  and  C_15
REMARK    8  A    between atoms: C_22  and  C_23
REMARK                            x       y       z     vdW  Elec       q    Type
REMARK                         _______ _______ _______ _____ _____    ______ ____
ROOT
ATOM      1  C   UNL     1       2.830   5.437  18.646  0.00  0.00    +0.000 A 
ATOM      2  N   UNL     1       2.289   4.932  19.797  0.00  0.00    +0.000 NA
ATOM      3  N   UNL     1       1.852   5.942  20.528  0.00  0.00    +0.000 NA
ATOM      4  N   UNL     1       2.008   7.086  19.820  0.00  0.00    +0.000 N 
ATOM      5  C   UNL     1       2.653   6.815  18.626  0.00  0.00    +0.000 A 
ATOM      6  C   UNL     1       3.202   7.828  17.695  0.00  0.00    +0.000 C 
ENDROOT
BRANCH   4   7
ATOM      7  C   UNL     1       1.523   8.305  20.349  0.00  0.00    +0.000 A 
ATOM      8  C   UNL     1       1.417   8.438  21.743  0.00  0.00    +0.000 A 
ATOM      9  C   UNL     1       0.828   9.578  22.288  0.00  0.00    +0.000 A 
ATOM     10  C   UNL     1       0.340  10.567  21.442  0.00  0.00    +0.000 A 
ATOM     11  F   UNL     1      -0.289  11.628  21.964  0.00  0.00    +0.000 F 
ATOM     12  C   UNL     1       0.472  10.463  20.062  0.00  0.00    +0.000 A 
ATOM     13  C   UNL     1       1.068   9.328  19.507  0.00  0.00    +0.000 A 
ENDBRANCH   4   7
BRANCH   1  14
ATOM     14  C   UNL     1       3.533   4.510  17.705  0.00  0.00    +0.000 C 
BRANCH  14  18
ATOM     15  C   UNL     1       7.675   5.618  18.208  0.00  0.00    +0.000 C 
ATOM     16  C   UNL     1       7.299   4.596  17.140  0.00  0.00    +0.000 C 
ATOM     17  C   UNL     1       5.802   4.637  16.820  0.00  0.00    +0.000 C 
ATOM     18  N   UNL     1       4.981   4.359  18.012  0.00  0.00    +0.000 NA
ATOM     19  C   UNL     1       5.315   5.281  19.123  0.00  0.00    +0.000 C 
ATOM     20  C   UNL     1       6.810   5.358  19.452  0.00  0.00    +0.000 C 
BRANCH  15  21
ATOM     21  C   UNL     1       7.506   7.046  17.714  0.00  0.00    +0.000 C 
ATOM     22  O   UNL     1       6.835   7.366  16.735  0.00  0.00    +0.000 OA
BRANCH  21  23
ATOM     23  O   UNL     1       8.175   7.928  18.501  0.00  0.00    +0.000 OA
BRANCH  23  25
ATOM     24  C   UNL     1       9.116  10.122  18.909  0.00  0.00    +0.000 C 
ATOM     25  C   UNL     1       8.268   9.262  17.979  0.00  0.00    +0.000 C 
ENDBRANCH  23  25
ENDBRANCH  21  23
ENDBRANCH  15  21
ENDBRANCH  14  18
ENDBRANCH   1  14
TORSDOF 6
ENDMDL
MODEL 5
REMARK VINA RESULT:      -7.5      3.048      4.476
REMARK  Name = 
REMARK  8 active torsions:
REMARK  status: ('A' for Active; 'I' for Inactive)
REMARK    1  A    between atoms: C_1  and  C_2
REMARK    2  A    between atoms: C_2  and  O_3
REMARK    3  A    between atoms: O_3  and  C_4
REMARK    4  A    between atoms: C_4  and  C_6
REMARK    5  A    between atoms: N_9  and  C_10
REMARK    6  A    between atoms: C_10  and  C_11
REMARK    7  A    between atoms: N_14  and  C_15
REMARK    8  A    between atoms: C_22  and  C_23
REMARK                            x       y       z     vdW  Elec       q    Type
REMARK                         _______ _______ _______ _____ _____    ______ ____
ROOT
ATOM      1  C   UNL     1       2.593   7.969  18.581  0.00  0.00    +0.000 A 
ATOM      2  N   UNL     1       2.474   8.659  17.405  0.00  0.00    +0.000 NA
ATOM      3  N   UNL     1       1.475   9.516  17.526  0.00  0.00    +0.000 NA
ATOM      4  N   UNL     1       1.015   9.464  18.799  0.00  0.00    +0.000 N 
ATOM      5  C   UNL     1       1.680   8.472  19.499  0.00  0.00    +0.000 A 
ATOM      6  C   UNL     1       1.302   7.962  20.837  0.00  0.00    +0.000 C 
ENDROOT
BRANCH   4   7
ATOM      7  C   UNL     1       0.004  10.363  19.212  0.00  0.00    +0.000 A 
ATOM      8  C   UNL     1      -1.212  10.377  18.509  0.00  0.00    +0.000 A 
ATOM      9  C   UNL     1      -2.179  11.334  18.814  0.00  0.00    +0.000 A 
ATOM     10  C   UNL     1      -1.922  12.274  19.804  0.00  0.00    +0.000 A 
ATOM     11  F   UNL     1      -2.821  13.237  20.046  0.00  0.00    +0.000 F 
ATOM     12  C   UNL     1      -0.737  12.248  20.531  0.00  0.00    +0.000 A 
ATOM     13  C   UNL     1       0.234  11.288  20.239  0.00  0.00    +0.000 A 
ENDBRANCH   4   7
BRANCH   1  14
ATOM     14  C   UNL     1       3.559   6.829  18.660  0.00  0.00    +0.000 C 
BRANCH  14  18
ATOM     15  C   UNL     1       2.595   2.774  17.536  0.00  0.00    +0.000 C 
ATOM     16  C   UNL     1       3.838   3.436  16.950  0.00  0.00    +0.000 C 
ATOM     17  C   UNL     1       4.250   4.673  17.754  0.00  0.00    +0.000 C 
ATOM     18  N   UNL     1       3.180   5.686  17.787  0.00  0.00    +0.000 NA
ATOM     19  C   UNL     1       1.914   5.113  18.302  0.00  0.00    +0.000 C 
ATOM     20  C   UNL     1       1.473   3.823  17.601  0.00  0.00    +0.000 C 
BRANCH  15  21
ATOM     21  C   UNL     1       2.862   2.174  18.907  0.00  0.00    +0.000 C 
ATOM     22  O   UNL     1       3.929   1.668  19.246  0.00  0.00    +0.000 OA
BRANCH  21  23
ATOM     23  O   UNL     1       1.778   2.283  19.719  0.00  0.00    +0.000 OA
BRANCH  23  25
ATOM     24  C   UNL     1       2.124   3.860  21.523  0.00  0.00    +0.000 C 
ATOM     25  C   UNL     1       2.074   2.391  21.119  0.00  0.00    +0.000 C 
ENDBRANCH  23  25
ENDBRANCH  21  23
ENDBRANCH  15  21
ENDBRANCH  14  18
ENDBRANCH   1  14
TORSDOF 6
ENDMDL
MODEL 6
REMARK VINA RESULT:      -7.4      3.398      4.788
REMARK  Name = 
REMARK  8 active torsions:
REMARK  status: ('A' for Active; 'I' for Inactive)
REMARK    1  A    between atoms: C_1  and  C_2
REMARK    2  A    between atoms: C_2  and  O_3
REMARK    3  A    between atoms: O_3  and  C_4
REMARK    4  A    between atoms: C_4  and  C_6
REMARK    5  A    between atoms: N_9  and  C_10
REMARK    6  A    between atoms: C_10  and  C_11
REMARK    7  A    between atoms: N_14  and  C_15
REMARK    8  A    between atoms: C_22  and  C_23
REMARK                            x       y       z     vdW  Elec       q    Type
REMARK                         _______ _______ _______ _____ _____    ______ ____
ROOT
ATOM      1  C   UNL     1       1.971   8.104  19.253  0.00  0.00    +0.000 A 
ATOM      2  N   UNL     1       2.306   8.400  17.959  0.00  0.00    +0.000 NA
ATOM      3  N   UNL     1       1.873   9.619  17.687  0.00  0.00    +0.000 NA
ATOM      4  N   UNL     1       1.357  10.155  18.819  0.00  0.00    +0.000 N 
ATOM      5  C   UNL     1       1.373   9.215  19.834  0.00  0.00    +0.000 A 
ATOM      6  C   UNL     1       0.690   9.349  21.142  0.00  0.00    +0.000 C 
ENDROOT
BRANCH   4   7
ATOM      7  C   UNL     1       0.913  11.499  18.814  0.00  0.00    +0.000 A 
ATOM      8  C   UNL     1      -0.465  11.751  18.711  0.00  0.00    +0.000 A 
ATOM      9  C   UNL     1      -0.922  13.062  18.580  0.00  0.00    +0.000 A 
ATOM     10  C   UNL     1      -0.005  14.105  18.540  0.00  0.00    +0.000 A 
ATOM     11  F   UNL     1      -0.440  15.356  18.342  0.00  0.00    +0.000 F 
ATOM     12  C   UNL     1       1.358  13.870  18.676  0.00  0.00    +0.000 A 
ATOM     13  C   UNL     1       1.825  12.561  18.816  0.00  0.00    +0.000 A 
ENDBRANCH   4   7
BRANCH   1  14
ATOM     14  C   UNL     1       2.217   6.722  19.769  0.00  0.00    +0.000 C 
BRANCH  14  18
ATOM     15  C   UNL     1       4.159   3.213  18.172  0.00  0.00    +0.000 C 
ATOM     16  C   UNL     1       4.953   4.508  18.313  0.00  0.00    +0.000 C 
ATOM     17  C   UNL     1       4.261   5.494  19.257  0.00  0.00    +0.000 C 
ATOM     18  N   UNL     1       2.911   5.849  18.784  0.00  0.00    +0.000 NA
ATOM     19  C   UNL     1       2.080   4.640  18.574  0.00  0.00    +0.000 C 
ATOM     20  C   UNL     1       2.738   3.565  17.703  0.00  0.00    +0.000 C 
BRANCH  15  21
ATOM     21  C   UNL     1       4.125   2.422  19.471  0.00  0.00    +0.000 C 
ATOM     22  O   UNL     1       5.124   2.040  20.076  0.00  0.00    +0.000 OA
BRANCH  21  23
ATOM     23  O   UNL     1       2.851   2.206  19.889  0.00  0.00    +0.000 OA
BRANCH  23  25
ATOM     24  C   UNL     1       1.243   2.880  21.570  0.00  0.00    +0.000 C 
ATOM     25  C   UNL     1       2.643   2.338  21.303  0.00  0.00    +0.000 C 
ENDBRANCH  23  25
ENDBRANCH  21  23
ENDBRANCH  15  21
ENDBRANCH  14  18
ENDBRANCH   1  14
TORSDOF 6
ENDMDL
MODEL 7
REMARK VINA RESULT:      -7.3      2.229      3.550
REMARK  Name = 
REMARK  8 active torsions:
REMARK  status: ('A' for Active; 'I' for Inactive)
REMARK    1  A    between atoms: C_1  and  C_2
REMARK    2  A    between atoms: C_2  and  O_3
REMARK    3  A    between atoms: O_3  and  C_4
REMARK    4  A    between atoms: C_4  and  C_6
REMARK    5  A    between atoms: N_9  and  C_10
REMARK    6  A    between atoms: C_10  and  C_11
REMARK    7  A    between atoms: N_14  and  C_15
REMARK    8  A    between atoms: C_22  and  C_23
REMARK                            x       y       z     vdW  Elec       q    Type
REMARK                         _______ _______ _______ _____ _____    ______ ____
ROOT
ATOM      1  C   UNL     1       2.923   5.832  18.630  0.00  0.00    +0.000 A 
ATOM      2  N   UNL     1       2.999   7.082  18.075  0.00  0.00    +0.000 NA
ATOM      3  N   UNL     1       2.330   7.919  18.847  0.00  0.00    +0.000 NA
ATOM      4  N   UNL     1       1.912   7.250  19.949  0.00  0.00    +0.000 N 
ATOM      5  C   UNL     1       2.243   5.911  19.839  0.00  0.00    +0.000 A 
ATOM      6  C   UNL     1       1.758   4.829  20.726  0.00  0.00    +0.000 C 
ENDROOT
BRANCH   4   7
ATOM      7  C   UNL     1       1.253   7.954  20.984  0.00  0.00    +0.000 A 
ATOM      8  C   UNL     1      -0.150   7.917  21.035  0.00  0.00    +0.000 A 
ATOM      9  C   UNL     1      -0.831   8.699  21.967  0.00  0.00    +0.000 A 
ATOM     10  C   UNL     1      -0.112   9.518  22.829  0.00  0.00    +0.000 A 
ATOM     11  F   UNL     1      -0.769  10.322  23.674  0.00  0.00    +0.000 F 
ATOM     12  C   UNL     1       1.278   9.536  22.811  0.00  0.00    +0.000 A 
ATOM     13  C   UNL     1       1.969   8.750  21.887  0.00  0.00    +0.000 A 
ENDBRANCH   4   7
BRANCH   1  14
ATOM     14  C   UNL     1       3.475   4.666  17.872  0.00  0.00    +0.000 C 
BRANCH  14  18
ATOM     15  C   UNL     1       7.675   5.617  18.164  0.00  0.00    +0.000 C 
ATOM     16  C   UNL     1       7.207   4.614  17.114  0.00  0.00    +0.000 C 
ATOM     17  C   UNL     1       5.699   4.713  16.872  0.00  0.00    +0.000 C 
ATOM     18  N   UNL     1       4.930   4.459  18.104  0.00  0.00    +0.000 NA
ATOM     19  C   UNL     1       5.355   5.364  19.198  0.00  0.00    +0.000 C 
ATOM     20  C   UNL     1       6.867   5.384  19.450  0.00  0.00    +0.000 C 
BRANCH  15  21
ATOM     21  C   UNL     1       7.535   7.053  17.682  0.00  0.00    +0.000 C 
ATOM     22  O   UNL     1       6.811   7.405  16.754  0.00  0.00    +0.000 OA
BRANCH  21  23
ATOM     23  O   UNL     1       8.296   7.902  18.419  0.00  0.00    +0.000 OA
BRANCH  23  25
ATOM     24  C   UNL     1       9.134  10.119  18.919  0.00  0.00    +0.000 C 
ATOM     25  C   UNL     1       8.254   9.275  18.003  0.00  0.00    +0.000 C 
ENDBRANCH  23  25
ENDBRANCH  21  23
ENDBRANCH  15  21
ENDBRANCH  14  18
ENDBRANCH   1  14
TORSDOF 6
ENDMDL
MODEL 8
REMARK VINA RESULT:      -7.3      2.120      3.308
REMARK  Name = 
REMARK  8 active torsions:
REMARK  status: ('A' for Active; 'I' for Inactive)
REMARK    1  A    between atoms: C_1  and  C_2
REMARK    2  A    between atoms: C_2  and  O_3
REMARK    3  A    between atoms: O_3  and  C_4
REMARK    4  A    between atoms: C_4  and  C_6
REMARK    5  A    between atoms: N_9  and  C_10
REMARK    6  A    between atoms: C_10  and  C_11
REMARK    7  A    between atoms: N_14  and  C_15
REMARK    8  A    between atoms: C_22  and  C_23
REMARK                            x       y       z     vdW  Elec       q    Type
REMARK                         _______ _______ _______ _____ _____    ______ ____
ROOT
ATOM      1  C   UNL     1       1.996   7.963  19.006  0.00  0.00    +0.000 A 
ATOM      2  N   UNL     1       1.785   8.503  17.765  0.00  0.00    +0.000 NA
ATOM      3  N   UNL     1       1.050   9.591  17.907  0.00  0.00    +0.000 NA
ATOM      4  N   UNL     1       0.871   9.822  19.230  0.00  0.00    +0.000 N 
ATOM      5  C   UNL     1       1.433   8.794  19.966  0.00  0.00    +0.000 A 
ATOM      6  C   UNL     1       1.244   8.572  21.418  0.00  0.00    +0.000 C 
ENDROOT
BRANCH   4   7
ATOM      7  C   UNL     1       0.196  10.992  19.648  0.00  0.00    +0.000 A 
ATOM      8  C   UNL     1       0.928  11.990  20.311  0.00  0.00    +0.000 A 
ATOM      9  C   UNL     1       0.268  13.098  20.843  0.00  0.00    +0.000 A 
ATOM     10  C   UNL     1      -1.113  13.194  20.721  0.00  0.00    +0.000 A 
ATOM     11  F   UNL     1      -1.754  14.221  21.294  0.00  0.00    +0.000 F 
ATOM     12  C   UNL     1      -1.844  12.230  20.036  0.00  0.00    +0.000 A 
ATOM     13  C   UNL     1      -1.190  11.122  19.493  0.00  0.00    +0.000 A 
ENDBRANCH   4   7
BRANCH   1  14
ATOM     14  C   UNL     1       2.679   6.636  19.114  0.00  0.00    +0.000 C 
BRANCH  14  18
ATOM     15  C   UNL     1       5.613   5.117  16.335  0.00  0.00    +0.000 C 
ATOM     16  C   UNL     1       5.051   6.521  16.136  0.00  0.00    +0.000 C 
ATOM     17  C   UNL     1       4.370   7.042  17.404  0.00  0.00    +0.000 C 
ATOM     18  N   UNL     1       3.256   6.173  17.824  0.00  0.00    +0.000 NA
ATOM     19  C   UNL     1       3.704   4.771  17.997  0.00  0.00    +0.000 C 
ATOM     20  C   UNL     1       4.469   4.199  16.797  0.00  0.00    +0.000 C 
BRANCH  15  21
ATOM     21  C   UNL     1       6.763   5.099  17.331  0.00  0.00    +0.000 C 
ATOM     22  O   UNL     1       6.889   4.270  18.228  0.00  0.00    +0.000 OA
BRANCH  21  23
ATOM     23  O   UNL     1       7.644   6.105  17.092  0.00  0.00    +0.000 OA
BRANCH  23  25
ATOM     24  C   UNL     1       7.963   8.408  17.770  0.00  0.00    +0.000 C 
ATOM     25  C   UNL     1       7.922   6.951  18.218  0.00  0.00    +0.000 C 
ENDBRANCH  23  25
ENDBRANCH  21  23
ENDBRANCH  15  21
ENDBRANCH  14  18
ENDBRANCH   1  14
TORSDOF 6
ENDMDL
MODEL 9
REMARK VINA RESULT:      -7.2      1.059      1.622
REMARK  Name = 
REMARK  8 active torsions:
REMARK  status: ('A' for Active; 'I' for Inactive)
REMARK    1  A    between atoms: C_1  and  C_2
REMARK    2  A    between atoms: C_2  and  O_3
REMARK    3  A    between atoms: O_3  and  C_4
REMARK    4  A    between atoms: C_4  and  C_6
REMARK    5  A    between atoms: N_9  and  C_10
REMARK    6  A    between atoms: C_10  and  C_11
REMARK    7  A    between atoms: N_14  and  C_15
REMARK    8  A    between atoms: C_22  and  C_23
REMARK                            x       y       z     vdW  Elec       q    Type
REMARK                         _______ _______ _______ _____ _____    ______ ____
ROOT
ATOM      1  C   UNL     1       2.503   7.436  18.268  0.00  0.00    +0.000 A 
ATOM      2  N   UNL     1       2.305   8.620  17.611  0.00  0.00    +0.000 NA
ATOM      3  N   UNL     1       1.617   9.424  18.403  0.00  0.00    +0.000 NA
ATOM      4  N   UNL     1       1.459   8.814  19.603  0.00  0.00    +0.000 N 
ATOM      5  C   UNL     1       1.984   7.535  19.553  0.00  0.00    +0.000 A 
ATOM      6  C   UNL     1       1.799   6.488  20.584  0.00  0.00    +0.000 C 
ENDROOT
BRANCH   4   7
ATOM      7  C   UNL     1       0.837   9.514  20.663  0.00  0.00    +0.000 A 
ATOM      8  C   UNL     1       0.269   8.776  21.714  0.00  0.00    +0.000 A 
ATOM      9  C   UNL     1      -0.457   9.431  22.709  0.00  0.00    +0.000 A 
ATOM     10  C   UNL     1      -0.620  10.809  22.641  0.00  0.00    +0.000 A 
ATOM     11  F   UNL     1      -1.377  11.428  23.557  0.00  0.00    +0.000 F 
ATOM     12  C   UNL     1      -0.032  11.554  21.625  0.00  0.00    +0.000 A 
ATOM     13  C   UNL     1       0.703  10.908  20.630  0.00  0.00    +0.000 A 
ENDBRANCH   4   7
BRANCH   1  14
ATOM     14  C   UNL     1       3.131   6.293  17.534  0.00  0.00    +0.000 C 
BRANCH  14  18
ATOM     15  C   UNL     1       7.323   5.362  17.097  0.00  0.00    +0.000 C 
ATOM     16  C   UNL     1       6.435   4.438  17.925  0.00  0.00    +0.000 C 
ATOM     17  C   UNL     1       4.951   4.672  17.633  0.00  0.00    +0.000 C 
ATOM     18  N   UNL     1       4.547   6.059  17.926  0.00  0.00    +0.000 NA
ATOM     19  C   UNL     1       5.394   7.031  17.195  0.00  0.00    +0.000 C 
ATOM     20  C   UNL     1       6.901   6.814  17.371  0.00  0.00    +0.000 C 
BRANCH  15  21
ATOM     21  C   UNL     1       7.249   5.042  15.612  0.00  0.00    +0.000 C 
ATOM     22  O   UNL     1       7.854   5.660  14.740  0.00  0.00    +0.000 OA
BRANCH  21  23
ATOM     23  O   UNL     1       6.445   3.975  15.372  0.00  0.00    +0.000 OA
BRANCH  23  25
ATOM     24  C   UNL     1       6.146   3.545  13.007  0.00  0.00    +0.000 C 
ATOM     25  C   UNL     1       5.534   4.134  14.273  0.00  0.00    +0.000 C 
ENDBRANCH  23  25
ENDBRANCH  21  23
ENDBRANCH  15  21
ENDBRANCH  14  18
ENDBRANCH   1  14
TORSDOF 6
ENDMDL
