MODEL 1
REMARK VINA RESULT:      -8.0      0.000      0.000
REMARK  Name = 
REMARK  7 active torsions:
REMARK  status: ('A' for Active; 'I' for Inactive)
REMARK    1  A    between atoms: C_1  and  C_2
REMARK    2  A    between atoms: C_2  and  C_3
REMARK    3  A    between atoms: C_9  and  S_10
REMARK    4  A    between atoms: S_10  and  C_13
REMARK    5  A    between atoms: C_13  and  C_14
REMARK    6  A    between atoms: C_14  and  C_15
REMARK    7  A    between atoms: C_26  and  C_27
REMARK                            x       y       z     vdW  Elec       q    Type
REMARK                         _______ _______ _______ _____ _____    ______ ____
ROOT
ATOM      1  C   UNL     1       0.758  10.267  21.421  0.00  0.00    +0.000 C 
ATOM      2  O   UNL     1       0.926   9.710  22.507  0.00  0.00    +0.000 OA
ATOM      3  N   UNL     1       1.068   9.688  20.191  0.00  0.00    +0.000 N 
ATOM      4  C   UNL     1       1.523   8.354  20.029  0.00  0.00    +0.000 A 
ATOM      5  C   UNL     1       1.642   7.335  20.964  0.00  0.00    +0.000 A 
ATOM      6  C   UNL     1       2.099   6.068  20.551  0.00  0.00    +0.000 A 
ATOM      7  C   UNL     1       2.415   5.836  19.206  0.00  0.00    +0.000 A 
ATOM      8  C   UNL     1       2.317   6.872  18.267  0.00  0.00    +0.000 A 
ATOM      9  C   UNL     1       1.876   8.116  18.702  0.00  0.00    +0.000 A 
ATOM     10  C   UNL     1       1.753   9.348  17.870  0.00  0.00    +0.000 C 
ATOM     11  C   UNL     1       1.154  10.372  18.863  0.00  0.00    +0.000 C 
ATOM     12  C   UNL     1      -0.174  10.887  18.308  0.00  0.00    +0.000 C 
ENDROOT
BRANCH   7  13
ATOM     13  S   UNL     1       3.021   4.243  18.677  0.00  0.00    +0.000 S 
ATOM     14  O   UNL     1       3.872   3.725  19.734  0.00  0.00    +0.000 OA
ATOM     15  O   UNL     1       1.874   3.487  18.217  0.00  0.00    +0.000 OA
BRANCH  13  16
ATOM     16  C   UNL     1       4.062   4.573  17.282  0.00  0.00    +0.000 C 
BRANCH  16  17
ATOM     17  C   UNL     1       5.407   5.160  17.716  0.00  0.00    +0.000 C 
BRANCH  17  18
ATOM     18  C   UNL     1       6.254   5.456  16.494  0.00  0.00    +0.000 C 
ATOM     19  O   UNL     1       6.998   6.432  16.479  0.00  0.00    +0.000 OA
ATOM     20  N   UNL     1       6.075   4.547  15.473  0.00  0.00    +0.000 N 
ATOM     21  C   UNL     1       6.736   4.687  14.281  0.00  0.00    +0.000 A 
ATOM     22  N   UNL     1       7.712   5.501  13.971  0.00  0.00    +0.000 NA
ATOM     23  C   UNL     1       8.027   5.361  12.636  0.00  0.00    +0.000 A 
ATOM     24  C   UNL     1       7.276   4.433  11.946  0.00  0.00    +0.000 A 
ATOM     25  S   UNL     1       6.179   3.669  13.026  0.00  0.00    +0.000 S 
ATOM     26  H   UNL     1       5.374   3.824  15.525  0.00  0.00    +0.000 HD
ENDBRANCH  17  18
ENDBRANCH  16  17
ENDBRANCH  13  16
ENDBRANCH   7  13
BRANCH   1  28
ATOM     27  C   UNL     1      -0.868  11.926  22.477  0.00  0.00    +0.000 C 
ATOM     28  C   UNL     1       0.141  11.659  21.370  0.00  0.00    +0.000 C 
ENDBRANCH   1  28
TORSDOF 5
ENDMDL
MODEL 2
REMARK VINA RESULT:      -7.8      3.905      4.877
REMARK  Name = 
REMARK  7 active torsions:
REMARK  status: ('A' for Active; 'I' for Inactive)
REMARK    1  A    between atoms: C_1  and  C_2
REMARK    2  A    between atoms: C_2  and  C_3
REMARK    3  A    between atoms: C_9  and  S_10
REMARK    4  A    between atoms: S_10  and  C_13
REMARK    5  A    between atoms: C_13  and  C_14
REMARK    6  A    between atoms: C_14  and  C_15
REMARK    7  A    between atoms: C_26  and  C_27
REMARK                            x       y       z     vdW  Elec       q    Type
REMARK                         _______ _______ _______ _____ _____    ______ ____
ROOT
ATOM      1  C   UNL     1       0.957   9.573  18.618  0.00  0.00    +0.000 C 
ATOM      2  O   UNL     1       1.214   9.885  17.455  0.00  0.00    +0.000 OA
ATOM      3  N   UNL     1       1.540   8.497  19.286  0.00  0.00    +0.000 N 
ATOM      4  C   UNL     1       2.571   7.686  18.744  0.00  0.00    +0.000 A 
ATOM      5  C   UNL     1       3.286   7.828  17.561  0.00  0.00    +0.000 A 
ATOM      6  C   UNL     1       4.295   6.896  17.249  0.00  0.00    +0.000 A 
ATOM      7  C   UNL     1       4.583   5.846  18.130  0.00  0.00    +0.000 A 
ATOM      8  C   UNL     1       3.845   5.689  19.310  0.00  0.00    +0.000 A 
ATOM      9  C   UNL     1       2.846   6.614  19.591  0.00  0.00    +0.000 A 
ATOM     10  C   UNL     1       1.927   6.590  20.764  0.00  0.00    +0.000 C 
ATOM     11  C   UNL     1       1.102   7.886  20.579  0.00  0.00    +0.000 C 
ATOM     12  C   UNL     1       1.282   8.772  21.812  0.00  0.00    +0.000 C 
ENDROOT
BRANCH   7  13
ATOM     13  S   UNL     1       5.840   4.645  17.730  0.00  0.00    +0.000 S 
ATOM     14  O   UNL     1       6.150   3.913  18.946  0.00  0.00    +0.000 OA
ATOM     15  O   UNL     1       5.394   3.945  16.542  0.00  0.00    +0.000 OA
BRANCH  13  16
ATOM     16  C   UNL     1       7.278   5.589  17.308  0.00  0.00    +0.000 C 
BRANCH  16  17
ATOM     17  C   UNL     1       7.768   6.422  18.495  0.00  0.00    +0.000 C 
BRANCH  17  18
ATOM     18  C   UNL     1       7.963   7.862  18.064  0.00  0.00    +0.000 C 
ATOM     19  O   UNL     1       7.559   8.239  16.969  0.00  0.00    +0.000 OA
ATOM     20  N   UNL     1       8.619   8.628  19.004  0.00  0.00    +0.000 N 
ATOM     21  C   UNL     1       8.910   9.945  18.761  0.00  0.00    +0.000 A 
ATOM     22  N   UNL     1       8.498  10.713  17.786  0.00  0.00    +0.000 NA
ATOM     23  C   UNL     1       9.100  11.950  17.883  0.00  0.00    +0.000 A 
ATOM     24  C   UNL     1       9.969  12.102  18.942  0.00  0.00    +0.000 A 
ATOM     25  S   UNL     1       9.984  10.662  19.881  0.00  0.00    +0.000 S 
ATOM     26  H   UNL     1       9.003   8.223  19.844  0.00  0.00    +0.000 HD
ENDBRANCH  17  18
ENDBRANCH  16  17
ENDBRANCH  13  16
ENDBRANCH   7  13
BRANCH   1  28
ATOM     27  C   UNL     1      -0.841  11.385  18.592  0.00  0.00    +0.000 C 
ATOM     28  C   UNL     1      -0.024  10.411  19.430  0.00  0.00    +0.000 C 
ENDBRANCH   1  28
TORSDOF 5
ENDMDL
MODEL 3
REMARK VINA RESULT:      -7.7      4.516     10.408
REMARK  Name = 
REMARK  7 active torsions:
REMARK  status: ('A' for Active; 'I' for Inactive)
REMARK    1  A    between atoms: C_1  and  C_2
REMARK    2  A    between atoms: C_2  and  C_3
REMARK    3  A    between atoms: C_9  and  S_10
REMARK    4  A    between atoms: S_10  and  C_13
REMARK    5  A    between atoms: C_13  and  C_14
REMARK    6  A    between atoms: C_14  and  C_15
REMARK    7  A    between atoms: C_26  and  C_27
REMARK                            x       y       z     vdW  Elec       q    Type
REMARK                         _______ _______ _______ _____ _____    ______ ____
ROOT
ATOM      1  C   UNL     1       2.690   5.495  19.799  0.00  0.00    +0.000 C 
ATOM      2  O   UNL     1       2.266   5.163  20.907  0.00  0.00    +0.000 OA
ATOM      3  N   UNL     1       2.471   6.745  19.221  0.00  0.00    +0.000 N 
ATOM      4  C   UNL     1       1.816   7.822  19.874  0.00  0.00    +0.000 A 
ATOM      5  C   UNL     1       1.380   7.933  21.188  0.00  0.00    +0.000 A 
ATOM      6  C   UNL     1       0.773   9.130  21.615  0.00  0.00    +0.000 A 
ATOM      7  C   UNL     1       0.626  10.203  20.726  0.00  0.00    +0.000 A 
ATOM      8  C   UNL     1       1.046  10.082  19.394  0.00  0.00    +0.000 A 
ATOM      9  C   UNL     1       1.630   8.886  18.993  0.00  0.00    +0.000 A 
ATOM     10  C   UNL     1       2.093   8.549  17.617  0.00  0.00    +0.000 C 
ATOM     11  C   UNL     1       2.707   7.141  17.798  0.00  0.00    +0.000 C 
ATOM     12  C   UNL     1       4.174   7.178  17.367  0.00  0.00    +0.000 C 
ENDROOT
BRANCH   7  13
ATOM     13  S   UNL     1      -0.166  11.714  21.249  0.00  0.00    +0.000 S 
ATOM     14  O   UNL     1       0.881  12.658  21.603  0.00  0.00    +0.000 OA
ATOM     15  O   UNL     1      -1.148  12.049  20.238  0.00  0.00    +0.000 OA
BRANCH  13  16
ATOM     16  C   UNL     1      -1.025  11.304  22.743  0.00  0.00    +0.000 C 
BRANCH  16  17
ATOM     17  C   UNL     1      -1.751  12.520  23.322  0.00  0.00    +0.000 C 
BRANCH  17  18
ATOM     18  C   UNL     1      -3.247  12.359  23.140  0.00  0.00    +0.000 C 
ATOM     19  O   UNL     1      -3.941  11.947  24.065  0.00  0.00    +0.000 OA
ATOM     20  N   UNL     1      -3.683  12.704  21.879  0.00  0.00    +0.000 N 
ATOM     21  C   UNL     1      -5.003  12.583  21.533  0.00  0.00    +0.000 A 
ATOM     22  N   UNL     1      -6.036  12.335  22.297  0.00  0.00    +0.000 NA
ATOM     23  C   UNL     1      -7.170  12.220  21.521  0.00  0.00    +0.000 A 
ATOM     24  C   UNL     1      -6.978  12.384  20.165  0.00  0.00    +0.000 A 
ATOM     25  S   UNL     1      -5.327  12.755  19.863  0.00  0.00    +0.000 S 
ATOM     26  H   UNL     1      -3.038  12.945  21.143  0.00  0.00    +0.000 HD
ENDBRANCH  17  18
ENDBRANCH  16  17
ENDBRANCH  13  16
ENDBRANCH   7  13
BRANCH   1  28
ATOM     27  C   UNL     1       5.006   4.495  19.414  0.00  0.00    +0.000 C 
ATOM     28  C   UNL     1       3.545   4.525  18.992  0.00  0.00    +0.000 C 
ENDBRANCH   1  28
TORSDOF 5
ENDMDL
MODEL 4
REMARK VINA RESULT:      -7.6      4.082     10.008
REMARK  Name = 
REMARK  7 active torsions:
REMARK  status: ('A' for Active; 'I' for Inactive)
REMARK    1  A    between atoms: C_1  and  C_2
REMARK    2  A    between atoms: C_2  and  C_3
REMARK    3  A    between atoms: C_9  and  S_10
REMARK    4  A    between atoms: S_10  and  C_13
REMARK    5  A    between atoms: C_13  and  C_14
REMARK    6  A    between atoms: C_14  and  C_15
REMARK    7  A    between atoms: C_26  and  C_27
REMARK                            x       y       z     vdW  Elec       q    Type
REMARK                         _______ _______ _______ _____ _____    ______ ____
ROOT
ATOM      1  C   UNL     1       4.902   5.817  16.546  0.00  0.00    +0.000 C 
ATOM      2  O   UNL     1       5.091   6.777  15.798  0.00  0.00    +0.000 OA
ATOM      3  N   UNL     1       4.068   5.849  17.663  0.00  0.00    +0.000 N 
ATOM      4  C   UNL     1       3.260   6.958  18.023  0.00  0.00    +0.000 A 
ATOM      5  C   UNL     1       3.020   8.144  17.340  0.00  0.00    +0.000 A 
ATOM      6  C   UNL     1       2.144   9.096  17.897  0.00  0.00    +0.000 A 
ATOM      7  C   UNL     1       1.511   8.842  19.121  0.00  0.00    +0.000 A 
ATOM      8  C   UNL     1       1.773   7.657  19.821  0.00  0.00    +0.000 A 
ATOM      9  C   UNL     1       2.650   6.738  19.257  0.00  0.00    +0.000 A 
ATOM     10  C   UNL     1       3.090   5.450  19.866  0.00  0.00    +0.000 C 
ATOM     11  C   UNL     1       3.988   4.840  18.764  0.00  0.00    +0.000 C 
ATOM     12  C   UNL     1       3.424   3.477  18.360  0.00  0.00    +0.000 C 
ENDROOT
BRANCH   7  13
ATOM     13  S   UNL     1       0.422  10.054  19.848  0.00  0.00    +0.000 S 
ATOM     14  O   UNL     1      -0.260   9.418  20.962  0.00  0.00    +0.000 OA
ATOM     15  O   UNL     1       1.204  11.257  20.052  0.00  0.00    +0.000 OA
BRANCH  13  16
ATOM     16  C   UNL     1      -0.800  10.392  18.611  0.00  0.00    +0.000 C 
BRANCH  16  17
ATOM     17  C   UNL     1      -1.186  11.873  18.596  0.00  0.00    +0.000 C 
BRANCH  17  18
ATOM     18  C   UNL     1      -2.490  12.071  19.344  0.00  0.00    +0.000 C 
ATOM     19  O   UNL     1      -2.486  12.243  20.558  0.00  0.00    +0.000 OA
ATOM     20  N   UNL     1      -3.599  12.021  18.526  0.00  0.00    +0.000 N 
ATOM     21  C   UNL     1      -4.861  12.144  19.044  0.00  0.00    +0.000 A 
ATOM     22  N   UNL     1      -5.227  12.494  20.251  0.00  0.00    +0.000 NA
ATOM     23  C   UNL     1      -6.598  12.411  20.363  0.00  0.00    +0.000 A 
ATOM     24  C   UNL     1      -7.260  11.994  19.227  0.00  0.00    +0.000 A 
ATOM     25  S   UNL     1      -6.124  11.757  17.959  0.00  0.00    +0.000 S 
ATOM     26  H   UNL     1      -3.527  11.781  17.549  0.00  0.00    +0.000 HD
ENDBRANCH  17  18
ENDBRANCH  16  17
ENDBRANCH  13  16
ENDBRANCH   7  13
BRANCH   1  28
ATOM     27  C   UNL     1       5.790   4.219  14.765  0.00  0.00    +0.000 C 
ATOM     28  C   UNL     1       5.570   4.480  16.248  0.00  0.00    +0.000 C 
ENDBRANCH   1  28
TORSDOF 5
ENDMDL
MODEL 5
REMARK VINA RESULT:      -7.6      3.409      9.968
REMARK  Name = 
REMARK  7 active torsions:
REMARK  status: ('A' for Active; 'I' for Inactive)
REMARK    1  A    between atoms: C_1  and  C_2
REMARK    2  A    between atoms: C_2  and  C_3
REMARK    3  A    between atoms: C_9  and  S_10
REMARK    4  A    between atoms: S_10  and  C_13
REMARK    5  A    between atoms: C_13  and  C_14
REMARK    6  A    between atoms: C_14  and  C_15
REMARK    7  A    between atoms: C_26  and  C_27
REMARK                            x       y       z     vdW  Elec       q    Type
REMARK                         _______ _______ _______ _____ _____    ______ ____
ROOT
ATOM      1  C   UNL     1       4.850   5.852  16.286  0.00  0.00    +0.000 C 
ATOM      2  O   UNL     1       4.891   6.965  15.763  0.00  0.00    +0.000 OA
ATOM      3  N   UNL     1       4.191   5.575  17.483  0.00  0.00    +0.000 N 
ATOM      4  C   UNL     1       3.406   6.516  18.198  0.00  0.00    +0.000 A 
ATOM      5  C   UNL     1       3.024   7.805  17.848  0.00  0.00    +0.000 A 
ATOM      6  C   UNL     1       2.207   8.545  18.724  0.00  0.00    +0.000 A 
ATOM      7  C   UNL     1       1.773   7.981  19.930  0.00  0.00    +0.000 A 
ATOM      8  C   UNL     1       2.178   6.690  20.294  0.00  0.00    +0.000 A 
ATOM      9  C   UNL     1       2.994   5.983  19.418  0.00  0.00    +0.000 A 
ATOM     10  C   UNL     1       3.566   4.625  19.647  0.00  0.00    +0.000 C 
ATOM     11  C   UNL     1       4.312   4.341  18.322  0.00  0.00    +0.000 C 
ATOM     12  C   UNL     1       3.744   3.068  17.693  0.00  0.00    +0.000 C 
ENDROOT
BRANCH   7  13
ATOM     13  S   UNL     1       0.761   8.920  21.060  0.00  0.00    +0.000 S 
ATOM     14  O   UNL     1      -0.466   8.172  21.276  0.00  0.00    +0.000 OA
ATOM     15  O   UNL     1       1.605   9.289  22.178  0.00  0.00    +0.000 OA
BRANCH  13  16
ATOM     16  C   UNL     1       0.324  10.397  20.185  0.00  0.00    +0.000 C 
BRANCH  16  17
ATOM     17  C   UNL     1       0.571  11.645  21.037  0.00  0.00    +0.000 C 
BRANCH  17  18
ATOM     18  C   UNL     1      -0.628  11.902  21.929  0.00  0.00    +0.000 C 
ATOM     19  O   UNL     1      -0.558  11.687  23.134  0.00  0.00    +0.000 OA
ATOM     20  N   UNL     1      -1.729  12.367  21.241  0.00  0.00    +0.000 N 
ATOM     21  C   UNL     1      -2.910  12.616  21.889  0.00  0.00    +0.000 A 
ATOM     22  N   UNL     1      -3.153  12.654  23.174  0.00  0.00    +0.000 NA
ATOM     23  C   UNL     1      -4.499  12.863  23.385  0.00  0.00    +0.000 A 
ATOM     24  C   UNL     1      -5.265  12.982  22.245  0.00  0.00    +0.000 A 
ATOM     25  S   UNL     1      -4.249  12.888  20.861  0.00  0.00    +0.000 S 
ATOM     26  H   UNL     1      -1.737  12.429  20.234  0.00  0.00    +0.000 HD
ENDBRANCH  17  18
ENDBRANCH  16  17
ENDBRANCH  13  16
ENDBRANCH   7  13
BRANCH   1  28
ATOM     27  C   UNL     1       7.008   4.554  15.869  0.00  0.00    +0.000 C 
ATOM     28  C   UNL     1       5.514   4.665  15.598  0.00  0.00    +0.000 C 
ENDBRANCH   1  28
TORSDOF 5
ENDMDL
MODEL 6
REMARK VINA RESULT:      -7.5      3.461      8.804
REMARK  Name = 
REMARK  7 active torsions:
REMARK  status: ('A' for Active; 'I' for Inactive)
REMARK    1  A    between atoms: C_1  and  C_2
REMARK    2  A    between atoms: C_2  and  C_3
REMARK    3  A    between atoms: C_9  and  S_10
REMARK    4  A    between atoms: S_10  and  C_13
REMARK    5  A    between atoms: C_13  and  C_14
REMARK    6  A    between atoms: C_14  and  C_15
REMARK    7  A    between atoms: C_26  and  C_27
REMARK                            x       y       z     vdW  Elec       q    Type
REMARK                         _______ _______ _______ _____ _____    ______ ____
ROOT
ATOM      1  C   UNL     1       4.563   5.683  16.614  0.00  0.00    +0.000 C 
ATOM      2  O   UNL     1       4.703   6.790  16.092  0.00  0.00    +0.000 OA
ATOM      3  N   UNL     1       3.867   5.461  17.802  0.00  0.00    +0.000 N 
ATOM      4  C   UNL     1       3.153   6.464  18.507  0.00  0.00    +0.000 A 
ATOM      5  C   UNL     1       2.884   7.780  18.153  0.00  0.00    +0.000 A 
ATOM      6  C   UNL     1       2.120   8.585  19.020  0.00  0.00    +0.000 A 
ATOM      7  C   UNL     1       1.624   8.058  20.220  0.00  0.00    +0.000 A 
ATOM      8  C   UNL     1       1.916   6.738  20.587  0.00  0.00    +0.000 A 
ATOM      9  C   UNL     1       2.682   5.967  19.721  0.00  0.00    +0.000 A 
ATOM     10  C   UNL     1       3.137   4.566  19.955  0.00  0.00    +0.000 C 
ATOM     11  C   UNL     1       3.875   4.222  18.640  0.00  0.00    +0.000 C 
ATOM     12  C   UNL     1       3.212   3.000  18.002  0.00  0.00    +0.000 C 
ENDROOT
BRANCH   7  13
ATOM     13  S   UNL     1       0.678   9.078  21.337  0.00  0.00    +0.000 S 
ATOM     14  O   UNL     1      -0.589   8.409  21.575  0.00  0.00    +0.000 OA
ATOM     15  O   UNL     1       1.551   9.417  22.442  0.00  0.00    +0.000 OA
BRANCH  13  16
ATOM     16  C   UNL     1       0.323  10.561  20.436  0.00  0.00    +0.000 C 
BRANCH  16  17
ATOM     17  C   UNL     1      -0.845  11.329  21.061  0.00  0.00    +0.000 C 
BRANCH  17  18
ATOM     18  C   UNL     1      -1.890  11.622  20.002  0.00  0.00    +0.000 C 
ATOM     19  O   UNL     1      -2.745  12.479  20.200  0.00  0.00    +0.000 OA
ATOM     20  N   UNL     1      -1.758  10.839  18.875  0.00  0.00    +0.000 N 
ATOM     21  C   UNL     1      -2.643  10.948  17.835  0.00  0.00    +0.000 A 
ATOM     22  N   UNL     1      -3.568  11.851  17.631  0.00  0.00    +0.000 NA
ATOM     23  C   UNL     1      -4.283  11.535  16.496  0.00  0.00    +0.000 A 
ATOM     24  C   UNL     1      -3.885  10.383  15.849  0.00  0.00    +0.000 A 
ATOM     25  S   UNL     1      -2.529   9.710  16.662  0.00  0.00    +0.000 S 
ATOM     26  H   UNL     1      -1.086  10.089  18.827  0.00  0.00    +0.000 HD
ENDBRANCH  17  18
ENDBRANCH  16  17
ENDBRANCH  13  16
ENDBRANCH   7  13
BRANCH   1  28
ATOM     27  C   UNL     1       6.653   4.354  15.998  0.00  0.00    +0.000 C 
ATOM     28  C   UNL     1       5.136   4.445  15.933  0.00  0.00    +0.000 C 
ENDBRANCH   1  28
TORSDOF 5
ENDMDL
MODEL 7
REMARK VINA RESULT:      -7.5      4.326      9.806
REMARK  Name = 
REMARK  7 active torsions:
REMARK  status: ('A' for Active; 'I' for Inactive)
REMARK    1  A    between atoms: C_1  and  C_2
REMARK    2  A    between atoms: C_2  and  C_3
REMARK    3  A    between atoms: C_9  and  S_10
REMARK    4  A    between atoms: S_10  and  C_13
REMARK    5  A    between atoms: C_13  and  C_14
REMARK    6  A    between atoms: C_14  and  C_15
REMARK    7  A    between atoms: C_26  and  C_27
REMARK                            x       y       z     vdW  Elec       q    Type
REMARK                         _______ _______ _______ _____ _____    ______ ____
ROOT
ATOM      1  C   UNL     1       4.654   5.751  16.735  0.00  0.00    +0.000 C 
ATOM      2  O   UNL     1       4.864   6.707  15.986  0.00  0.00    +0.000 OA
ATOM      3  N   UNL     1       3.850   5.812  17.872  0.00  0.00    +0.000 N 
ATOM      4  C   UNL     1       3.097   6.952  18.257  0.00  0.00    +0.000 A 
ATOM      5  C   UNL     1       2.890   8.150  17.585  0.00  0.00    +0.000 A 
ATOM      6  C   UNL     1       2.068   9.135  18.167  0.00  0.00    +0.000 A 
ATOM      7  C   UNL     1       1.455   8.901  19.405  0.00  0.00    +0.000 A 
ATOM      8  C   UNL     1       1.684   7.702  20.093  0.00  0.00    +0.000 A 
ATOM      9  C   UNL     1       2.508   6.751  19.504  0.00  0.00    +0.000 A 
ATOM     10  C   UNL     1       2.909   5.443  20.097  0.00  0.00    +0.000 C 
ATOM     11  C   UNL     1       3.754   4.802  18.971  0.00  0.00    +0.000 C 
ATOM     12  C   UNL     1       3.125   3.465  18.574  0.00  0.00    +0.000 C 
ENDROOT
BRANCH   7  13
ATOM     13  S   UNL     1       0.435  10.153  20.164  0.00  0.00    +0.000 S 
ATOM     14  O   UNL     1       0.107   9.699  21.504  0.00  0.00    +0.000 OA
ATOM     15  O   UNL     1       1.102  11.423  19.959  0.00  0.00    +0.000 OA
BRANCH  13  16
ATOM     16  C   UNL     1      -1.072  10.162  19.233  0.00  0.00    +0.000 C 
BRANCH  16  17
ATOM     17  C   UNL     1      -1.145  11.373  18.299  0.00  0.00    +0.000 C 
BRANCH  17  18
ATOM     18  C   UNL     1      -2.559  11.531  17.775  0.00  0.00    +0.000 C 
ATOM     19  O   UNL     1      -2.801  11.349  16.587  0.00  0.00    +0.000 OA
ATOM     20  N   UNL     1      -3.464  11.893  18.750  0.00  0.00    +0.000 N 
ATOM     21  C   UNL     1      -4.780  12.114  18.442  0.00  0.00    +0.000 A 
ATOM     22  N   UNL     1      -5.419  11.862  17.328  0.00  0.00    +0.000 NA
ATOM     23  C   UNL     1      -6.717  12.317  17.425  0.00  0.00    +0.000 A 
ATOM     24  C   UNL     1      -7.047  12.913  18.624  0.00  0.00    +0.000 A 
ATOM     25  S   UNL     1      -5.697  12.846  19.686  0.00  0.00    +0.000 S 
ATOM     26  H   UNL     1      -3.170  12.116  19.689  0.00  0.00    +0.000 HD
ENDBRANCH  17  18
ENDBRANCH  16  17
ENDBRANCH  13  16
ENDBRANCH   7  13
BRANCH   1  28
ATOM     27  C   UNL     1       6.779   4.389  16.361  0.00  0.00    +0.000 C 
ATOM     28  C   UNL     1       5.258   4.389  16.415  0.00  0.00    +0.000 C 
ENDBRANCH   1  28
TORSDOF 5
ENDMDL
MODEL 8
REMARK VINA RESULT:      -7.4      3.779     10.372
REMARK  Name = 
REMARK  7 active torsions:
REMARK  status: ('A' for Active; 'I' for Inactive)
REMARK    1  A    between atoms: C_1  and  C_2
REMARK    2  A    between atoms: C_2  and  C_3
REMARK    3  A    between atoms: C_9  and  S_10
REMARK    4  A    between atoms: S_10  and  C_13
REMARK    5  A    between atoms: C_13  and  C_14
REMARK    6  A    between atoms: C_14  and  C_15
REMARK    7  A    between atoms: C_26  and  C_27
REMARK                            x       y       z     vdW  Elec       q    Type
REMARK                         _______ _______ _______ _____ _____    ______ ____
ROOT
ATOM      1  C   UNL     1       4.616   5.630  16.875  0.00  0.00    +0.000 C 
ATOM      2  O   UNL     1       4.865   6.574  16.123  0.00  0.00    +0.000 OA
ATOM      3  N   UNL     1       3.799   5.723  18.000  0.00  0.00    +0.000 N 
ATOM      4  C   UNL     1       3.075   6.887  18.367  0.00  0.00    +0.000 A 
ATOM      5  C   UNL     1       2.912   8.085  17.683  0.00  0.00    +0.000 A 
ATOM      6  C   UNL     1       2.111   9.098  18.247  0.00  0.00    +0.000 A 
ATOM      7  C   UNL     1       1.474   8.891  19.478  0.00  0.00    +0.000 A 
ATOM      8  C   UNL     1       1.658   7.691  20.177  0.00  0.00    +0.000 A 
ATOM      9  C   UNL     1       2.463   6.712  19.606  0.00  0.00    +0.000 A 
ATOM     10  C   UNL     1       2.816   5.397  20.214  0.00  0.00    +0.000 C 
ATOM     11  C   UNL     1       3.658   4.724  19.105  0.00  0.00    +0.000 C 
ATOM     12  C   UNL     1       2.995   3.403  18.708  0.00  0.00    +0.000 C 
ENDROOT
BRANCH   7  13
ATOM     13  S   UNL     1       0.481  10.178  20.213  0.00  0.00    +0.000 S 
ATOM     14  O   UNL     1       1.096  11.451  19.880  0.00  0.00    +0.000 OA
ATOM     15  O   UNL     1      -0.896   9.908  19.851  0.00  0.00    +0.000 OA
BRANCH  13  16
ATOM     16  C   UNL     1       0.646   9.960  21.963  0.00  0.00    +0.000 C 
BRANCH  16  17
ATOM     17  C   UNL     1      -0.711  10.037  22.666  0.00  0.00    +0.000 C 
BRANCH  17  18
ATOM     18  C   UNL     1      -1.076  11.487  22.918  0.00  0.00    +0.000 C 
ATOM     19  O   UNL     1      -0.202  12.348  22.945  0.00  0.00    +0.000 OA
ATOM     20  N   UNL     1      -2.427  11.684  23.108  0.00  0.00    +0.000 N 
ATOM     21  C   UNL     1      -2.925  12.930  23.384  0.00  0.00    +0.000 A 
ATOM     22  N   UNL     1      -2.321  14.089  23.331  0.00  0.00    +0.000 NA
ATOM     23  C   UNL     1      -3.176  15.079  23.766  0.00  0.00    +0.000 A 
ATOM     24  C   UNL     1      -4.430  14.651  24.147  0.00  0.00    +0.000 A 
ATOM     25  S   UNL     1      -4.557  12.956  23.893  0.00  0.00    +0.000 S 
ATOM     26  H   UNL     1      -3.073  10.911  23.165  0.00  0.00    +0.000 HD
ENDBRANCH  17  18
ENDBRANCH  16  17
ENDBRANCH  13  16
ENDBRANCH   7  13
BRANCH   1  28
ATOM     27  C   UNL     1       6.472   4.277  15.762  0.00  0.00    +0.000 C 
ATOM     28  C   UNL     1       5.185   4.249  16.573  0.00  0.00    +0.000 C 
ENDBRANCH   1  28
TORSDOF 5
ENDMDL
MODEL 9
REMARK VINA RESULT:      -7.4      3.604      8.392
REMARK  Name = 
REMARK  7 active torsions:
REMARK  status: ('A' for Active; 'I' for Inactive)
REMARK    1  A    between atoms: C_1  and  C_2
REMARK    2  A    between atoms: C_2  and  C_3
REMARK    3  A    between atoms: C_9  and  S_10
REMARK    4  A    between atoms: S_10  and  C_13
REMARK    5  A    between atoms: C_13  and  C_14
REMARK    6  A    between atoms: C_14  and  C_15
REMARK    7  A    between atoms: C_26  and  C_27
REMARK                            x       y       z     vdW  Elec       q    Type
REMARK                         _______ _______ _______ _____ _____    ______ ____
ROOT
ATOM      1  C   UNL     1       4.680   5.697  16.573  0.00  0.00    +0.000 C 
ATOM      2  O   UNL     1       4.773   6.799  16.032  0.00  0.00    +0.000 OA
ATOM      3  N   UNL     1       3.985   5.466  17.760  0.00  0.00    +0.000 N 
ATOM      4  C   UNL     1       3.219   6.448  18.440  0.00  0.00    +0.000 A 
ATOM      5  C   UNL     1       2.893   7.743  18.059  0.00  0.00    +0.000 A 
ATOM      6  C   UNL     1       2.085   8.529  18.904  0.00  0.00    +0.000 A 
ATOM      7  C   UNL     1       1.603   8.002  20.110  0.00  0.00    +0.000 A 
ATOM      8  C   UNL     1       1.952   6.704  20.505  0.00  0.00    +0.000 A 
ATOM      9  C   UNL     1       2.761   5.953  19.659  0.00  0.00    +0.000 A 
ATOM     10  C   UNL     1       3.277   4.579  19.924  0.00  0.00    +0.000 C 
ATOM     11  C   UNL     1       4.041   4.244  18.621  0.00  0.00    +0.000 C 
ATOM     12  C   UNL     1       3.440   2.982  18.001  0.00  0.00    +0.000 C 
ENDROOT
BRANCH   7  13
ATOM     13  S   UNL     1       0.602   8.998  21.200  0.00  0.00    +0.000 S 
ATOM     14  O   UNL     1      -0.567   8.214  21.560  0.00  0.00    +0.000 OA
ATOM     15  O   UNL     1       1.484   9.520  22.224  0.00  0.00    +0.000 OA
BRANCH  13  16
ATOM     16  C   UNL     1       0.036  10.355  20.212  0.00  0.00    +0.000 C 
BRANCH  16  17
ATOM     17  C   UNL     1       0.457  11.698  20.814  0.00  0.00    +0.000 C 
BRANCH  17  18
ATOM     18  C   UNL     1       1.298  12.466  19.813  0.00  0.00    +0.000 C 
ATOM     19  O   UNL     1       1.137  12.292  18.609  0.00  0.00    +0.000 OA
ATOM     20  N   UNL     1       2.208  13.316  20.405  0.00  0.00    +0.000 N 
ATOM     21  C   UNL     1       3.073  14.059  19.646  0.00  0.00    +0.000 A 
ATOM     22  N   UNL     1       3.081  14.248  18.351  0.00  0.00    +0.000 NA
ATOM     23  C   UNL     1       4.178  15.005  17.999  0.00  0.00    +0.000 A 
ATOM     24  C   UNL     1       4.995  15.383  19.043  0.00  0.00    +0.000 A 
ATOM     25  S   UNL     1       4.329  14.819  20.524  0.00  0.00    +0.000 S 
ATOM     26  H   UNL     1       2.345  13.334  21.404  0.00  0.00    +0.000 HD
ENDBRANCH  17  18
ENDBRANCH  16  17
ENDBRANCH  13  16
ENDBRANCH   7  13
BRANCH   1  28
ATOM     27  C   UNL     1       6.830   4.425  16.050  0.00  0.00    +0.000 C 
ATOM     28  C   UNL     1       5.315   4.475  15.921  0.00  0.00    +0.000 C 
ENDBRANCH   1  28
TORSDOF 5
ENDMDL
