MODEL 1
REMARK VINA RESULT:      -6.8      0.000      0.000
REMARK  Name = 
REMARK  11 active torsions:
REMARK  status: ('A' for Active; 'I' for Inactive)
REMARK    1  A    between atoms: C_1  and  C_2
REMARK    2  A    between atoms: C_2  and  C_3
REMARK    3  A    between atoms: C_4  and  C_5
REMARK    4  A    between atoms: C_6  and  C_7
REMARK    5  A    between atoms: C_11  and  C_12
REMARK    6  A    between atoms: C_11  and  C_13
REMARK    7  A    between atoms: C_14  and  C_15
REMARK    8  A    between atoms: C_16  and  C_17
REMARK    9  A    between atoms: C_17  and  C_18
REMARK   10  A    between atoms: C_19  and  C_20
REMARK   11  A    between atoms: C_20  and  O_22
REMARK                            x       y       z     vdW  Elec       q    Type
REMARK                         _______ _______ _______ _____ _____    ______ ____
ROOT
ATOM      1  C   UNL     1       3.576   7.748  17.129  0.00  0.00    +0.000 C 
ATOM      2  C   UNL     1       2.466   8.165  18.071  0.00  0.00    +0.000 C 
ATOM      3  C   UNL     1       2.103   7.375  19.109  0.00  0.00    +0.000 C 
ENDROOT
BRANCH   2   4
ATOM      4  C   UNL     1       1.772   9.444  17.881  0.00  0.00    +0.000 C 
ATOM      5  C   UNL     1       1.131  10.192  18.798  0.00  0.00    +0.000 C 
BRANCH   5   6
ATOM      6  C   UNL     1       0.411  11.511  18.488  0.00  0.00    +0.000 C 
ATOM      7  C   UNL     1      -1.082  11.451  18.928  0.00  0.00    +0.000 C 
ATOM      8  C   UNL     1      -1.859  10.312  18.265  0.00  0.00    +0.000 C 
ATOM      9  C   UNL     1      -1.226  11.407  20.460  0.00  0.00    +0.000 C 
ATOM     10  C   UNL     1      -0.475  12.544  21.154  0.00  0.00    +0.000 C 
ATOM     11  C   UNL     1       0.974  12.699  20.679  0.00  0.00    +0.000 C 
ATOM     12  C   UNL     1       1.108  12.763  19.137  0.00  0.00    +0.000 C 
ATOM     13  C   UNL     1       2.598  12.841  18.737  0.00  0.00    +0.000 C 
ATOM     14  C   UNL     1       0.470  14.083  18.628  0.00  0.00    +0.000 C 
ENDBRANCH   5   6
ENDBRANCH   2   4
BRANCH   3  15
ATOM     15  C   UNL     1       2.685   6.078  19.415  0.00  0.00    +0.000 C 
ATOM     16  C   UNL     1       2.066   5.084  20.075  0.00  0.00    +0.000 C 
BRANCH  16  17
ATOM     17  C   UNL     1       2.663   3.765  20.334  0.00  0.00    +0.000 C 
ATOM     18  C   UNL     1       2.025   2.883  21.385  0.00  0.00    +0.000 C 
ATOM     19  C   UNL     1       3.768   3.391  19.655  0.00  0.00    +0.000 C 
BRANCH  19  20
ATOM     20  C   UNL     1       4.441   2.079  19.825  0.00  0.00    +0.000 C 
ATOM     21  O   UNL     1       5.210   1.781  20.723  0.00  0.00    +0.000 OA
BRANCH  20  22
ATOM     22  O   UNL     1       4.093   1.211  18.852  0.00  0.00    +0.000 OA
ATOM     23  H   UNL     1       3.345   0.625  19.062  0.00  0.00    +0.000 HD
ENDBRANCH  20  22
ENDBRANCH  19  20
ENDBRANCH  16  17
ENDBRANCH   3  15
TORSDOF 6
ENDMDL
MODEL 2
REMARK VINA RESULT:      -6.7      4.575      8.830
REMARK  Name = 
REMARK  11 active torsions:
REMARK  status: ('A' for Active; 'I' for Inactive)
REMARK    1  A    between atoms: C_1  and  C_2
REMARK    2  A    between atoms: C_2  and  C_3
REMARK    3  A    between atoms: C_4  and  C_5
REMARK    4  A    between atoms: C_6  and  C_7
REMARK    5  A    between atoms: C_11  and  C_12
REMARK    6  A    between atoms: C_11  and  C_13
REMARK    7  A    between atoms: C_14  and  C_15
REMARK    8  A    between atoms: C_16  and  C_17
REMARK    9  A    between atoms: C_17  and  C_18
REMARK   10  A    between atoms: C_19  and  C_20
REMARK   11  A    between atoms: C_20  and  O_22
REMARK                            x       y       z     vdW  Elec       q    Type
REMARK                         _______ _______ _______ _____ _____    ______ ____
ROOT
ATOM      1  C   UNL     1       1.908   7.568  20.103  0.00  0.00    +0.000 C 
ATOM      2  C   UNL     1       2.533   7.570  18.724  0.00  0.00    +0.000 C 
ATOM      3  C   UNL     1       2.190   8.508  17.808  0.00  0.00    +0.000 C 
ENDROOT
BRANCH   2   4
ATOM      4  C   UNL     1       3.532   6.559  18.360  0.00  0.00    +0.000 C 
ATOM      5  C   UNL     1       4.488   6.012  19.133  0.00  0.00    +0.000 C 
BRANCH   5   6
ATOM      6  C   UNL     1       5.506   4.973  18.644  0.00  0.00    +0.000 C 
ATOM      7  C   UNL     1       4.803   3.637  18.261  0.00  0.00    +0.000 C 
ATOM      8  C   UNL     1       4.010   3.024  19.417  0.00  0.00    +0.000 C 
ATOM      9  C   UNL     1       3.930   3.788  17.003  0.00  0.00    +0.000 C 
ATOM     10  C   UNL     1       4.698   4.383  15.823  0.00  0.00    +0.000 C 
ATOM     11  C   UNL     1       5.484   5.649  16.180  0.00  0.00    +0.000 C 
ATOM     12  C   UNL     1       6.375   5.483  17.435  0.00  0.00    +0.000 C 
ATOM     13  C   UNL     1       7.070   6.820  17.773  0.00  0.00    +0.000 C 
ATOM     14  C   UNL     1       7.521   4.487  17.113  0.00  0.00    +0.000 C 
ENDBRANCH   5   6
ENDBRANCH   2   4
BRANCH   3  15
ATOM     15  C   UNL     1       1.207   9.559  18.016  0.00  0.00    +0.000 C 
ATOM     16  C   UNL     1      -0.110   9.452  17.767  0.00  0.00    +0.000 C 
BRANCH  16  17
ATOM     17  C   UNL     1      -1.090  10.518  18.027  0.00  0.00    +0.000 C 
ATOM     18  C   UNL     1      -0.618  11.770  18.732  0.00  0.00    +0.000 C 
ATOM     19  C   UNL     1      -2.377  10.341  17.659  0.00  0.00    +0.000 C 
BRANCH  19  20
ATOM     20  C   UNL     1      -3.442  11.354  17.859  0.00  0.00    +0.000 C 
ATOM     21  O   UNL     1      -3.956  11.652  18.923  0.00  0.00    +0.000 OA
BRANCH  20  22
ATOM     22  O   UNL     1      -3.791  11.946  16.696  0.00  0.00    +0.000 OA
ATOM     23  H   UNL     1      -3.900  11.346  15.938  0.00  0.00    +0.000 HD
ENDBRANCH  20  22
ENDBRANCH  19  20
ENDBRANCH  16  17
ENDBRANCH   3  15
TORSDOF 6
ENDMDL
MODEL 3
REMARK VINA RESULT:      -6.7      6.096      9.408
REMARK  Name = 
REMARK  11 active torsions:
REMARK  status: ('A' for Active; 'I' for Inactive)
REMARK    1  A    between atoms: C_1  and  C_2
REMARK    2  A    between atoms: C_2  and  C_3
REMARK    3  A    between atoms: C_4  and  C_5
REMARK    4  A    between atoms: C_6  and  C_7
REMARK    5  A    between atoms: C_11  and  C_12
REMARK    6  A    between atoms: C_11  and  C_13
REMARK    7  A    between atoms: C_14  and  C_15
REMARK    8  A    between atoms: C_16  and  C_17
REMARK    9  A    between atoms: C_17  and  C_18
REMARK   10  A    between atoms: C_19  and  C_20
REMARK   11  A    between atoms: C_20  and  O_22
REMARK                            x       y       z     vdW  Elec       q    Type
REMARK                         _______ _______ _______ _____ _____    ______ ____
ROOT
ATOM      1  C   UNL     1       8.074   6.670  18.734  0.00  0.00    +0.000 C 
ATOM      2  C   UNL     1       7.094   7.353  17.803  0.00  0.00    +0.000 C 
ATOM      3  C   UNL     1       7.348   8.590  17.313  0.00  0.00    +0.000 C 
ENDROOT
BRANCH   2   4
ATOM      4  C   UNL     1       5.853   6.678  17.407  0.00  0.00    +0.000 C 
ATOM      5  C   UNL     1       5.184   5.707  18.058  0.00  0.00    +0.000 C 
BRANCH   5   6
ATOM      6  C   UNL     1       3.900   5.047  17.541  0.00  0.00    +0.000 C 
ATOM      7  C   UNL     1       4.172   3.590  17.062  0.00  0.00    +0.000 C 
ATOM      8  C   UNL     1       5.231   3.508  15.961  0.00  0.00    +0.000 C 
ATOM      9  C   UNL     1       4.516   2.655  18.236  0.00  0.00    +0.000 C 
ATOM     10  C   UNL     1       3.467   2.700  19.348  0.00  0.00    +0.000 C 
ATOM     11  C   UNL     1       3.098   4.122  19.784  0.00  0.00    +0.000 C 
ATOM     12  C   UNL     1       2.735   5.050  18.599  0.00  0.00    +0.000 C 
ATOM     13  C   UNL     1       2.452   6.480  19.112  0.00  0.00    +0.000 C 
ATOM     14  C   UNL     1       1.404   4.564  17.965  0.00  0.00    +0.000 C 
ENDBRANCH   5   6
ENDBRANCH   2   4
BRANCH   3  15
ATOM     15  C   UNL     1       8.522   9.388  17.628  0.00  0.00    +0.000 C 
ATOM     16  C   UNL     1       8.529  10.494  18.392  0.00  0.00    +0.000 C 
BRANCH  16  17
ATOM     17  C   UNL     1       9.739  11.259  18.730  0.00  0.00    +0.000 C 
ATOM     18  C   UNL     1      10.390  11.014  20.073  0.00  0.00    +0.000 C 
ATOM     19  C   UNL     1      10.216  12.170  17.854  0.00  0.00    +0.000 C 
BRANCH  19  20
ATOM     20  C   UNL     1      11.435  12.983  18.086  0.00  0.00    +0.000 C 
ATOM     21  O   UNL     1      11.642  13.704  19.046  0.00  0.00    +0.000 OA
BRANCH  20  22
ATOM     22  O   UNL     1      12.333  12.828  17.090  0.00  0.00    +0.000 OA
ATOM     23  H   UNL     1      12.473  13.609  16.527  0.00  0.00    +0.000 HD
ENDBRANCH  20  22
ENDBRANCH  19  20
ENDBRANCH  16  17
ENDBRANCH   3  15
TORSDOF 6
ENDMDL
MODEL 4
REMARK VINA RESULT:      -6.7      6.448      9.191
REMARK  Name = 
REMARK  11 active torsions:
REMARK  status: ('A' for Active; 'I' for Inactive)
REMARK    1  A    between atoms: C_1  and  C_2
REMARK    2  A    between atoms: C_2  and  C_3
REMARK    3  A    between atoms: C_4  and  C_5
REMARK    4  A    between atoms: C_6  and  C_7
REMARK    5  A    between atoms: C_11  and  C_12
REMARK    6  A    between atoms: C_11  and  C_13
REMARK    7  A    between atoms: C_14  and  C_15
REMARK    8  A    between atoms: C_16  and  C_17
REMARK    9  A    between atoms: C_17  and  C_18
REMARK   10  A    between atoms: C_19  and  C_20
REMARK   11  A    between atoms: C_20  and  O_22
REMARK                            x       y       z     vdW  Elec       q    Type
REMARK                         _______ _______ _______ _____ _____    ______ ____
ROOT
ATOM      1  C   UNL     1       8.227   5.907  19.678  0.00  0.00    +0.000 C 
ATOM      2  C   UNL     1       7.297   6.144  18.507  0.00  0.00    +0.000 C 
ATOM      3  C   UNL     1       7.390   7.273  17.764  0.00  0.00    +0.000 C 
ENDROOT
BRANCH   2   4
ATOM      4  C   UNL     1       6.283   5.145  18.150  0.00  0.00    +0.000 C 
ATOM      5  C   UNL     1       5.470   4.450  18.967  0.00  0.00    +0.000 C 
BRANCH   5   6
ATOM      6  C   UNL     1       4.455   3.403  18.490  0.00  0.00    +0.000 C 
ATOM      7  C   UNL     1       3.651   2.816  19.687  0.00  0.00    +0.000 C 
ATOM      8  C   UNL     1       4.542   2.170  20.750  0.00  0.00    +0.000 C 
ATOM      9  C   UNL     1       2.706   3.859  20.310  0.00  0.00    +0.000 C 
ATOM     10  C   UNL     1       1.788   4.512  19.276  0.00  0.00    +0.000 C 
ATOM     11  C   UNL     1       2.529   5.019  18.035  0.00  0.00    +0.000 C 
ATOM     12  C   UNL     1       3.462   3.958  17.402  0.00  0.00    +0.000 C 
ATOM     13  C   UNL     1       4.228   4.568  16.208  0.00  0.00    +0.000 C 
ATOM     14  C   UNL     1       2.597   2.816  16.804  0.00  0.00    +0.000 C 
ENDBRANCH   5   6
ENDBRANCH   2   4
BRANCH   3  15
ATOM     15  C   UNL     1       8.330   8.356  18.004  0.00  0.00    +0.000 C 
ATOM     16  C   UNL     1       8.024   9.666  18.001  0.00  0.00    +0.000 C 
BRANCH  16  17
ATOM     17  C   UNL     1       8.985  10.740  18.291  0.00  0.00    +0.000 C 
ATOM     18  C   UNL     1       8.729  12.109  17.701  0.00  0.00    +0.000 C 
ATOM     19  C   UNL     1      10.074  10.473  19.044  0.00  0.00    +0.000 C 
BRANCH  19  20
ATOM     20  C   UNL     1      11.096  11.484  19.410  0.00  0.00    +0.000 C 
ATOM     21  O   UNL     1      11.081  12.191  20.403  0.00  0.00    +0.000 OA
BRANCH  20  22
ATOM     22  O   UNL     1      12.092  11.537  18.499  0.00  0.00    +0.000 OA
ATOM     23  H   UNL     1      12.841  10.938  18.663  0.00  0.00    +0.000 HD
ENDBRANCH  20  22
ENDBRANCH  19  20
ENDBRANCH  16  17
ENDBRANCH   3  15
TORSDOF 6
ENDMDL
MODEL 5
REMARK VINA RESULT:      -6.6      4.795      8.812
REMARK  Name = 
REMARK  11 active torsions:
REMARK  status: ('A' for Active; 'I' for Inactive)
REMARK    1  A    between atoms: C_1  and  C_2
REMARK    2  A    between atoms: C_2  and  C_3
REMARK    3  A    between atoms: C_4  and  C_5
REMARK    4  A    between atoms: C_6  and  C_7
REMARK    5  A    between atoms: C_11  and  C_12
REMARK    6  A    between atoms: C_11  and  C_13
REMARK    7  A    between atoms: C_14  and  C_15
REMARK    8  A    between atoms: C_16  and  C_17
REMARK    9  A    between atoms: C_17  and  C_18
REMARK   10  A    between atoms: C_19  and  C_20
REMARK   11  A    between atoms: C_20  and  O_22
REMARK                            x       y       z     vdW  Elec       q    Type
REMARK                         _______ _______ _______ _____ _____    ______ ____
ROOT
ATOM      1  C   UNL     1       1.811   8.627  17.917  0.00  0.00    +0.000 C 
ATOM      2  C   UNL     1       2.212   7.881  19.172  0.00  0.00    +0.000 C 
ATOM      3  C   UNL     1       1.575   8.104  20.347  0.00  0.00    +0.000 C 
ENDROOT
BRANCH   2   4
ATOM      4  C   UNL     1       3.294   6.891  19.133  0.00  0.00    +0.000 C 
ATOM      5  C   UNL     1       3.958   6.419  18.061  0.00  0.00    +0.000 C 
BRANCH   5   6
ATOM      6  C   UNL     1       5.065   5.358  18.128  0.00  0.00    +0.000 C 
ATOM      7  C   UNL     1       4.505   3.943  17.800  0.00  0.00    +0.000 C 
ATOM      8  C   UNL     1       3.372   3.513  18.734  0.00  0.00    +0.000 C 
ATOM      9  C   UNL     1       4.087   3.820  16.324  0.00  0.00    +0.000 C 
ATOM     10  C   UNL     1       5.204   4.225  15.361  0.00  0.00    +0.000 C 
ATOM     11  C   UNL     1       5.849   5.571  15.706  0.00  0.00    +0.000 C 
ATOM     12  C   UNL     1       6.285   5.680  17.188  0.00  0.00    +0.000 C 
ATOM     13  C   UNL     1       6.852   7.088  17.473  0.00  0.00    +0.000 C 
ATOM     14  C   UNL     1       7.459   4.697  17.443  0.00  0.00    +0.000 C 
ENDBRANCH   5   6
ENDBRANCH   2   4
BRANCH   3  15
ATOM     15  C   UNL     1       0.499   9.062  20.544  0.00  0.00    +0.000 C 
ATOM     16  C   UNL     1       0.393   9.910  21.582  0.00  0.00    +0.000 C 
BRANCH  16  17
ATOM     17  C   UNL     1      -0.683  10.900  21.736  0.00  0.00    +0.000 C 
ATOM     18  C   UNL     1      -1.195  11.601  20.497  0.00  0.00    +0.000 C 
ATOM     19  C   UNL     1      -1.163  11.174  22.968  0.00  0.00    +0.000 C 
BRANCH  19  20
ATOM     20  C   UNL     1      -2.257  12.141  23.235  0.00  0.00    +0.000 C 
ATOM     21  O   UNL     1      -3.447  11.880  23.280  0.00  0.00    +0.000 OA
BRANCH  20  22
ATOM     22  O   UNL     1      -1.780  13.387  23.442  0.00  0.00    +0.000 OA
ATOM     23  H   UNL     1      -2.427  14.105  23.336  0.00  0.00    +0.000 HD
ENDBRANCH  20  22
ENDBRANCH  19  20
ENDBRANCH  16  17
ENDBRANCH   3  15
TORSDOF 6
ENDMDL
MODEL 6
REMARK VINA RESULT:      -6.6      4.777      9.010
REMARK  Name = 
REMARK  11 active torsions:
REMARK  status: ('A' for Active; 'I' for Inactive)
REMARK    1  A    between atoms: C_1  and  C_2
REMARK    2  A    between atoms: C_2  and  C_3
REMARK    3  A    between atoms: C_4  and  C_5
REMARK    4  A    between atoms: C_6  and  C_7
REMARK    5  A    between atoms: C_11  and  C_12
REMARK    6  A    between atoms: C_11  and  C_13
REMARK    7  A    between atoms: C_14  and  C_15
REMARK    8  A    between atoms: C_16  and  C_17
REMARK    9  A    between atoms: C_17  and  C_18
REMARK   10  A    between atoms: C_19  and  C_20
REMARK   11  A    between atoms: C_20  and  O_22
REMARK                            x       y       z     vdW  Elec       q    Type
REMARK                         _______ _______ _______ _____ _____    ______ ____
ROOT
ATOM      1  C   UNL     1       1.465   9.163  18.450  0.00  0.00    +0.000 C 
ATOM      2  C   UNL     1       1.605   8.289  19.679  0.00  0.00    +0.000 C 
ATOM      3  C   UNL     1       0.919   8.570  20.813  0.00  0.00    +0.000 C 
ENDROOT
BRANCH   2   4
ATOM      4  C   UNL     1       2.482   7.113  19.658  0.00  0.00    +0.000 C 
ATOM      5  C   UNL     1       2.139   5.817  19.535  0.00  0.00    +0.000 C 
BRANCH   5   6
ATOM      6  C   UNL     1       3.139   4.653  19.549  0.00  0.00    +0.000 C 
ATOM      7  C   UNL     1       2.561   3.427  20.316  0.00  0.00    +0.000 C 
ATOM      8  C   UNL     1       2.178   3.748  21.762  0.00  0.00    +0.000 C 
ATOM      9  C   UNL     1       1.387   2.779  19.559  0.00  0.00    +0.000 C 
ATOM     10  C   UNL     1       1.742   2.428  18.114  0.00  0.00    +0.000 C 
ATOM     11  C   UNL     1       2.404   3.580  17.350  0.00  0.00    +0.000 C 
ATOM     12  C   UNL     1       3.596   4.214  18.109  0.00  0.00    +0.000 C 
ATOM     13  C   UNL     1       4.156   5.412  17.312  0.00  0.00    +0.000 C 
ATOM     14  C   UNL     1       4.754   3.183  18.182  0.00  0.00    +0.000 C 
ENDBRANCH   5   6
ENDBRANCH   2   4
BRANCH   3  15
ATOM     15  C   UNL     1       0.029   9.706  20.991  0.00  0.00    +0.000 C 
ATOM     16  C   UNL     1      -0.236  10.310  22.162  0.00  0.00    +0.000 C 
BRANCH  16  17
ATOM     17  C   UNL     1      -1.108  11.486  22.308  0.00  0.00    +0.000 C 
ATOM     18  C   UNL     1      -0.886  12.662  21.383  0.00  0.00    +0.000 C 
ATOM     19  C   UNL     1      -2.054  11.496  23.271  0.00  0.00    +0.000 C 
BRANCH  19  20
ATOM     20  C   UNL     1      -2.996  12.620  23.495  0.00  0.00    +0.000 C 
ATOM     21  O   UNL     1      -2.745  13.657  24.087  0.00  0.00    +0.000 OA
BRANCH  20  22
ATOM     22  O   UNL     1      -4.205  12.375  22.946  0.00  0.00    +0.000 OA
ATOM     23  H   UNL     1      -4.376  12.817  22.096  0.00  0.00    +0.000 HD
ENDBRANCH  20  22
ENDBRANCH  19  20
ENDBRANCH  16  17
ENDBRANCH   3  15
TORSDOF 6
ENDMDL
MODEL 7
REMARK VINA RESULT:      -6.6      6.575      9.294
REMARK  Name = 
REMARK  11 active torsions:
REMARK  status: ('A' for Active; 'I' for Inactive)
REMARK    1  A    between atoms: C_1  and  C_2
REMARK    2  A    between atoms: C_2  and  C_3
REMARK    3  A    between atoms: C_4  and  C_5
REMARK    4  A    between atoms: C_6  and  C_7
REMARK    5  A    between atoms: C_11  and  C_12
REMARK    6  A    between atoms: C_11  and  C_13
REMARK    7  A    between atoms: C_14  and  C_15
REMARK    8  A    between atoms: C_16  and  C_17
REMARK    9  A    between atoms: C_17  and  C_18
REMARK   10  A    between atoms: C_19  and  C_20
REMARK   11  A    between atoms: C_20  and  O_22
REMARK                            x       y       z     vdW  Elec       q    Type
REMARK                         _______ _______ _______ _____ _____    ______ ____
ROOT
ATOM      1  C   UNL     1       8.266   5.654  19.881  0.00  0.00    +0.000 C 
ATOM      2  C   UNL     1       7.352   6.000  18.724  0.00  0.00    +0.000 C 
ATOM      3  C   UNL     1       7.505   7.159  18.040  0.00  0.00    +0.000 C 
ENDROOT
BRANCH   2   4
ATOM      4  C   UNL     1       6.289   5.075  18.316  0.00  0.00    +0.000 C 
ATOM      5  C   UNL     1       5.478   4.336  19.097  0.00  0.00    +0.000 C 
BRANCH   5   6
ATOM      6  C   UNL     1       4.407   3.375  18.565  0.00  0.00    +0.000 C 
ATOM      7  C   UNL     1       3.614   2.718  19.734  0.00  0.00    +0.000 C 
ATOM      8  C   UNL     1       4.508   1.948  20.708  0.00  0.00    +0.000 C 
ATOM      9  C   UNL     1       2.732   3.738  20.474  0.00  0.00    +0.000 C 
ATOM     10  C   UNL     1       1.812   4.514  19.529  0.00  0.00    +0.000 C 
ATOM     11  C   UNL     1       2.537   5.097  18.312  0.00  0.00    +0.000 C 
ATOM     12  C   UNL     1       3.406   4.059  17.562  0.00  0.00    +0.000 C 
ATOM     13  C   UNL     1       4.162   4.741  16.400  0.00  0.00    +0.000 C 
ATOM     14  C   UNL     1       2.478   3.008  16.897  0.00  0.00    +0.000 C 
ENDBRANCH   5   6
ENDBRANCH   2   4
BRANCH   3  15
ATOM     15  C   UNL     1       8.499   8.178  18.337  0.00  0.00    +0.000 C 
ATOM     16  C   UNL     1       8.279   9.505  18.326  0.00  0.00    +0.000 C 
BRANCH  16  17
ATOM     17  C   UNL     1       9.292  10.514  18.671  0.00  0.00    +0.000 C 
ATOM     18  C   UNL     1       9.608  10.741  20.133  0.00  0.00    +0.000 C 
ATOM     19  C   UNL     1       9.887  11.223  17.688  0.00  0.00    +0.000 C 
BRANCH  19  20
ATOM     20  C   UNL     1      10.930  12.251  17.923  0.00  0.00    +0.000 C 
ATOM     21  O   UNL     1      12.126  12.044  18.038  0.00  0.00    +0.000 OA
BRANCH  20  22
ATOM     22  O   UNL     1      10.401  13.492  17.988  0.00  0.00    +0.000 OA
ATOM     23  H   UNL     1      10.567  14.059  17.215  0.00  0.00    +0.000 HD
ENDBRANCH  20  22
ENDBRANCH  19  20
ENDBRANCH  16  17
ENDBRANCH   3  15
TORSDOF 6
ENDMDL
MODEL 8
REMARK VINA RESULT:      -6.5      0.998      1.443
REMARK  Name = 
REMARK  11 active torsions:
REMARK  status: ('A' for Active; 'I' for Inactive)
REMARK    1  A    between atoms: C_1  and  C_2
REMARK    2  A    between atoms: C_2  and  C_3
REMARK    3  A    between atoms: C_4  and  C_5
REMARK    4  A    between atoms: C_6  and  C_7
REMARK    5  A    between atoms: C_11  and  C_12
REMARK    6  A    between atoms: C_11  and  C_13
REMARK    7  A    between atoms: C_14  and  C_15
REMARK    8  A    between atoms: C_16  and  C_17
REMARK    9  A    between atoms: C_17  and  C_18
REMARK   10  A    between atoms: C_19  and  C_20
REMARK   11  A    between atoms: C_20  and  O_22
REMARK                            x       y       z     vdW  Elec       q    Type
REMARK                         _______ _______ _______ _____ _____    ______ ____
ROOT
ATOM      1  C   UNL     1       1.294   8.122  21.077  0.00  0.00    +0.000 C 
ATOM      2  C   UNL     1       1.620   8.416  19.628  0.00  0.00    +0.000 C 
ATOM      3  C   UNL     1       2.288   7.514  18.870  0.00  0.00    +0.000 C 
ENDROOT
BRANCH   2   4
ATOM      4  C   UNL     1       1.207   9.684  19.017  0.00  0.00    +0.000 C 
ATOM      5  C   UNL     1       0.230  10.523  19.409  0.00  0.00    +0.000 C 
BRANCH   5   6
ATOM      6  C   UNL     1      -0.140  11.821  18.679  0.00  0.00    +0.000 C 
ATOM      7  C   UNL     1      -1.632  11.807  18.232  0.00  0.00    +0.000 C 
ATOM      8  C   UNL     1      -1.974  10.628  17.319  0.00  0.00    +0.000 C 
ATOM      9  C   UNL     1      -2.591  11.877  19.434  0.00  0.00    +0.000 C 
ATOM     10  C   UNL     1      -2.287  13.057  20.359  0.00  0.00    +0.000 C 
ATOM     11  C   UNL     1      -0.809  13.164  20.747  0.00  0.00    +0.000 C 
ATOM     12  C   UNL     1       0.148  13.112  19.531  0.00  0.00    +0.000 C 
ATOM     13  C   UNL     1       1.617  13.147  20.009  0.00  0.00    +0.000 C 
ATOM     14  C   UNL     1      -0.044  14.396  18.680  0.00  0.00    +0.000 C 
ENDBRANCH   5   6
ENDBRANCH   2   4
BRANCH   3  15
ATOM     15  C   UNL     1       2.774   6.226  19.339  0.00  0.00    +0.000 C 
ATOM     16  C   UNL     1       2.022   5.124  19.504  0.00  0.00    +0.000 C 
BRANCH  16  17
ATOM     17  C   UNL     1       2.548   3.821  19.939  0.00  0.00    +0.000 C 
ATOM     18  C   UNL     1       1.660   2.936  20.785  0.00  0.00    +0.000 C 
ATOM     19  C   UNL     1       3.806   3.465  19.600  0.00  0.00    +0.000 C 
BRANCH  19  20
ATOM     20  C   UNL     1       4.429   2.171  19.971  0.00  0.00    +0.000 C 
ATOM     21  O   UNL     1       5.002   1.927  21.019  0.00  0.00    +0.000 OA
BRANCH  20  22
ATOM     22  O   UNL     1       4.283   1.250  18.994  0.00  0.00    +0.000 OA
ATOM     23  H   UNL     1       5.097   1.015  18.516  0.00  0.00    +0.000 HD
ENDBRANCH  20  22
ENDBRANCH  19  20
ENDBRANCH  16  17
ENDBRANCH   3  15
TORSDOF 6
ENDMDL
MODEL 9
REMARK VINA RESULT:      -6.5      4.513      8.862
REMARK  Name = 
REMARK  11 active torsions:
REMARK  status: ('A' for Active; 'I' for Inactive)
REMARK    1  A    between atoms: C_1  and  C_2
REMARK    2  A    between atoms: C_2  and  C_3
REMARK    3  A    between atoms: C_4  and  C_5
REMARK    4  A    between atoms: C_6  and  C_7
REMARK    5  A    between atoms: C_11  and  C_12
REMARK    6  A    between atoms: C_11  and  C_13
REMARK    7  A    between atoms: C_14  and  C_15
REMARK    8  A    between atoms: C_16  and  C_17
REMARK    9  A    between atoms: C_17  and  C_18
REMARK   10  A    between atoms: C_19  and  C_20
REMARK   11  A    between atoms: C_20  and  O_22
REMARK                            x       y       z     vdW  Elec       q    Type
REMARK                         _______ _______ _______ _____ _____    ______ ____
ROOT
ATOM      1  C   UNL     1       1.903   7.360  20.163  0.00  0.00    +0.000 C 
ATOM      2  C   UNL     1       2.534   7.355  18.787  0.00  0.00    +0.000 C 
ATOM      3  C   UNL     1       2.157   8.254  17.847  0.00  0.00    +0.000 C 
ENDROOT
BRANCH   2   4
ATOM      4  C   UNL     1       3.576   6.378  18.452  0.00  0.00    +0.000 C 
ATOM      5  C   UNL     1       4.579   5.925  19.228  0.00  0.00    +0.000 C 
BRANCH   5   6
ATOM      6  C   UNL     1       5.638   4.914  18.769  0.00  0.00    +0.000 C 
ATOM      7  C   UNL     1       4.984   3.557  18.376  0.00  0.00    +0.000 C 
ATOM      8  C   UNL     1       4.180   2.925  19.514  0.00  0.00    +0.000 C 
ATOM      9  C   UNL     1       4.138   3.677  17.096  0.00  0.00    +0.000 C 
ATOM     10  C   UNL     1       4.918   4.289  15.932  0.00  0.00    +0.000 C 
ATOM     11  C   UNL     1       5.657   5.579  16.302  0.00  0.00    +0.000 C 
ATOM     12  C   UNL     1       6.522   5.444  17.580  0.00  0.00    +0.000 C 
ATOM     13  C   UNL     1       7.169   6.802  17.929  0.00  0.00    +0.000 C 
ATOM     14  C   UNL     1       7.703   4.480  17.291  0.00  0.00    +0.000 C 
ENDBRANCH   5   6
ENDBRANCH   2   4
BRANCH   3  15
ATOM     15  C   UNL     1       1.131   9.268  18.025  0.00  0.00    +0.000 C 
ATOM     16  C   UNL     1       1.320  10.479  18.579  0.00  0.00    +0.000 C 
BRANCH  16  17
ATOM     17  C   UNL     1       0.273  11.503  18.708  0.00  0.00    +0.000 C 
ATOM     18  C   UNL     1       0.680  12.958  18.631  0.00  0.00    +0.000 C 
ATOM     19  C   UNL     1      -1.006  11.123  18.918  0.00  0.00    +0.000 C 
BRANCH  19  20
ATOM     20  C   UNL     1      -2.141  12.070  19.046  0.00  0.00    +0.000 C 
ATOM     21  O   UNL     1      -2.492  12.632  20.070  0.00  0.00    +0.000 OA
BRANCH  20  22
ATOM     22  O   UNL     1      -2.764  12.264  17.864  0.00  0.00    +0.000 OA
ATOM     23  H   UNL     1      -3.030  13.180  17.676  0.00  0.00    +0.000 HD
ENDBRANCH  20  22
ENDBRANCH  19  20
ENDBRANCH  16  17
ENDBRANCH   3  15
TORSDOF 6
ENDMDL
