MODEL 1
REMARK VINA RESULT:      -5.2      0.000      0.000
REMARK  Name = 
REMARK  0 active torsions:
REMARK  status: ('A' for Active; 'I' for Inactive)
REMARK                            x       y       z     vdW  Elec       q    Type
REMARK                         _______ _______ _______ _____ _____    ______ ____
ROOT
ATOM      1  C   UNL     1       3.111   4.325  17.509  0.00  0.00    +0.000 A 
ATOM      2  C   UNL     1       3.040   4.710  18.847  0.00  0.00    +0.000 A 
ATOM      3  C   UNL     1       4.210   4.983  19.556  0.00  0.00    +0.000 A 
ATOM      4  C   UNL     1       5.444   4.880  18.919  0.00  0.00    +0.000 A 
ATOM      5  C   UNL     1       5.533   4.450  17.594  0.00  0.00    +0.000 A 
ATOM      6  C   UNL     1       4.352   4.186  16.885  0.00  0.00    +0.000 A 
ATOM      7  C   UNL     1       6.874   4.306  16.935  0.00  0.00    +0.000 C 
ATOM      8  N   UNL     1       7.988   4.466  17.867  0.00  0.00    +0.000 NA
ATOM      9  C   UNL     1       7.673   5.523  18.815  0.00  0.00    +0.000 C 
ATOM     10  O   UNL     1       6.555   5.213  19.650  0.00  0.00    +0.000 OA
ATOM     11  H   UNL     1       8.824   4.716  17.349  0.00  0.00    +0.000 HD
ENDROOT
TORSDOF 0
ENDMDL
MODEL 2
REMARK VINA RESULT:      -5.2      2.140      2.784
REMARK  Name = 
REMARK  0 active torsions:
REMARK  status: ('A' for Active; 'I' for Inactive)
REMARK                            x       y       z     vdW  Elec       q    Type
REMARK                         _______ _______ _______ _____ _____    ______ ____
ROOT
ATOM      1  C   UNL     1       0.952   2.806  19.171  0.00  0.00    +0.000 A 
ATOM      2  C   UNL     1       1.579   2.581  20.396  0.00  0.00    +0.000 A 
ATOM      3  C   UNL     1       2.955   2.773  20.519  0.00  0.00    +0.000 A 
ATOM      4  C   UNL     1       3.694   3.201  19.419  0.00  0.00    +0.000 A 
ATOM      5  C   UNL     1       3.088   3.384  18.176  0.00  0.00    +0.000 A 
ATOM      6  C   UNL     1       1.703   3.198  18.061  0.00  0.00    +0.000 A 
ATOM      7  C   UNL     1       3.908   3.806  16.991  0.00  0.00    +0.000 C 
ATOM      8  N   UNL     1       5.344   3.796  17.257  0.00  0.00    +0.000 NA
ATOM      9  C   UNL     1       5.586   4.276  18.609  0.00  0.00    +0.000 C 
ATOM     10  O   UNL     1       5.033   3.425  19.614  0.00  0.00    +0.000 OA
ATOM     11  H   UNL     1       5.811   4.404  16.594  0.00  0.00    +0.000 HD
ENDROOT
TORSDOF 0
ENDMDL
MODEL 3
REMARK VINA RESULT:      -5.2      2.054      2.824
REMARK  Name = 
REMARK  0 active torsions:
REMARK  status: ('A' for Active; 'I' for Inactive)
REMARK                            x       y       z     vdW  Elec       q    Type
REMARK                         _______ _______ _______ _____ _____    ______ ____
ROOT
ATOM      1  C   UNL     1       0.765   3.007  19.495  0.00  0.00    +0.000 A 
ATOM      2  C   UNL     1       0.996   3.954  20.492  0.00  0.00    +0.000 A 
ATOM      3  C   UNL     1       2.202   4.655  20.521  0.00  0.00    +0.000 A 
ATOM      4  C   UNL     1       3.165   4.412  19.544  0.00  0.00    +0.000 A 
ATOM      5  C   UNL     1       2.966   3.434  18.569  0.00  0.00    +0.000 A 
ATOM      6  C   UNL     1       1.748   2.740  18.542  0.00  0.00    +0.000 A 
ATOM      7  C   UNL     1       4.033   3.156  17.549  0.00  0.00    +0.000 C 
ATOM      8  N   UNL     1       5.286   3.855  17.828  0.00  0.00    +0.000 NA
ATOM      9  C   UNL     1       4.991   5.185  18.336  0.00  0.00    +0.000 C 
ATOM     10  O   UNL     1       4.308   5.169  19.591  0.00  0.00    +0.000 OA
ATOM     11  H   UNL     1       5.823   3.931  16.972  0.00  0.00    +0.000 HD
ENDROOT
TORSDOF 0
ENDMDL
MODEL 4
REMARK VINA RESULT:      -5.1      2.095      3.524
REMARK  Name = 
REMARK  0 active torsions:
REMARK  status: ('A' for Active; 'I' for Inactive)
REMARK                            x       y       z     vdW  Elec       q    Type
REMARK                         _______ _______ _______ _____ _____    ______ ____
ROOT
ATOM      1  C   UNL     1       7.232   7.357  17.392  0.00  0.00    +0.000 A 
ATOM      2  C   UNL     1       7.945   6.755  18.428  0.00  0.00    +0.000 A 
ATOM      3  C   UNL     1       7.379   5.697  19.139  0.00  0.00    +0.000 A 
ATOM      4  C   UNL     1       6.107   5.239  18.801  0.00  0.00    +0.000 A 
ATOM      5  C   UNL     1       5.365   5.863  17.798  0.00  0.00    +0.000 A 
ATOM      6  C   UNL     1       5.943   6.921  17.082  0.00  0.00    +0.000 A 
ATOM      7  C   UNL     1       3.979   5.382  17.475  0.00  0.00    +0.000 C 
ATOM      8  N   UNL     1       3.484   4.386  18.424  0.00  0.00    +0.000 NA
ATOM      9  C   UNL     1       4.573   3.497  18.797  0.00  0.00    +0.000 C 
ATOM     10  O   UNL     1       5.625   4.162  19.499  0.00  0.00    +0.000 OA
ATOM     11  H   UNL     1       2.743   3.849  17.987  0.00  0.00    +0.000 HD
ENDROOT
TORSDOF 0
ENDMDL
MODEL 5
REMARK VINA RESULT:      -5.1      1.935      2.384
REMARK  Name = 
REMARK  0 active torsions:
REMARK  status: ('A' for Active; 'I' for Inactive)
REMARK                            x       y       z     vdW  Elec       q    Type
REMARK                         _______ _______ _______ _____ _____    ______ ____
ROOT
ATOM      1  C   UNL     1       2.666   5.704  18.138  0.00  0.00    +0.000 A 
ATOM      2  C   UNL     1       2.605   4.384  17.692  0.00  0.00    +0.000 A 
ATOM      3  C   UNL     1       3.708   3.812  17.059  0.00  0.00    +0.000 A 
ATOM      4  C   UNL     1       4.871   4.559  16.886  0.00  0.00    +0.000 A 
ATOM      5  C   UNL     1       4.929   5.895  17.284  0.00  0.00    +0.000 A 
ATOM      6  C   UNL     1       3.819   6.462  17.928  0.00  0.00    +0.000 A 
ATOM      7  C   UNL     1       6.177   6.698  17.052  0.00  0.00    +0.000 C 
ATOM      8  N   UNL     1       7.162   5.998  16.232  0.00  0.00    +0.000 NA
ATOM      9  C   UNL     1       7.174   4.589  16.592  0.00  0.00    +0.000 C 
ATOM     10  O   UNL     1       5.940   3.927  16.306  0.00  0.00    +0.000 OA
ATOM     11  H   UNL     1       8.080   6.397  16.398  0.00  0.00    +0.000 HD
ENDROOT
TORSDOF 0
ENDMDL
MODEL 6
REMARK VINA RESULT:      -5.1      1.926      2.473
REMARK  Name = 
REMARK  0 active torsions:
REMARK  status: ('A' for Active; 'I' for Inactive)
REMARK                            x       y       z     vdW  Elec       q    Type
REMARK                         _______ _______ _______ _____ _____    ______ ____
ROOT
ATOM      1  C   UNL     1       1.390   3.159  18.286  0.00  0.00    +0.000 A 
ATOM      2  C   UNL     1       2.135   2.188  18.955  0.00  0.00    +0.000 A 
ATOM      3  C   UNL     1       3.483   2.413  19.231  0.00  0.00    +0.000 A 
ATOM      4  C   UNL     1       4.077   3.612  18.845  0.00  0.00    +0.000 A 
ATOM      5  C   UNL     1       3.357   4.571  18.133  0.00  0.00    +0.000 A 
ATOM      6  C   UNL     1       1.999   4.343  17.867  0.00  0.00    +0.000 A 
ATOM      7  C   UNL     1       4.025   5.841  17.688  0.00  0.00    +0.000 C 
ATOM      8  N   UNL     1       5.469   5.835  17.910  0.00  0.00    +0.000 NA
ATOM      9  C   UNL     1       5.758   5.180  19.176  0.00  0.00    +0.000 C 
ATOM     10  O   UNL     1       5.391   3.798  19.190  0.00  0.00    +0.000 OA
ATOM     11  H   UNL     1       5.807   6.790  17.939  0.00  0.00    +0.000 HD
ENDROOT
TORSDOF 0
ENDMDL
MODEL 7
REMARK VINA RESULT:      -5.1      2.480      3.496
REMARK  Name = 
REMARK  0 active torsions:
REMARK  status: ('A' for Active; 'I' for Inactive)
REMARK                            x       y       z     vdW  Elec       q    Type
REMARK                         _______ _______ _______ _____ _____    ______ ____
ROOT
ATOM      1  C   UNL     1       0.946   3.146  20.542  0.00  0.00    +0.000 A 
ATOM      2  C   UNL     1       1.189   4.517  20.609  0.00  0.00    +0.000 A 
ATOM      3  C   UNL     1       2.178   5.088  19.808  0.00  0.00    +0.000 A 
ATOM      4  C   UNL     1       2.910   4.286  18.936  0.00  0.00    +0.000 A 
ATOM      5  C   UNL     1       2.710   2.906  18.894  0.00  0.00    +0.000 A 
ATOM      6  C   UNL     1       1.708   2.339  19.695  0.00  0.00    +0.000 A 
ATOM      7  C   UNL     1       3.537   2.050  17.977  0.00  0.00    +0.000 C 
ATOM      8  N   UNL     1       4.630   2.784  17.344  0.00  0.00    +0.000 NA
ATOM      9  C   UNL     1       4.174   4.120  16.995  0.00  0.00    +0.000 C 
ATOM     10  O   UNL     1       3.831   4.911  18.135  0.00  0.00    +0.000 OA
ATOM     11  H   UNL     1       4.917   2.295  16.503  0.00  0.00    +0.000 HD
ENDROOT
TORSDOF 0
ENDMDL
MODEL 8
REMARK VINA RESULT:      -5.1      3.290      4.448
REMARK  Name = 
REMARK  0 active torsions:
REMARK  status: ('A' for Active; 'I' for Inactive)
REMARK                            x       y       z     vdW  Elec       q    Type
REMARK                         _______ _______ _______ _____ _____    ______ ____
ROOT
ATOM      1  C   UNL     1       3.896   4.655  17.249  0.00  0.00    +0.000 A 
ATOM      2  C   UNL     1       4.493   5.393  18.271  0.00  0.00    +0.000 A 
ATOM      3  C   UNL     1       3.991   5.317  19.570  0.00  0.00    +0.000 A 
ATOM      4  C   UNL     1       2.902   4.493  19.843  0.00  0.00    +0.000 A 
ATOM      5  C   UNL     1       2.265   3.786  18.822  0.00  0.00    +0.000 A 
ATOM      6  C   UNL     1       2.780   3.861  17.520  0.00  0.00    +0.000 A 
ATOM      7  C   UNL     1       1.066   2.935  19.127  0.00  0.00    +0.000 C 
ATOM      8  N   UNL     1       0.579   3.104  20.494  0.00  0.00    +0.000 NA
ATOM      9  C   UNL     1       1.712   3.242  21.395  0.00  0.00    +0.000 C 
ATOM     10  O   UNL     1       2.487   4.417  21.147  0.00  0.00    +0.000 OA
ATOM     11  H   UNL     1       0.034   2.290  20.758  0.00  0.00    +0.000 HD
ENDROOT
TORSDOF 0
ENDMDL
MODEL 9
REMARK VINA RESULT:      -5.1      2.318      3.240
REMARK  Name = 
REMARK  0 active torsions:
REMARK  status: ('A' for Active; 'I' for Inactive)
REMARK                            x       y       z     vdW  Elec       q    Type
REMARK                         _______ _______ _______ _____ _____    ______ ____
ROOT
ATOM      1  C   UNL     1       1.118   3.181  20.890  0.00  0.00    +0.000 A 
ATOM      2  C   UNL     1       0.958   4.541  20.628  0.00  0.00    +0.000 A 
ATOM      3  C   UNL     1       1.983   5.257  20.009  0.00  0.00    +0.000 A 
ATOM      4  C   UNL     1       3.159   4.604  19.645  0.00  0.00    +0.000 A 
ATOM      5  C   UNL     1       3.351   3.255  19.944  0.00  0.00    +0.000 A 
ATOM      6  C   UNL     1       2.313   2.540  20.559  0.00  0.00    +0.000 A 
ATOM      7  C   UNL     1       4.642   2.578  19.582  0.00  0.00    +0.000 C 
ATOM      8  N   UNL     1       5.659   3.510  19.099  0.00  0.00    +0.000 NA
ATOM      9  C   UNL     1       5.027   4.524  18.270  0.00  0.00    +0.000 C 
ATOM     10  O   UNL     1       4.108   5.346  18.991  0.00  0.00    +0.000 OA
ATOM     11  H   UNL     1       6.343   3.001  18.549  0.00  0.00    +0.000 HD
ENDROOT
TORSDOF 0
ENDMDL
