MODEL 1
REMARK VINA RESULT:      -6.9      0.000      0.000
REMARK  Name = 
REMARK  6 active torsions:
REMARK  status: ('A' for Active; 'I' for Inactive)
REMARK    1  A    between atoms: C_1  and  C_2
REMARK    2  A    between atoms: C_6  and  N_7
REMARK    3  A    between atoms: C_8  and  C_10
REMARK    4  A    between atoms: C_10  and  O_11
REMARK    5  A    between atoms: O_11  and  C_12
REMARK    6  A    between atoms: C_12  and  C_14
REMARK                            x       y       z     vdW  Elec       q    Type
REMARK                         _______ _______ _______ _____ _____    ______ ____
ROOT
ATOM      1  N   UNL     1       5.921   7.157  16.886  0.00  0.00    +0.000 N 
ATOM      2  C   UNL     1       7.056   7.377  17.657  0.00  0.00    +0.000 C 
ATOM      3  O   UNL     1       7.508   6.595  18.489  0.00  0.00    +0.000 OA
ATOM      4  H   UNL     1       5.386   8.009  16.730  0.00  0.00    +0.000 HD
ENDROOT
BRANCH   1  10
ATOM      5  C   UNL     1       2.406   2.637  17.512  0.00  0.00    +0.000 C 
ATOM      6  C   UNL     1       3.346   3.797  17.364  0.00  0.00    +0.000 A 
ATOM      7  C   UNL     1       2.951   5.082  17.734  0.00  0.00    +0.000 A 
ATOM      8  C   UNL     1       3.816   6.166  17.561  0.00  0.00    +0.000 A 
ATOM      9 BR   UNL     1       3.176   7.877  18.095  0.00  0.00    +0.000 Br
ATOM     10  C   UNL     1       5.113   5.996  17.044  0.00  0.00    +0.000 A 
ATOM     11  C   UNL     1       5.506   4.700  16.662  0.00  0.00    +0.000 A 
ATOM     12 BR   UNL     1       7.133   4.332  15.745  0.00  0.00    +0.000 Br
ATOM     13  C   UNL     1       4.626   3.613  16.826  0.00  0.00    +0.000 A 
ENDBRANCH   1  10
BRANCH   2  14
ATOM     14  C   UNL     1       7.663   8.770  17.452  0.00  0.00    +0.000 C 
BRANCH  14  15
ATOM     15  O   UNL     1       8.574   9.102  18.506  0.00  0.00    +0.000 OA
BRANCH  15  16
ATOM     16  C   UNL     1       8.965  10.406  18.529  0.00  0.00    +0.000 C 
ATOM     17  O   UNL     1       8.537  11.255  17.759  0.00  0.00    +0.000 OA
BRANCH  16  18
ATOM     18  C   UNL     1      10.026  10.635  19.606  0.00  0.00    +0.000 C 
ATOM     19  C   UNL     1      11.184  11.514  19.112  0.00  0.00    +0.000 C 
ATOM     20  C   UNL     1      10.779  12.975  18.915  0.00  0.00    +0.000 C 
ATOM     21  C   UNL     1      10.128  13.562  20.162  0.00  0.00    +0.000 C 
ATOM     22  C   UNL     1       8.991  12.692  20.690  0.00  0.00    +0.000 C 
ATOM     23  C   UNL     1       9.420  11.237  20.880  0.00  0.00    +0.000 C 
ENDBRANCH  16  18
ENDBRANCH  15  16
ENDBRANCH  14  15
ENDBRANCH   2  14
TORSDOF 5
ENDMDL
MODEL 2
REMARK VINA RESULT:      -6.9      4.336      6.417
REMARK  Name = 
REMARK  6 active torsions:
REMARK  status: ('A' for Active; 'I' for Inactive)
REMARK    1  A    between atoms: C_1  and  C_2
REMARK    2  A    between atoms: C_6  and  N_7
REMARK    3  A    between atoms: C_8  and  C_10
REMARK    4  A    between atoms: C_10  and  O_11
REMARK    5  A    between atoms: O_11  and  C_12
REMARK    6  A    between atoms: C_12  and  C_14
REMARK                            x       y       z     vdW  Elec       q    Type
REMARK                         _______ _______ _______ _____ _____    ______ ____
ROOT
ATOM      1  N   UNL     1       3.071   5.482  18.579  0.00  0.00    +0.000 N 
ATOM      2  C   UNL     1       2.451   4.582  17.721  0.00  0.00    +0.000 C 
ATOM      3  O   UNL     1       1.246   4.539  17.493  0.00  0.00    +0.000 OA
ATOM      4  H   UNL     1       3.851   5.064  19.082  0.00  0.00    +0.000 HD
ENDROOT
BRANCH   1  10
ATOM      5  C   UNL     1       0.147   9.130  21.944  0.00  0.00    +0.000 C 
ATOM      6  C   UNL     1       0.890   8.190  21.041  0.00  0.00    +0.000 A 
ATOM      7  C   UNL     1       1.084   6.858  21.408  0.00  0.00    +0.000 A 
ATOM      8  C   UNL     1       1.809   5.994  20.582  0.00  0.00    +0.000 A 
ATOM      9 BR   UNL     1       2.018   4.200  21.179  0.00  0.00    +0.000 Br
ATOM     10  C   UNL     1       2.332   6.424  19.350  0.00  0.00    +0.000 A 
ATOM     11  C   UNL     1       2.144   7.770  18.985  0.00  0.00    +0.000 A 
ATOM     12 BR   UNL     1       2.973   8.565  17.467  0.00  0.00    +0.000 Br
ATOM     13  C   UNL     1       1.426   8.639  19.828  0.00  0.00    +0.000 A 
ENDBRANCH   1  10
BRANCH   2  14
ATOM     14  C   UNL     1       3.416   3.541  17.139  0.00  0.00    +0.000 C 
BRANCH  14  15
ATOM     15  O   UNL     1       4.654   4.142  16.742  0.00  0.00    +0.000 OA
BRANCH  15  16
ATOM     16  C   UNL     1       5.650   4.054  17.666  0.00  0.00    +0.000 C 
ATOM     17  O   UNL     1       5.466   3.726  18.831  0.00  0.00    +0.000 OA
BRANCH  16  18
ATOM     18  C   UNL     1       6.993   4.458  17.056  0.00  0.00    +0.000 C 
ATOM     19  C   UNL     1       6.886   5.717  16.183  0.00  0.00    +0.000 C 
ATOM     20  C   UNL     1       6.646   6.987  16.999  0.00  0.00    +0.000 C 
ATOM     21  C   UNL     1       7.681   7.163  18.104  0.00  0.00    +0.000 C 
ATOM     22  C   UNL     1       7.826   5.915  18.970  0.00  0.00    +0.000 C 
ATOM     23  C   UNL     1       8.067   4.659  18.132  0.00  0.00    +0.000 C 
ENDBRANCH  16  18
ENDBRANCH  15  16
ENDBRANCH  14  15
ENDBRANCH   2  14
TORSDOF 5
ENDMDL
MODEL 3
REMARK VINA RESULT:      -6.8      4.313      6.369
REMARK  Name = 
REMARK  6 active torsions:
REMARK  status: ('A' for Active; 'I' for Inactive)
REMARK    1  A    between atoms: C_1  and  C_2
REMARK    2  A    between atoms: C_6  and  N_7
REMARK    3  A    between atoms: C_8  and  C_10
REMARK    4  A    between atoms: C_10  and  O_11
REMARK    5  A    between atoms: O_11  and  C_12
REMARK    6  A    between atoms: C_12  and  C_14
REMARK                            x       y       z     vdW  Elec       q    Type
REMARK                         _______ _______ _______ _____ _____    ______ ____
ROOT
ATOM      1  N   UNL     1       3.144   5.364  18.567  0.00  0.00    +0.000 N 
ATOM      2  C   UNL     1       2.507   4.517  17.669  0.00  0.00    +0.000 C 
ATOM      3  O   UNL     1       1.294   4.466  17.484  0.00  0.00    +0.000 OA
ATOM      4  H   UNL     1       3.951   4.927  19.009  0.00  0.00    +0.000 HD
ENDROOT
BRANCH   1  10
ATOM      5  C   UNL     1       0.160   9.056  21.831  0.00  0.00    +0.000 C 
ATOM      6  C   UNL     1       0.953   8.083  21.008  0.00  0.00    +0.000 A 
ATOM      7  C   UNL     1       1.584   8.496  19.835  0.00  0.00    +0.000 A 
ATOM      8  C   UNL     1       2.292   7.580  19.051  0.00  0.00    +0.000 A 
ATOM      9 BR   UNL     1       3.111   8.246  17.468  0.00  0.00    +0.000 Br
ATOM     10  C   UNL     1       2.419   6.232  19.433  0.00  0.00    +0.000 A 
ATOM     11  C   UNL     1       1.774   5.816  20.612  0.00  0.00    +0.000 A 
ATOM     12 BR   UNL     1       1.660   3.993  21.149  0.00  0.00    +0.000 Br
ATOM     13  C   UNL     1       1.051   6.739  21.390  0.00  0.00    +0.000 A 
ENDBRANCH   1  10
BRANCH   2  14
ATOM     14  C   UNL     1       3.466   3.542  16.977  0.00  0.00    +0.000 C 
BRANCH  14  15
ATOM     15  O   UNL     1       4.701   4.180  16.634  0.00  0.00    +0.000 OA
BRANCH  15  16
ATOM     16  C   UNL     1       5.684   4.053  17.568  0.00  0.00    +0.000 C 
ATOM     17  O   UNL     1       5.484   3.676  18.715  0.00  0.00    +0.000 OA
BRANCH  16  18
ATOM     18  C   UNL     1       7.035   4.484  16.995  0.00  0.00    +0.000 C 
ATOM     19  C   UNL     1       6.947   5.800  16.208  0.00  0.00    +0.000 C 
ATOM     20  C   UNL     1       6.712   7.014  17.106  0.00  0.00    +0.000 C 
ATOM     21  C   UNL     1       7.741   7.105  18.228  0.00  0.00    +0.000 C 
ATOM     22  C   UNL     1       7.868   5.800  19.008  0.00  0.00    +0.000 C 
ATOM     23  C   UNL     1       8.104   4.601  18.089  0.00  0.00    +0.000 C 
ENDBRANCH  16  18
ENDBRANCH  15  16
ENDBRANCH  14  15
ENDBRANCH   2  14
TORSDOF 5
ENDMDL
MODEL 4
REMARK VINA RESULT:      -6.7      6.071      9.290
REMARK  Name = 
REMARK  6 active torsions:
REMARK  status: ('A' for Active; 'I' for Inactive)
REMARK    1  A    between atoms: C_1  and  C_2
REMARK    2  A    between atoms: C_6  and  N_7
REMARK    3  A    between atoms: C_8  and  C_10
REMARK    4  A    between atoms: C_10  and  O_11
REMARK    5  A    between atoms: O_11  and  C_12
REMARK    6  A    between atoms: C_12  and  C_14
REMARK                            x       y       z     vdW  Elec       q    Type
REMARK                         _______ _______ _______ _____ _____    ______ ____
ROOT
ATOM      1  N   UNL     1       0.543  10.707  18.168  0.00  0.00    +0.000 N 
ATOM      2  C   UNL     1       1.128   9.600  18.770  0.00  0.00    +0.000 C 
ATOM      3  O   UNL     1       0.867   9.188  19.897  0.00  0.00    +0.000 OA
ATOM      4  H   UNL     1       1.200  11.228  17.590  0.00  0.00    +0.000 HD
ENDROOT
BRANCH   1  10
ATOM      5  C   UNL     1      -3.461  13.823  20.896  0.00  0.00    +0.000 C 
ATOM      6  C   UNL     1      -2.401  13.040  20.178  0.00  0.00    +0.000 A 
ATOM      7  C   UNL     1      -2.751  12.051  19.258  0.00  0.00    +0.000 A 
ATOM      8  C   UNL     1      -1.763  11.298  18.618  0.00  0.00    +0.000 A 
ATOM      9 BR   UNL     1      -2.348   9.972  17.385  0.00  0.00    +0.000 Br
ATOM     10  C   UNL     1      -0.396  11.532  18.851  0.00  0.00    +0.000 A 
ATOM     11  C   UNL     1      -0.045  12.523  19.786  0.00  0.00    +0.000 A 
ATOM     12 BR   UNL     1       1.741  12.810  20.380  0.00  0.00    +0.000 Br
ATOM     13  C   UNL     1      -1.045  13.269  20.438  0.00  0.00    +0.000 A 
ENDBRANCH   1  10
BRANCH   2  14
ATOM     14  C   UNL     1       2.244   8.973  17.925  0.00  0.00    +0.000 C 
BRANCH  14  15
ATOM     15  O   UNL     1       2.187   7.543  17.966  0.00  0.00    +0.000 OA
BRANCH  15  16
ATOM     16  C   UNL     1       3.396   6.925  17.878  0.00  0.00    +0.000 C 
ATOM     17  O   UNL     1       4.285   7.279  17.114  0.00  0.00    +0.000 OA
BRANCH  16  18
ATOM     18  C   UNL     1       3.461   5.722  18.820  0.00  0.00    +0.000 C 
ATOM     19  C   UNL     1       2.096   5.040  18.996  0.00  0.00    +0.000 C 
ATOM     20  C   UNL     1       1.640   4.290  17.744  0.00  0.00    +0.000 C 
ATOM     21  C   UNL     1       2.694   3.305  17.251  0.00  0.00    +0.000 C 
ATOM     22  C   UNL     1       4.067   3.952  17.094  0.00  0.00    +0.000 C 
ATOM     23  C   UNL     1       4.501   4.694  18.358  0.00  0.00    +0.000 C 
ENDBRANCH  16  18
ENDBRANCH  15  16
ENDBRANCH  14  15
ENDBRANCH   2  14
TORSDOF 5
ENDMDL
MODEL 5
REMARK VINA RESULT:      -6.7      6.063      9.254
REMARK  Name = 
REMARK  6 active torsions:
REMARK  status: ('A' for Active; 'I' for Inactive)
REMARK    1  A    between atoms: C_1  and  C_2
REMARK    2  A    between atoms: C_6  and  N_7
REMARK    3  A    between atoms: C_8  and  C_10
REMARK    4  A    between atoms: C_10  and  O_11
REMARK    5  A    between atoms: O_11  and  C_12
REMARK    6  A    between atoms: C_12  and  C_14
REMARK                            x       y       z     vdW  Elec       q    Type
REMARK                         _______ _______ _______ _____ _____    ______ ____
ROOT
ATOM      1  N   UNL     1       1.419  10.303  19.652  0.00  0.00    +0.000 N 
ATOM      2  C   UNL     1       0.882   9.813  18.468  0.00  0.00    +0.000 C 
ATOM      3  O   UNL     1      -0.239  10.073  18.039  0.00  0.00    +0.000 OA
ATOM      4  H   UNL     1       2.003   9.618  20.127  0.00  0.00    +0.000 HD
ENDROOT
BRANCH   1  10
ATOM      5  C   UNL     1      -1.600  13.415  23.446  0.00  0.00    +0.000 C 
ATOM      6  C   UNL     1      -0.827  12.622  22.433  0.00  0.00    +0.000 A 
ATOM      7  C   UNL     1      -0.801  11.229  22.493  0.00  0.00    +0.000 A 
ATOM      8  C   UNL     1      -0.051  10.494  21.569  0.00  0.00    +0.000 A 
ATOM      9 BR   UNL     1      -0.080   8.600  21.742  0.00  0.00    +0.000 Br
ATOM     10  C   UNL     1       0.668  11.127  20.539  0.00  0.00    +0.000 A 
ATOM     11  C   UNL     1       0.648  12.533  20.486  0.00  0.00    +0.000 A 
ATOM     12 BR   UNL     1       1.739  13.548  19.301  0.00  0.00    +0.000 Br
ATOM     13  C   UNL     1      -0.098  13.268  21.427  0.00  0.00    +0.000 A 
ENDBRANCH   1  10
BRANCH   2  14
ATOM     14  C   UNL     1       1.795   8.800  17.767  0.00  0.00    +0.000 C 
BRANCH  14  15
ATOM     15  O   UNL     1       2.129   7.711  18.634  0.00  0.00    +0.000 OA
BRANCH  15  16
ATOM     16  C   UNL     1       3.198   6.972  18.231  0.00  0.00    +0.000 C 
ATOM     17  O   UNL     1       3.932   7.290  17.305  0.00  0.00    +0.000 OA
BRANCH  16  18
ATOM     18  C   UNL     1       3.315   5.691  19.059  0.00  0.00    +0.000 C 
ATOM     19  C   UNL     1       1.981   4.938  19.168  0.00  0.00    +0.000 C 
ATOM     20  C   UNL     1       1.558   4.287  17.851  0.00  0.00    +0.000 C 
ATOM     21  C   UNL     1       2.653   3.398  17.273  0.00  0.00    +0.000 C 
ATOM     22  C   UNL     1       3.996   4.115  17.180  0.00  0.00    +0.000 C 
ATOM     23  C   UNL     1       4.399   4.756  18.508  0.00  0.00    +0.000 C 
ENDBRANCH  16  18
ENDBRANCH  15  16
ENDBRANCH  14  15
ENDBRANCH   2  14
TORSDOF 5
ENDMDL
MODEL 6
REMARK VINA RESULT:      -6.7      0.872      1.367
REMARK  Name = 
REMARK  6 active torsions:
REMARK  status: ('A' for Active; 'I' for Inactive)
REMARK    1  A    between atoms: C_1  and  C_2
REMARK    2  A    between atoms: C_6  and  N_7
REMARK    3  A    between atoms: C_8  and  C_10
REMARK    4  A    between atoms: C_10  and  O_11
REMARK    5  A    between atoms: O_11  and  C_12
REMARK    6  A    between atoms: C_12  and  C_14
REMARK                            x       y       z     vdW  Elec       q    Type
REMARK                         _______ _______ _______ _____ _____    ______ ____
ROOT
ATOM      1  N   UNL     1       5.950   7.217  16.994  0.00  0.00    +0.000 N 
ATOM      2  C   UNL     1       7.074   7.421  17.783  0.00  0.00    +0.000 C 
ATOM      3  O   UNL     1       7.522   6.619  18.598  0.00  0.00    +0.000 OA
ATOM      4  H   UNL     1       5.411   8.070  16.857  0.00  0.00    +0.000 HD
ENDROOT
BRANCH   1  10
ATOM      5  C   UNL     1       2.455   2.659  17.448  0.00  0.00    +0.000 C 
ATOM      6  C   UNL     1       3.390   3.829  17.345  0.00  0.00    +0.000 A 
ATOM      7  C   UNL     1       2.977   5.103  17.733  0.00  0.00    +0.000 A 
ATOM      8  C   UNL     1       3.837   6.197  17.602  0.00  0.00    +0.000 A 
ATOM      9 BR   UNL     1       3.174   7.892  18.157  0.00  0.00    +0.000 Br
ATOM     10  C   UNL     1       5.146   6.047  17.110  0.00  0.00    +0.000 A 
ATOM     11  C   UNL     1       5.558   4.762  16.710  0.00  0.00    +0.000 A 
ATOM     12 BR   UNL     1       7.207   4.425  15.821  0.00  0.00    +0.000 Br
ATOM     13  C   UNL     1       4.683   3.666  16.831  0.00  0.00    +0.000 A 
ENDBRANCH   1  10
BRANCH   2  14
ATOM     14  C   UNL     1       7.675   8.823  17.625  0.00  0.00    +0.000 C 
BRANCH  14  15
ATOM     15  O   UNL     1       8.935   8.929  18.296  0.00  0.00    +0.000 OA
BRANCH  15  16
ATOM     16  C   UNL     1       9.128  10.102  18.960  0.00  0.00    +0.000 C 
ATOM     17  O   UNL     1       8.923  10.244  20.159  0.00  0.00    +0.000 OA
BRANCH  16  18
ATOM     18  C   UNL     1       9.583  11.201  17.999  0.00  0.00    +0.000 C 
ATOM     19  C   UNL     1       8.888  12.543  18.270  0.00  0.00    +0.000 C 
ATOM     20  C   UNL     1       9.355  13.204  19.566  0.00  0.00    +0.000 C 
ATOM     21  C   UNL     1      10.872  13.342  19.625  0.00  0.00    +0.000 C 
ATOM     22  C   UNL     1      11.588  12.027  19.332  0.00  0.00    +0.000 C 
ATOM     23  C   UNL     1      11.105  11.387  18.030  0.00  0.00    +0.000 C 
ENDBRANCH  16  18
ENDBRANCH  15  16
ENDBRANCH  14  15
ENDBRANCH   2  14
TORSDOF 5
ENDMDL
MODEL 7
REMARK VINA RESULT:      -6.7      0.148      2.036
REMARK  Name = 
REMARK  6 active torsions:
REMARK  status: ('A' for Active; 'I' for Inactive)
REMARK    1  A    between atoms: C_1  and  C_2
REMARK    2  A    between atoms: C_6  and  N_7
REMARK    3  A    between atoms: C_8  and  C_10
REMARK    4  A    between atoms: C_10  and  O_11
REMARK    5  A    between atoms: O_11  and  C_12
REMARK    6  A    between atoms: C_12  and  C_14
REMARK                            x       y       z     vdW  Elec       q    Type
REMARK                         _______ _______ _______ _____ _____    ______ ____
ROOT
ATOM      1  N   UNL     1       5.965   7.062  16.811  0.00  0.00    +0.000 N 
ATOM      2  C   UNL     1       7.041   7.254  17.669  0.00  0.00    +0.000 C 
ATOM      3  O   UNL     1       7.331   6.525  18.613  0.00  0.00    +0.000 OA
ATOM      4  H   UNL     1       5.537   7.940  16.522  0.00  0.00    +0.000 HD
ENDROOT
BRANCH   1  10
ATOM      5  C   UNL     1       2.414   2.591  17.577  0.00  0.00    +0.000 C 
ATOM      6  C   UNL     1       3.314   3.773  17.362  0.00  0.00    +0.000 A 
ATOM      7  C   UNL     1       4.589   3.604  16.822  0.00  0.00    +0.000 A 
ATOM      8  C   UNL     1       5.438   4.702  16.658  0.00  0.00    +0.000 A 
ATOM      9 BR   UNL     1       7.157   4.362  15.915  0.00  0.00    +0.000 Br
ATOM     10  C   UNL     1       5.029   6.004  16.996  0.00  0.00    +0.000 A 
ATOM     11  C   UNL     1       3.746   6.171  17.550  0.00  0.00    +0.000 A 
ATOM     12 BR   UNL     1       3.126   7.822  18.265  0.00  0.00    +0.000 Br
ATOM     13  C   UNL     1       2.900   5.060  17.726  0.00  0.00    +0.000 A 
ENDBRANCH   1  10
BRANCH   2  14
ATOM     14  C   UNL     1       7.804   8.556  17.395  0.00  0.00    +0.000 C 
BRANCH  14  15
ATOM     15  O   UNL     1       8.444   9.043  18.580  0.00  0.00    +0.000 OA
BRANCH  15  16
ATOM     16  C   UNL     1       8.887  10.327  18.498  0.00  0.00    +0.000 C 
ATOM     17  O   UNL     1       8.451  11.145  17.699  0.00  0.00    +0.000 OA
BRANCH  16  18
ATOM     18  C   UNL     1      10.016  10.576  19.499  0.00  0.00    +0.000 C 
ATOM     19  C   UNL     1      11.082  11.539  18.955  0.00  0.00    +0.000 C 
ATOM     20  C   UNL     1      10.584  12.980  18.852  0.00  0.00    +0.000 C 
ATOM     21  C   UNL     1      10.002  13.482  20.169  0.00  0.00    +0.000 C 
ATOM     22  C   UNL     1       8.960  12.529  20.745  0.00  0.00    +0.000 C 
ATOM     23  C   UNL     1       9.481  11.094  20.840  0.00  0.00    +0.000 C 
ENDBRANCH  16  18
ENDBRANCH  15  16
ENDBRANCH  14  15
ENDBRANCH   2  14
TORSDOF 5
ENDMDL
MODEL 8
REMARK VINA RESULT:      -6.6      6.084      9.250
REMARK  Name = 
REMARK  6 active torsions:
REMARK  status: ('A' for Active; 'I' for Inactive)
REMARK    1  A    between atoms: C_1  and  C_2
REMARK    2  A    between atoms: C_6  and  N_7
REMARK    3  A    between atoms: C_8  and  C_10
REMARK    4  A    between atoms: C_10  and  O_11
REMARK    5  A    between atoms: O_11  and  C_12
REMARK    6  A    between atoms: C_12  and  C_14
REMARK                            x       y       z     vdW  Elec       q    Type
REMARK                         _______ _______ _______ _____ _____    ______ ____
ROOT
ATOM      1  N   UNL     1       1.485  10.376  19.733  0.00  0.00    +0.000 N 
ATOM      2  C   UNL     1       0.905   9.853  18.585  0.00  0.00    +0.000 C 
ATOM      3  O   UNL     1      -0.261  10.027  18.239  0.00  0.00    +0.000 OA
ATOM      4  H   UNL     1       2.154   9.735  20.157  0.00  0.00    +0.000 HD
ENDROOT
BRANCH   1  10
ATOM      5  C   UNL     1      -1.555  13.659  23.362  0.00  0.00    +0.000 C 
ATOM      6  C   UNL     1      -0.750  12.787  22.443  0.00  0.00    +0.000 A 
ATOM      7  C   UNL     1       0.009  13.349  21.417  0.00  0.00    +0.000 A 
ATOM      8  C   UNL     1       0.729  12.532  20.540  0.00  0.00    +0.000 A 
ATOM      9 BR   UNL     1       1.728  13.399  19.173  0.00  0.00    +0.000 Br
ATOM     10  C   UNL     1       0.739  11.133  20.681  0.00  0.00    +0.000 A 
ATOM     11  C   UNL     1      -0.036  10.567  21.711  0.00  0.00    +0.000 A 
ATOM     12 BR   UNL     1      -0.310   8.693  21.901  0.00  0.00    +0.000 Br
ATOM     13  C   UNL     1      -0.770  11.394  22.582  0.00  0.00    +0.000 A 
ENDBRANCH   1  10
BRANCH   2  14
ATOM     14  C   UNL     1       1.841   8.919  17.808  0.00  0.00    +0.000 C 
BRANCH  14  15
ATOM     15  O   UNL     1       2.086   7.707  18.531  0.00  0.00    +0.000 OA
BRANCH  15  16
ATOM     16  C   UNL     1       3.184   7.014  18.122  0.00  0.00    +0.000 C 
ATOM     17  O   UNL     1       3.896   7.362  17.190  0.00  0.00    +0.000 OA
BRANCH  16  18
ATOM     18  C   UNL     1       3.364   5.743  18.954  0.00  0.00    +0.000 C 
ATOM     19  C   UNL     1       2.056   4.952  19.107  0.00  0.00    +0.000 C 
ATOM     20  C   UNL     1       1.612   4.281  17.807  0.00  0.00    +0.000 C 
ATOM     21  C   UNL     1       2.715   3.420  17.201  0.00  0.00    +0.000 C 
ATOM     22  C   UNL     1       4.033   4.176  17.063  0.00  0.00    +0.000 C 
ATOM     23  C   UNL     1       4.457   4.837  18.375  0.00  0.00    +0.000 C 
ENDBRANCH  16  18
ENDBRANCH  15  16
ENDBRANCH  14  15
ENDBRANCH   2  14
TORSDOF 5
ENDMDL
MODEL 9
REMARK VINA RESULT:      -6.6      6.641      9.634
REMARK  Name = 
REMARK  6 active torsions:
REMARK  status: ('A' for Active; 'I' for Inactive)
REMARK    1  A    between atoms: C_1  and  C_2
REMARK    2  A    between atoms: C_6  and  N_7
REMARK    3  A    between atoms: C_8  and  C_10
REMARK    4  A    between atoms: C_10  and  O_11
REMARK    5  A    between atoms: O_11  and  C_12
REMARK    6  A    between atoms: C_12  and  C_14
REMARK                            x       y       z     vdW  Elec       q    Type
REMARK                         _______ _______ _______ _____ _____    ______ ____
ROOT
ATOM      1  N   UNL     1      -0.203   9.779  19.600  0.00  0.00    +0.000 N 
ATOM      2  C   UNL     1       1.013   9.957  18.953  0.00  0.00    +0.000 C 
ATOM      3  O   UNL     1       1.702  10.973  19.009  0.00  0.00    +0.000 OA
ATOM      4  H   UNL     1      -0.861   9.234  19.046  0.00  0.00    +0.000 HD
ENDROOT
BRANCH   1  10
ATOM      5  C   UNL     1      -2.893  13.998  22.454  0.00  0.00    +0.000 C 
ATOM      6  C   UNL     1      -2.163  12.907  21.727  0.00  0.00    +0.000 A 
ATOM      7  C   UNL     1      -2.280  12.776  20.343  0.00  0.00    +0.000 A 
ATOM      8  C   UNL     1      -1.629  11.736  19.673  0.00  0.00    +0.000 A 
ATOM      9 BR   UNL     1      -1.856  11.647  17.786  0.00  0.00    +0.000 Br
ATOM     10  C   UNL     1      -0.816  10.816  20.359  0.00  0.00    +0.000 A 
ATOM     11  C   UNL     1      -0.708  10.944  21.756  0.00  0.00    +0.000 A 
ATOM     12 BR   UNL     1       0.165   9.659  22.856  0.00  0.00    +0.000 Br
ATOM     13  C   UNL     1      -1.377  11.984  22.428  0.00  0.00    +0.000 A 
ENDBRANCH   1  10
BRANCH   2  14
ATOM     14  C   UNL     1       1.392   8.781  18.045  0.00  0.00    +0.000 C 
BRANCH  14  15
ATOM     15  O   UNL     1       2.551   8.097  18.534  0.00  0.00    +0.000 OA
BRANCH  15  16
ATOM     16  C   UNL     1       2.305   7.204  19.531  0.00  0.00    +0.000 C 
ATOM     17  O   UNL     1       1.532   7.416  20.456  0.00  0.00    +0.000 OA
BRANCH  16  18
ATOM     18  C   UNL     1       3.151   5.943  19.350  0.00  0.00    +0.000 C 
ATOM     19  C   UNL     1       2.828   4.864  20.395  0.00  0.00    +0.000 C 
ATOM     20  C   UNL     1       1.459   4.219  20.178  0.00  0.00    +0.000 C 
ATOM     21  C   UNL     1       1.294   3.687  18.759  0.00  0.00    +0.000 C 
ATOM     22  C   UNL     1       1.636   4.732  17.702  0.00  0.00    +0.000 C 
ATOM     23  C   UNL     1       3.009   5.361  17.938  0.00  0.00    +0.000 C 
ENDBRANCH  16  18
ENDBRANCH  15  16
ENDBRANCH  14  15
ENDBRANCH   2  14
TORSDOF 5
ENDMDL
