MODEL 1
REMARK VINA RESULT:      -7.8      0.000      0.000
REMARK  Name = 
REMARK  6 active torsions:
REMARK  status: ('A' for Active; 'I' for Inactive)
REMARK    1  A    between atoms: C_2  and  C_20
REMARK    2  A    between atoms: N_3  and  O_4
REMARK    3  A    between atoms: O_4  and  C_5
REMARK    4  A    between atoms: C_5  and  C_7
REMARK    5  A    between atoms: C_7  and  C_8
REMARK    6  A    between atoms: C_8  and  N_9
REMARK                            x       y       z     vdW  Elec       q    Type
REMARK                         _______ _______ _______ _____ _____    ______ ____
ROOT
ATOM      1  C   UNL     1       5.073   6.338  16.427  0.00  0.00    +0.000 C 
ATOM      2  O   UNL     1       5.178   6.861  15.324  0.00  0.00    +0.000 OA
ENDROOT
BRANCH   1   3
ATOM      3  O   UNL     1       4.572   6.953  17.536  0.00  0.00    +0.000 OA
BRANCH   3   6
ATOM      4  N   UNL     1       3.155   6.529  19.775  0.00  0.00    +0.000 NA
ATOM      5  C   UNL     1       2.726   7.295  18.811  0.00  0.00    +0.000 C 
ATOM      6  N   UNL     1       3.177   7.121  17.517  0.00  0.00    +0.000 N 
ATOM      7  H   UNL     1       3.797   5.860  19.336  0.00  0.00    +0.000 HD
ATOM      8  H   UNL     1       2.874   7.876  16.889  0.00  0.00    +0.000 HD
BRANCH   5   9
ATOM      9  C   UNL     1       1.752   8.397  19.103  0.00  0.00    +0.000 A 
ATOM     10  C   UNL     1       1.293   9.212  18.075  0.00  0.00    +0.000 A 
ATOM     11  C   UNL     1       0.398  10.228  18.391  0.00  0.00    +0.000 A 
ATOM     12  C   UNL     1      -0.010  10.384  19.711  0.00  0.00    +0.000 A 
ATOM     13  C   UNL     1       0.488   9.507  20.668  0.00  0.00    +0.000 A 
ATOM     14  N   UNL     1       1.362   8.508  20.402  0.00  0.00    +0.000 NA
ENDBRANCH   5   9
ENDBRANCH   3   6
ENDBRANCH   1   3
BRANCH   1  15
ATOM     15  C   UNL     1       5.685   5.008  16.793  0.00  0.00    +0.000 C 
BRANCH  15  16
ATOM     16  C   UNL     1       4.752   3.823  16.567  0.00  0.00    +0.000 C 
BRANCH  16  17
ATOM     17  N   UNL     1       3.922   3.557  17.729  0.00  0.00    +0.000 N 
ATOM     18  C   UNL     1       4.406   3.338  18.991  0.00  0.00    +0.000 C 
ATOM     19  O   UNL     1       5.556   3.334  19.374  0.00  0.00    +0.000 OA
ATOM     20  C   UNL     1       3.240   3.111  19.844  0.00  0.00    +0.000 A 
ATOM     21  C   UNL     1       3.161   2.827  21.193  0.00  0.00    +0.000 A 
ATOM     22  C   UNL     1       1.882   2.657  21.734  0.00  0.00    +0.000 A 
ATOM     23  C   UNL     1       0.731   2.770  20.925  0.00  0.00    +0.000 A 
ATOM     24  C   UNL     1       0.838   3.062  19.562  0.00  0.00    +0.000 A 
ATOM     25  C   UNL     1       2.111   3.228  19.053  0.00  0.00    +0.000 A 
ATOM     26  C   UNL     1       2.555   3.534  17.694  0.00  0.00    +0.000 C 
ATOM     27  O   UNL     1       1.810   3.739  16.755  0.00  0.00    +0.000 OA
ENDBRANCH  16  17
ENDBRANCH  15  16
ENDBRANCH   1  15
TORSDOF 6
ENDMDL
MODEL 2
REMARK VINA RESULT:      -7.8      0.217      1.756
REMARK  Name = 
REMARK  6 active torsions:
REMARK  status: ('A' for Active; 'I' for Inactive)
REMARK    1  A    between atoms: C_2  and  C_20
REMARK    2  A    between atoms: N_3  and  O_4
REMARK    3  A    between atoms: O_4  and  C_5
REMARK    4  A    between atoms: C_5  and  C_7
REMARK    5  A    between atoms: C_7  and  C_8
REMARK    6  A    between atoms: C_8  and  N_9
REMARK                            x       y       z     vdW  Elec       q    Type
REMARK                         _______ _______ _______ _____ _____    ______ ____
ROOT
ATOM      1  C   UNL     1       5.031   6.287  16.529  0.00  0.00    +0.000 C 
ATOM      2  O   UNL     1       5.034   6.923  15.482  0.00  0.00    +0.000 OA
ENDROOT
BRANCH   1   3
ATOM      3  O   UNL     1       4.494   6.724  17.704  0.00  0.00    +0.000 OA
BRANCH   3   6
ATOM      4  N   UNL     1       3.041   6.543  19.953  0.00  0.00    +0.000 NA
ATOM      5  C   UNL     1       2.652   7.242  18.923  0.00  0.00    +0.000 C 
ATOM      6  N   UNL     1       3.108   6.943  17.653  0.00  0.00    +0.000 N 
ATOM      7  H   UNL     1       3.661   5.816  19.579  0.00  0.00    +0.000 HD
ATOM      8  H   UNL     1       2.840   7.654  16.961  0.00  0.00    +0.000 HD
BRANCH   5   9
ATOM      9  C   UNL     1       1.720   8.401  19.110  0.00  0.00    +0.000 A 
ATOM     10  C   UNL     1       1.337   9.172  18.019  0.00  0.00    +0.000 A 
ATOM     11  C   UNL     1       0.479  10.243  18.238  0.00  0.00    +0.000 A 
ATOM     12  C   UNL     1       0.029  10.496  19.529  0.00  0.00    +0.000 A 
ATOM     13  C   UNL     1       0.449   9.658  20.555  0.00  0.00    +0.000 A 
ATOM     14  N   UNL     1       1.286   8.608  20.383  0.00  0.00    +0.000 NA
ENDBRANCH   5   9
ENDBRANCH   3   6
ENDBRANCH   1   3
BRANCH   1  15
ATOM     15  C   UNL     1       5.816   5.017  16.748  0.00  0.00    +0.000 C 
BRANCH  15  16
ATOM     16  C   UNL     1       4.989   3.749  16.559  0.00  0.00    +0.000 C 
BRANCH  16  17
ATOM     17  N   UNL     1       4.068   3.531  17.661  0.00  0.00    +0.000 N 
ATOM     18  C   UNL     1       2.712   3.397  17.521  0.00  0.00    +0.000 C 
ATOM     19  O   UNL     1       2.047   3.420  16.508  0.00  0.00    +0.000 OA
ATOM     20  C   UNL     1       2.178   3.198  18.867  0.00  0.00    +0.000 A 
ATOM     21  C   UNL     1       0.877   3.029  19.297  0.00  0.00    +0.000 A 
ATOM     22  C   UNL     1       0.677   2.862  20.672  0.00  0.00    +0.000 A 
ATOM     23  C   UNL     1       1.765   2.871  21.570  0.00  0.00    +0.000 A 
ATOM     24  C   UNL     1       3.075   3.040  21.109  0.00  0.00    +0.000 A 
ATOM     25  C   UNL     1       3.246   3.200  19.748  0.00  0.00    +0.000 A 
ATOM     26  C   UNL     1       4.463   3.397  18.964  0.00  0.00    +0.000 C 
ATOM     27  O   UNL     1       5.588   3.411  19.426  0.00  0.00    +0.000 OA
ENDBRANCH  16  17
ENDBRANCH  15  16
ENDBRANCH   1  15
TORSDOF 6
ENDMDL
MODEL 3
REMARK VINA RESULT:      -7.7      1.758      4.404
REMARK  Name = 
REMARK  6 active torsions:
REMARK  status: ('A' for Active; 'I' for Inactive)
REMARK    1  A    between atoms: C_2  and  C_20
REMARK    2  A    between atoms: N_3  and  O_4
REMARK    3  A    between atoms: O_4  and  C_5
REMARK    4  A    between atoms: C_5  and  C_7
REMARK    5  A    between atoms: C_7  and  C_8
REMARK    6  A    between atoms: C_8  and  N_9
REMARK                            x       y       z     vdW  Elec       q    Type
REMARK                         _______ _______ _______ _____ _____    ______ ____
ROOT
ATOM      1  C   UNL     1       1.791   3.715  20.823  0.00  0.00    +0.000 C 
ATOM      2  O   UNL     1       2.192   3.589  21.974  0.00  0.00    +0.000 OA
ENDROOT
BRANCH   1   3
ATOM      3  O   UNL     1       1.508   4.907  20.223  0.00  0.00    +0.000 OA
BRANCH   3   6
ATOM      4  N   UNL     1       2.547   7.037  18.964  0.00  0.00    +0.000 NA
ATOM      5  C   UNL     1       1.969   7.127  20.130  0.00  0.00    +0.000 C 
ATOM      6  N   UNL     1       1.898   6.031  20.969  0.00  0.00    +0.000 N 
ATOM      7  H   UNL     1       2.892   6.073  18.897  0.00  0.00    +0.000 HD
ATOM      8  H   UNL     1       1.296   6.198  21.785  0.00  0.00    +0.000 HD
BRANCH   5   9
ATOM      9  C   UNL     1       1.350   8.421  20.564  0.00  0.00    +0.000 A 
ATOM     10  C   UNL     1       0.987   8.609  21.893  0.00  0.00    +0.000 A 
ATOM     11  C   UNL     1       0.407   9.820  22.251  0.00  0.00    +0.000 A 
ATOM     12  C   UNL     1       0.222  10.796  21.278  0.00  0.00    +0.000 A 
ATOM     13  C   UNL     1       0.635  10.525  19.979  0.00  0.00    +0.000 A 
ATOM     14  N   UNL     1       1.201   9.358  19.590  0.00  0.00    +0.000 NA
ENDBRANCH   5   9
ENDBRANCH   3   6
ENDBRANCH   1   3
BRANCH   1  15
ATOM     15  C   UNL     1       1.334   2.567  19.957  0.00  0.00    +0.000 C 
BRANCH  15  16
ATOM     16  C   UNL     1       2.470   1.882  19.204  0.00  0.00    +0.000 C 
BRANCH  16  17
ATOM     17  N   UNL     1       3.402   2.840  18.637  0.00  0.00    +0.000 N 
ATOM     18  C   UNL     1       3.160   3.582  17.511  0.00  0.00    +0.000 C 
ATOM     19  O   UNL     1       2.173   3.597  16.809  0.00  0.00    +0.000 OA
ATOM     20  C   UNL     1       4.350   4.405  17.299  0.00  0.00    +0.000 A 
ATOM     21  C   UNL     1       4.641   5.315  16.303  0.00  0.00    +0.000 A 
ATOM     22  C   UNL     1       5.883   5.955  16.366  0.00  0.00    +0.000 A 
ATOM     23  C   UNL     1       6.793   5.670  17.408  0.00  0.00    +0.000 A 
ATOM     24  C   UNL     1       6.473   4.746  18.407  0.00  0.00    +0.000 A 
ATOM     25  C   UNL     1       5.239   4.131  18.323  0.00  0.00    +0.000 A 
ATOM     26  C   UNL     1       4.617   3.136  19.193  0.00  0.00    +0.000 C 
ATOM     27  O   UNL     1       5.116   2.702  20.213  0.00  0.00    +0.000 OA
ENDBRANCH  16  17
ENDBRANCH  15  16
ENDBRANCH   1  15
TORSDOF 6
ENDMDL
MODEL 4
REMARK VINA RESULT:      -7.7      3.331      6.227
REMARK  Name = 
REMARK  6 active torsions:
REMARK  status: ('A' for Active; 'I' for Inactive)
REMARK    1  A    between atoms: C_2  and  C_20
REMARK    2  A    between atoms: N_3  and  O_4
REMARK    3  A    between atoms: O_4  and  C_5
REMARK    4  A    between atoms: C_5  and  C_7
REMARK    5  A    between atoms: C_7  and  C_8
REMARK    6  A    between atoms: C_8  and  N_9
REMARK                            x       y       z     vdW  Elec       q    Type
REMARK                         _______ _______ _______ _____ _____    ______ ____
ROOT
ATOM      1  C   UNL     1       7.310   6.493  16.974  0.00  0.00    +0.000 C 
ATOM      2  O   UNL     1       7.997   7.480  16.740  0.00  0.00    +0.000 OA
ENDROOT
BRANCH   1   3
ATOM      3  O   UNL     1       7.300   5.355  16.221  0.00  0.00    +0.000 OA
BRANCH   3   6
ATOM      4  N   UNL     1       8.316   5.556  13.746  0.00  0.00    +0.000 NA
ATOM      5  C   UNL     1       7.132   5.061  13.978  0.00  0.00    +0.000 C 
ATOM      6  N   UNL     1       6.432   5.407  15.118  0.00  0.00    +0.000 N 
ATOM      7  H   UNL     1       8.511   6.191  14.528  0.00  0.00    +0.000 HD
ATOM      8  H   UNL     1       5.585   4.840  15.248  0.00  0.00    +0.000 HD
BRANCH   5   9
ATOM      9  C   UNL     1       6.525   4.084  13.017  0.00  0.00    +0.000 A 
ATOM     10  C   UNL     1       5.143   3.970  12.918  0.00  0.00    +0.000 A 
ATOM     11  C   UNL     1       4.621   3.045  12.022  0.00  0.00    +0.000 A 
ATOM     12  C   UNL     1       5.493   2.281  11.254  0.00  0.00    +0.000 A 
ATOM     13  C   UNL     1       6.860   2.480  11.406  0.00  0.00    +0.000 A 
ATOM     14  N   UNL     1       7.407   3.367  12.269  0.00  0.00    +0.000 NA
ENDBRANCH   5   9
ENDBRANCH   3   6
ENDBRANCH   1   3
BRANCH   1  15
ATOM     15  C   UNL     1       6.203   6.457  17.999  0.00  0.00    +0.000 C 
BRANCH  15  16
ATOM     16  C   UNL     1       4.815   6.670  17.405  0.00  0.00    +0.000 C 
BRANCH  16  17
ATOM     17  N   UNL     1       3.855   5.703  17.908  0.00  0.00    +0.000 N 
ATOM     18  C   UNL     1       2.985   5.940  18.939  0.00  0.00    +0.000 C 
ATOM     19  O   UNL     1       2.842   6.949  19.595  0.00  0.00    +0.000 OA
ATOM     20  C   UNL     1       2.212   4.712  19.115  0.00  0.00    +0.000 A 
ATOM     21  C   UNL     1       1.219   4.403  20.022  0.00  0.00    +0.000 A 
ATOM     22  C   UNL     1       0.660   3.123  19.944  0.00  0.00    +0.000 A 
ATOM     23  C   UNL     1       1.103   2.195  18.977  0.00  0.00    +0.000 A 
ATOM     24  C   UNL     1       2.108   2.534  18.065  0.00  0.00    +0.000 A 
ATOM     25  C   UNL     1       2.642   3.805  18.162  0.00  0.00    +0.000 A 
ATOM     26  C   UNL     1       3.687   4.454  17.374  0.00  0.00    +0.000 C 
ATOM     27  O   UNL     1       4.254   3.946  16.426  0.00  0.00    +0.000 OA
ENDBRANCH  16  17
ENDBRANCH  15  16
ENDBRANCH   1  15
TORSDOF 6
ENDMDL
MODEL 5
REMARK VINA RESULT:      -7.7      3.225      5.992
REMARK  Name = 
REMARK  6 active torsions:
REMARK  status: ('A' for Active; 'I' for Inactive)
REMARK    1  A    between atoms: C_2  and  C_20
REMARK    2  A    between atoms: N_3  and  O_4
REMARK    3  A    between atoms: O_4  and  C_5
REMARK    4  A    between atoms: C_5  and  C_7
REMARK    5  A    between atoms: C_7  and  C_8
REMARK    6  A    between atoms: C_8  and  N_9
REMARK                            x       y       z     vdW  Elec       q    Type
REMARK                         _______ _______ _______ _____ _____    ______ ____
ROOT
ATOM      1  C   UNL     1       7.873   6.457  17.941  0.00  0.00    +0.000 C 
ATOM      2  O   UNL     1       8.244   7.431  18.585  0.00  0.00    +0.000 OA
ENDROOT
BRANCH   1   3
ATOM      3  O   UNL     1       7.601   6.464  16.604  0.00  0.00    +0.000 OA
BRANCH   3   6
ATOM      4  N   UNL     1       5.280   6.343  15.262  0.00  0.00    +0.000 NA
ATOM      5  C   UNL     1       6.226   5.459  15.105  0.00  0.00    +0.000 C 
ATOM      6  N   UNL     1       7.152   5.230  16.105  0.00  0.00    +0.000 N 
ATOM      7  H   UNL     1       5.409   6.725  16.206  0.00  0.00    +0.000 HD
ATOM      8  H   UNL     1       7.919   4.620  15.798  0.00  0.00    +0.000 HD
BRANCH   5   9
ATOM      9  C   UNL     1       6.334   4.694  13.821  0.00  0.00    +0.000 A 
ATOM     10  C   UNL     1       7.423   4.892  12.980  0.00  0.00    +0.000 A 
ATOM     11  C   UNL     1       7.479   4.169  11.794  0.00  0.00    +0.000 A 
ATOM     12  C   UNL     1       6.457   3.274  11.499  0.00  0.00    +0.000 A 
ATOM     13  C   UNL     1       5.418   3.127  12.411  0.00  0.00    +0.000 A 
ATOM     14  N   UNL     1       5.326   3.814  13.574  0.00  0.00    +0.000 NA
ENDBRANCH   5   9
ENDBRANCH   3   6
ENDBRANCH   1   3
BRANCH   1  15
ATOM     15  C   UNL     1       7.442   5.150  18.559  0.00  0.00    +0.000 C 
BRANCH  15  16
ATOM     16  C   UNL     1       6.410   5.311  19.671  0.00  0.00    +0.000 C 
BRANCH  16  17
ATOM     17  N   UNL     1       5.113   4.781  19.289  0.00  0.00    +0.000 N 
ATOM     18  C   UNL     1       4.185   5.463  18.547  0.00  0.00    +0.000 C 
ATOM     19  O   UNL     1       4.259   6.579  18.078  0.00  0.00    +0.000 OA
ATOM     20  C   UNL     1       3.039   4.568  18.399  0.00  0.00    +0.000 A 
ATOM     21  C   UNL     1       1.830   4.763  17.763  0.00  0.00    +0.000 A 
ATOM     22  C   UNL     1       0.915   3.704  17.794  0.00  0.00    +0.000 A 
ATOM     23  C   UNL     1       1.226   2.497  18.455  0.00  0.00    +0.000 A 
ATOM     24  C   UNL     1       2.460   2.323  19.090  0.00  0.00    +0.000 A 
ATOM     25  C   UNL     1       3.346   3.382  19.042  0.00  0.00    +0.000 A 
ATOM     26  C   UNL     1       4.691   3.516  19.597  0.00  0.00    +0.000 C 
ATOM     27  O   UNL     1       5.282   2.637  20.194  0.00  0.00    +0.000 OA
ENDBRANCH  16  17
ENDBRANCH  15  16
ENDBRANCH   1  15
TORSDOF 6
ENDMDL
MODEL 6
REMARK VINA RESULT:      -7.6      2.789      6.961
REMARK  Name = 
REMARK  6 active torsions:
REMARK  status: ('A' for Active; 'I' for Inactive)
REMARK    1  A    between atoms: C_2  and  C_20
REMARK    2  A    between atoms: N_3  and  O_4
REMARK    3  A    between atoms: O_4  and  C_5
REMARK    4  A    between atoms: C_5  and  C_7
REMARK    5  A    between atoms: C_7  and  C_8
REMARK    6  A    between atoms: C_8  and  N_9
REMARK                            x       y       z     vdW  Elec       q    Type
REMARK                         _______ _______ _______ _____ _____    ______ ____
ROOT
ATOM      1  C   UNL     1       4.345   4.456  18.640  0.00  0.00    +0.000 C 
ATOM      2  O   UNL     1       3.705   3.692  19.353  0.00  0.00    +0.000 OA
ENDROOT
BRANCH   1   3
ATOM      3  O   UNL     1       5.414   4.095  17.874  0.00  0.00    +0.000 OA
BRANCH   3   6
ATOM      4  N   UNL     1       7.921   4.332  16.947  0.00  0.00    +0.000 NA
ATOM      5  C   UNL     1       6.877   4.616  16.220  0.00  0.00    +0.000 C 
ATOM      6  N   UNL     1       5.680   4.973  16.811  0.00  0.00    +0.000 N 
ATOM      7  H   UNL     1       7.627   4.462  17.921  0.00  0.00    +0.000 HD
ATOM      8  H   UNL     1       4.908   5.029  16.136  0.00  0.00    +0.000 HD
BRANCH   5   9
ATOM      9  C   UNL     1       6.956   4.533  14.725  0.00  0.00    +0.000 A 
ATOM     10  C   UNL     1       6.161   3.627  14.033  0.00  0.00    +0.000 A 
ATOM     11  C   UNL     1       6.273   3.576  12.649  0.00  0.00    +0.000 A 
ATOM     12  C   UNL     1       7.162   4.433  12.010  0.00  0.00    +0.000 A 
ATOM     13  C   UNL     1       7.902   5.320  12.784  0.00  0.00    +0.000 A 
ATOM     14  N   UNL     1       7.824   5.398  14.133  0.00  0.00    +0.000 NA
ENDBRANCH   5   9
ENDBRANCH   3   6
ENDBRANCH   1   3
BRANCH   1  15
ATOM     15  C   UNL     1       4.196   5.957  18.663  0.00  0.00    +0.000 C 
BRANCH  15  16
ATOM     16  C   UNL     1       2.887   6.451  18.055  0.00  0.00    +0.000 C 
BRANCH  16  17
ATOM     17  N   UNL     1       2.234   7.435  18.899  0.00  0.00    +0.000 N 
ATOM     18  C   UNL     1       1.944   8.717  18.511  0.00  0.00    +0.000 C 
ATOM     19  O   UNL     1       2.153   9.254  17.445  0.00  0.00    +0.000 OA
ATOM     20  C   UNL     1       1.297   9.356  19.656  0.00  0.00    +0.000 A 
ATOM     21  C   UNL     1       0.823  10.643  19.811  0.00  0.00    +0.000 A 
ATOM     22  C   UNL     1       0.246  10.965  21.045  0.00  0.00    +0.000 A 
ATOM     23  C   UNL     1       0.163  10.008  22.079  0.00  0.00    +0.000 A 
ATOM     24  C   UNL     1       0.648   8.709  21.896  0.00  0.00    +0.000 A 
ATOM     25  C   UNL     1       1.209   8.416  20.668  0.00  0.00    +0.000 A 
ATOM     26  C   UNL     1       1.797   7.174  20.169  0.00  0.00    +0.000 C 
ATOM     27  O   UNL     1       1.846   6.133  20.796  0.00  0.00    +0.000 OA
ENDBRANCH  16  17
ENDBRANCH  15  16
ENDBRANCH   1  15
TORSDOF 6
ENDMDL
MODEL 7
REMARK VINA RESULT:      -7.6      2.830      5.727
REMARK  Name = 
REMARK  6 active torsions:
REMARK  status: ('A' for Active; 'I' for Inactive)
REMARK    1  A    between atoms: C_2  and  C_20
REMARK    2  A    between atoms: N_3  and  O_4
REMARK    3  A    between atoms: O_4  and  C_5
REMARK    4  A    between atoms: C_5  and  C_7
REMARK    5  A    between atoms: C_7  and  C_8
REMARK    6  A    between atoms: C_8  and  N_9
REMARK                            x       y       z     vdW  Elec       q    Type
REMARK                         _______ _______ _______ _____ _____    ______ ____
ROOT
ATOM      1  C   UNL     1       6.385   7.145  17.551  0.00  0.00    +0.000 C 
ATOM      2  O   UNL     1       7.177   7.961  17.094  0.00  0.00    +0.000 OA
ENDROOT
BRANCH   1   3
ATOM      3  O   UNL     1       6.600   5.799  17.608  0.00  0.00    +0.000 OA
BRANCH   3   6
ATOM      4  N   UNL     1       6.108   3.452  16.404  0.00  0.00    +0.000 NA
ATOM      5  C   UNL     1       6.844   4.378  15.856  0.00  0.00    +0.000 C 
ATOM      6  N   UNL     1       7.491   5.320  16.635  0.00  0.00    +0.000 N 
ATOM      7  H   UNL     1       6.175   3.605  17.417  0.00  0.00    +0.000 HD
ATOM      8  H   UNL     1       7.914   6.070  16.075  0.00  0.00    +0.000 HD
BRANCH   5   9
ATOM      9  C   UNL     1       6.978   4.449  14.365  0.00  0.00    +0.000 A 
ATOM     10  C   UNL     1       6.219   3.610  13.556  0.00  0.00    +0.000 A 
ATOM     11  C   UNL     1       6.381   3.701  12.179  0.00  0.00    +0.000 A 
ATOM     12  C   UNL     1       7.281   4.627  11.663  0.00  0.00    +0.000 A 
ATOM     13  C   UNL     1       7.981   5.438  12.549  0.00  0.00    +0.000 A 
ATOM     14  N   UNL     1       7.854   5.378  13.896  0.00  0.00    +0.000 NA
ENDBRANCH   5   9
ENDBRANCH   3   6
ENDBRANCH   1   3
BRANCH   1  15
ATOM     15  C   UNL     1       4.957   7.467  17.918  0.00  0.00    +0.000 C 
BRANCH  15  16
ATOM     16  C   UNL     1       3.927   6.691  17.104  0.00  0.00    +0.000 C 
BRANCH  16  17
ATOM     17  N   UNL     1       3.233   5.701  17.908  0.00  0.00    +0.000 N 
ATOM     18  C   UNL     1       2.657   5.959  19.124  0.00  0.00    +0.000 C 
ATOM     19  O   UNL     1       2.605   7.005  19.734  0.00  0.00    +0.000 OA
ATOM     20  C   UNL     1       2.076   4.696  19.579  0.00  0.00    +0.000 A 
ATOM     21  C   UNL     1       1.400   4.391  20.743  0.00  0.00    +0.000 A 
ATOM     22  C   UNL     1       0.960   3.072  20.898  0.00  0.00    +0.000 A 
ATOM     23  C   UNL     1       1.207   2.103  19.901  0.00  0.00    +0.000 A 
ATOM     24  C   UNL     1       1.892   2.438  18.729  0.00  0.00    +0.000 A 
ATOM     25  C   UNL     1       2.313   3.747  18.600  0.00  0.00    +0.000 A 
ATOM     26  C   UNL     1       3.042   4.404  17.516  0.00  0.00    +0.000 C 
ATOM     27  O   UNL     1       3.374   3.862  16.480  0.00  0.00    +0.000 OA
ENDBRANCH  16  17
ENDBRANCH  15  16
ENDBRANCH   1  15
TORSDOF 6
ENDMDL
MODEL 8
REMARK VINA RESULT:      -7.6      4.234      5.216
REMARK  Name = 
REMARK  6 active torsions:
REMARK  status: ('A' for Active; 'I' for Inactive)
REMARK    1  A    between atoms: C_2  and  C_20
REMARK    2  A    between atoms: N_3  and  O_4
REMARK    3  A    between atoms: O_4  and  C_5
REMARK    4  A    between atoms: C_5  and  C_7
REMARK    5  A    between atoms: C_7  and  C_8
REMARK    6  A    between atoms: C_8  and  N_9
REMARK                            x       y       z     vdW  Elec       q    Type
REMARK                         _______ _______ _______ _____ _____    ______ ____
ROOT
ATOM      1  C   UNL     1       7.069   6.464  16.604  0.00  0.00    +0.000 C 
ATOM      2  O   UNL     1       7.141   5.523  15.823  0.00  0.00    +0.000 OA
ENDROOT
BRANCH   1   3
ATOM      3  O   UNL     1       8.020   7.431  16.749  0.00  0.00    +0.000 OA
BRANCH   3   6
ATOM      4  N   UNL     1       8.851   8.291  19.152  0.00  0.00    +0.000 NA
ATOM      5  C   UNL     1       8.389   9.101  18.240  0.00  0.00    +0.000 C 
ATOM      6  N   UNL     1       7.530   8.645  17.259  0.00  0.00    +0.000 N 
ATOM      7  H   UNL     1       8.425   7.377  18.955  0.00  0.00    +0.000 HD
ATOM      8  H   UNL     1       7.359   9.346  16.528  0.00  0.00    +0.000 HD
BRANCH   5   9
ATOM      9  C   UNL     1       8.808  10.540  18.232  0.00  0.00    +0.000 A 
ATOM     10  C   UNL     1       9.937  10.942  18.937  0.00  0.00    +0.000 A 
ATOM     11  C   UNL     1      10.284  12.288  18.911  0.00  0.00    +0.000 A 
ATOM     12  C   UNL     1       9.502  13.175  18.179  0.00  0.00    +0.000 A 
ATOM     13  C   UNL     1       8.403  12.677  17.489  0.00  0.00    +0.000 A 
ATOM     14  N   UNL     1       8.030  11.375  17.492  0.00  0.00    +0.000 NA
ENDBRANCH   5   9
ENDBRANCH   3   6
ENDBRANCH   1   3
BRANCH   1  15
ATOM     15  C   UNL     1       6.026   6.585  17.688  0.00  0.00    +0.000 C 
BRANCH  15  16
ATOM     16  C   UNL     1       4.601   6.692  17.155  0.00  0.00    +0.000 C 
BRANCH  16  17
ATOM     17  N   UNL     1       3.733   5.673  17.716  0.00  0.00    +0.000 N 
ATOM     18  C   UNL     1       3.673   4.378  17.273  0.00  0.00    +0.000 C 
ATOM     19  O   UNL     1       4.304   3.849  16.383  0.00  0.00    +0.000 OA
ATOM     20  C   UNL     1       2.679   3.704  18.107  0.00  0.00    +0.000 A 
ATOM     21  C   UNL     1       2.219   2.403  18.074  0.00  0.00    +0.000 A 
ATOM     22  C   UNL     1       1.246   2.047  19.014  0.00  0.00    +0.000 A 
ATOM     23  C   UNL     1       0.760   2.988  19.947  0.00  0.00    +0.000 A 
ATOM     24  C   UNL     1       1.245   4.300  19.961  0.00  0.00    +0.000 A 
ATOM     25  C   UNL     1       2.207   4.624  19.026  0.00  0.00    +0.000 A 
ATOM     26  C   UNL     1       2.903   5.887  18.782  0.00  0.00    +0.000 C 
ATOM     27  O   UNL     1       2.750   6.897  19.441  0.00  0.00    +0.000 OA
ENDBRANCH  16  17
ENDBRANCH  15  16
ENDBRANCH   1  15
TORSDOF 6
ENDMDL
MODEL 9
REMARK VINA RESULT:      -7.6      3.475      6.482
REMARK  Name = 
REMARK  6 active torsions:
REMARK  status: ('A' for Active; 'I' for Inactive)
REMARK    1  A    between atoms: C_2  and  C_20
REMARK    2  A    between atoms: N_3  and  O_4
REMARK    3  A    between atoms: O_4  and  C_5
REMARK    4  A    between atoms: C_5  and  C_7
REMARK    5  A    between atoms: C_7  and  C_8
REMARK    6  A    between atoms: C_8  and  N_9
REMARK                            x       y       z     vdW  Elec       q    Type
REMARK                         _______ _______ _______ _____ _____    ______ ____
ROOT
ATOM      1  C   UNL     1       7.044   6.052  16.633  0.00  0.00    +0.000 C 
ATOM      2  O   UNL     1       6.458   7.129  16.642  0.00  0.00    +0.000 OA
ENDROOT
BRANCH   1   3
ATOM      3  O   UNL     1       7.505   5.426  15.513  0.00  0.00    +0.000 OA
BRANCH   3   6
ATOM      4  N   UNL     1       8.112   5.669  12.911  0.00  0.00    +0.000 NA
ATOM      5  C   UNL     1       7.128   4.925  13.332  0.00  0.00    +0.000 C 
ATOM      6  N   UNL     1       6.517   5.182  14.545  0.00  0.00    +0.000 N 
ATOM      7  H   UNL     1       8.243   6.392  13.628  0.00  0.00    +0.000 HD
ATOM      8  H   UNL     1       5.861   4.441  14.821  0.00  0.00    +0.000 HD
BRANCH   5   9
ATOM      9  C   UNL     1       6.662   3.760  12.513  0.00  0.00    +0.000 A 
ATOM     10  C   UNL     1       7.586   2.954  11.857  0.00  0.00    +0.000 A 
ATOM     11  C   UNL     1       7.110   1.890  11.100  0.00  0.00    +0.000 A 
ATOM     12  C   UNL     1       5.740   1.665  11.034  0.00  0.00    +0.000 A 
ATOM     13  C   UNL     1       4.893   2.512  11.741  0.00  0.00    +0.000 A 
ATOM     14  N   UNL     1       5.316   3.559  12.487  0.00  0.00    +0.000 NA
ENDBRANCH   5   9
ENDBRANCH   3   6
ENDBRANCH   1   3
BRANCH   1  15
ATOM     15  C   UNL     1       7.153   5.140  17.830  0.00  0.00    +0.000 C 
BRANCH  15  16
ATOM     16  C   UNL     1       6.217   5.518  18.974  0.00  0.00    +0.000 C 
BRANCH  16  17
ATOM     17  N   UNL     1       4.929   4.856  18.862  0.00  0.00    +0.000 N 
ATOM     18  C   UNL     1       4.662   3.599  19.334  0.00  0.00    +0.000 C 
ATOM     19  O   UNL     1       5.399   2.833  19.916  0.00  0.00    +0.000 OA
ATOM     20  C   UNL     1       3.261   3.328  19.012  0.00  0.00    +0.000 A 
ATOM     21  C   UNL     1       2.492   2.206  19.244  0.00  0.00    +0.000 A 
ATOM     22  C   UNL     1       1.162   2.244  18.810  0.00  0.00    +0.000 A 
ATOM     23  C   UNL     1       0.643   3.385  18.161  0.00  0.00    +0.000 A 
ATOM     24  C   UNL     1       1.443   4.511  17.941  0.00  0.00    +0.000 A 
ATOM     25  C   UNL     1       2.751   4.449  18.381  0.00  0.00    +0.000 A 
ATOM     26  C   UNL     1       3.823   5.438  18.304  0.00  0.00    +0.000 C 
ATOM     27  O   UNL     1       3.700   6.556  17.840  0.00  0.00    +0.000 OA
ENDBRANCH  16  17
ENDBRANCH  15  16
ENDBRANCH   1  15
TORSDOF 6
ENDMDL
