MODEL 1
REMARK VINA RESULT:      -7.1      0.000      0.000
REMARK  Name = 
REMARK  5 active torsions:
REMARK  status: ('A' for Active; 'I' for Inactive)
REMARK    1  A    between atoms: C_1  and  C_2
REMARK    2  A    between atoms: C_2  and  C_3
REMARK    3  A    between atoms: C_7  and  O_8
REMARK    4  A    between atoms: C_9  and  O_10
REMARK    5  A    between atoms: C_13  and  N_14
REMARK                            x       y       z     vdW  Elec       q    Type
REMARK                         _______ _______ _______ _____ _____    ______ ____
ROOT
ATOM      1  C   UNL     1       2.583   5.415  19.950  0.00  0.00    +0.000 A 
ATOM      2  C   UNL     1       3.487   6.218  19.235  0.00  0.00    +0.000 A 
ATOM      3  C   UNL     1       4.635   5.705  18.632  0.00  0.00    +0.000 A 
ATOM      4  N   UNL     1       5.421   6.552  17.939  0.00  0.00    +0.000 NA
ATOM      5  C   UNL     1       6.517   6.005  17.393  0.00  0.00    +0.000 A 
ATOM      6  C   UNL     1       6.854   4.675  17.537  0.00  0.00    +0.000 A 
ATOM      7  N   UNL     1       6.082   3.824  18.233  0.00  0.00    +0.000 NA
ATOM      8  C   UNL     1       4.940   4.327  18.773  0.00  0.00    +0.000 A 
ATOM      9  C   UNL     1       4.016   3.543  19.469  0.00  0.00    +0.000 A 
ATOM     10  C   UNL     1       2.827   4.040  20.021  0.00  0.00    +0.000 A 
ATOM     11 CL   UNL     1       1.647   2.985  20.726  0.00  0.00    +0.000 Cl
ENDROOT
BRANCH   9  12
ATOM     12  N   UNL     1       4.351   2.157  19.665  0.00  0.00    +0.000 N 
ATOM     13  O   UNL     1       3.904   1.339  18.850  0.00  0.00    +0.000 OA
ATOM     14  O   UNL     1       5.026   1.888  20.669  0.00  0.00    +0.000 OA
ENDBRANCH   9  12
BRANCH   1  16
ATOM     15  C   UNL     1       1.566   7.591  20.768  0.00  0.00    +0.000 C 
ATOM     16  C   UNL     1       1.406   6.086  20.628  0.00  0.00    +0.000 C 
ENDBRANCH   1  16
BRANCH   5  17
ATOM     17  O   UNL     1       7.284   6.859  16.665  0.00  0.00    +0.000 OA
ATOM     18  H   UNL     1       7.826   7.262  17.370  0.00  0.00    +0.000 HD
ENDBRANCH   5  17
BRANCH   6  19
ATOM     19  O   UNL     1       7.979   4.153  16.970  0.00  0.00    +0.000 OA
ATOM     20  H   UNL     1       8.381   3.596  17.662  0.00  0.00    +0.000 HD
ENDBRANCH   6  19
TORSDOF 4
ENDMDL
MODEL 2
REMARK VINA RESULT:      -6.9      2.603      4.506
REMARK  Name = 
REMARK  5 active torsions:
REMARK  status: ('A' for Active; 'I' for Inactive)
REMARK    1  A    between atoms: C_1  and  C_2
REMARK    2  A    between atoms: C_2  and  C_3
REMARK    3  A    between atoms: C_7  and  O_8
REMARK    4  A    between atoms: C_9  and  O_10
REMARK    5  A    between atoms: C_13  and  N_14
REMARK                            x       y       z     vdW  Elec       q    Type
REMARK                         _______ _______ _______ _____ _____    ______ ____
ROOT
ATOM      1  C   UNL     1       3.704   6.828  17.693  0.00  0.00    +0.000 A 
ATOM      2  C   UNL     1       2.719   5.874  17.998  0.00  0.00    +0.000 A 
ATOM      3  C   UNL     1       2.998   4.512  18.110  0.00  0.00    +0.000 A 
ATOM      4  N   UNL     1       1.990   3.682  18.441  0.00  0.00    +0.000 NA
ATOM      5  C   UNL     1       2.315   2.384  18.521  0.00  0.00    +0.000 A 
ATOM      6  C   UNL     1       3.581   1.901  18.262  0.00  0.00    +0.000 A 
ATOM      7  N   UNL     1       4.591   2.719  17.924  0.00  0.00    +0.000 NA
ATOM      8  C   UNL     1       4.317   4.049  17.866  0.00  0.00    +0.000 A 
ATOM      9  C   UNL     1       5.285   5.016  17.586  0.00  0.00    +0.000 A 
ATOM     10  C   UNL     1       5.024   6.393  17.537  0.00  0.00    +0.000 A 
ATOM     11 CL   UNL     1       6.302   7.549  17.349  0.00  0.00    +0.000 Cl
ENDROOT
BRANCH   9  12
ATOM     12  N   UNL     1       6.611   4.545  17.281  0.00  0.00    +0.000 N 
ATOM     13  O   UNL     1       7.408   4.429  18.221  0.00  0.00    +0.000 OA
ATOM     14  O   UNL     1       6.862   4.339  16.085  0.00  0.00    +0.000 OA
ENDBRANCH   9  12
BRANCH   1  16
ATOM     15  C   UNL     1       1.832   8.525  17.909  0.00  0.00    +0.000 C 
ATOM     16  C   UNL     1       3.280   8.271  17.522  0.00  0.00    +0.000 C 
ENDBRANCH   1  16
BRANCH   5  17
ATOM     17  O   UNL     1       1.301   1.558  18.891  0.00  0.00    +0.000 OA
ATOM     18  H   UNL     1       1.453   0.804  18.291  0.00  0.00    +0.000 HD
ENDBRANCH   5  17
BRANCH   6  19
ATOM     19  O   UNL     1       3.876   0.572  18.350  0.00  0.00    +0.000 OA
ATOM     20  H   UNL     1       3.019   0.113  18.283  0.00  0.00    +0.000 HD
ENDBRANCH   6  19
TORSDOF 4
ENDMDL
MODEL 3
REMARK VINA RESULT:      -6.9      1.180      1.385
REMARK  Name = 
REMARK  5 active torsions:
REMARK  status: ('A' for Active; 'I' for Inactive)
REMARK    1  A    between atoms: C_1  and  C_2
REMARK    2  A    between atoms: C_2  and  C_3
REMARK    3  A    between atoms: C_7  and  O_8
REMARK    4  A    between atoms: C_9  and  O_10
REMARK    5  A    between atoms: C_13  and  N_14
REMARK                            x       y       z     vdW  Elec       q    Type
REMARK                         _______ _______ _______ _____ _____    ______ ____
ROOT
ATOM      1  C   UNL     1       2.347   5.586  20.004  0.00  0.00    +0.000 A 
ATOM      2  C   UNL     1       2.916   6.306  18.940  0.00  0.00    +0.000 A 
ATOM      3  C   UNL     1       3.796   5.729  18.026  0.00  0.00    +0.000 A 
ATOM      4  N   UNL     1       4.261   6.496  17.020  0.00  0.00    +0.000 NA
ATOM      5  C   UNL     1       5.114   5.891  16.181  0.00  0.00    +0.000 A 
ATOM      6  C   UNL     1       5.525   4.582  16.329  0.00  0.00    +0.000 A 
ATOM      7  N   UNL     1       5.074   3.812  17.333  0.00  0.00    +0.000 NA
ATOM      8  C   UNL     1       4.178   4.373  18.188  0.00  0.00    +0.000 A 
ATOM      9  C   UNL     1       3.584   3.669  19.239  0.00  0.00    +0.000 A 
ATOM     10  C   UNL     1       2.647   4.226  20.121  0.00  0.00    +0.000 A 
ATOM     11 CL   UNL     1       1.824   3.254  21.298  0.00  0.00    +0.000 Cl
ENDROOT
BRANCH   9  12
ATOM     12  N   UNL     1       4.012   2.310  19.441  0.00  0.00    +0.000 N 
ATOM     13  O   UNL     1       4.931   2.113  20.248  0.00  0.00    +0.000 OA
ATOM     14  O   UNL     1       3.454   1.446  18.751  0.00  0.00    +0.000 OA
ENDBRANCH   9  12
BRANCH   1  16
ATOM     15  C   UNL     1       1.491   7.837  20.801  0.00  0.00    +0.000 C 
ATOM     16  C   UNL     1       1.460   6.328  20.982  0.00  0.00    +0.000 C 
ENDBRANCH   1  16
BRANCH   5  17
ATOM     17  O   UNL     1       5.548   6.660  15.148  0.00  0.00    +0.000 OA
ATOM     18  H   UNL     1       5.220   6.144  14.388  0.00  0.00    +0.000 HD
ENDBRANCH   5  17
BRANCH   6  19
ATOM     19  O   UNL     1       6.397   3.999  15.458  0.00  0.00    +0.000 OA
ATOM     20  H   UNL     1       6.873   4.738  15.036  0.00  0.00    +0.000 HD
ENDBRANCH   6  19
TORSDOF 4
ENDMDL
MODEL 4
REMARK VINA RESULT:      -6.7      1.698      1.776
REMARK  Name = 
REMARK  5 active torsions:
REMARK  status: ('A' for Active; 'I' for Inactive)
REMARK    1  A    between atoms: C_1  and  C_2
REMARK    2  A    between atoms: C_2  and  C_3
REMARK    3  A    between atoms: C_7  and  O_8
REMARK    4  A    between atoms: C_9  and  O_10
REMARK    5  A    between atoms: C_13  and  N_14
REMARK                            x       y       z     vdW  Elec       q    Type
REMARK                         _______ _______ _______ _____ _____    ______ ____
ROOT
ATOM      1  C   UNL     1       2.572   6.542  19.175  0.00  0.00    +0.000 A 
ATOM      2  C   UNL     1       3.445   6.881  18.127  0.00  0.00    +0.000 A 
ATOM      3  C   UNL     1       4.150   5.925  17.397  0.00  0.00    +0.000 A 
ATOM      4  N   UNL     1       4.936   6.350  16.388  0.00  0.00    +0.000 NA
ATOM      5  C   UNL     1       5.600   5.389  15.730  0.00  0.00    +0.000 A 
ATOM      6  C   UNL     1       5.522   4.051  16.060  0.00  0.00    +0.000 A 
ATOM      7  N   UNL     1       4.747   3.618  17.068  0.00  0.00    +0.000 NA
ATOM      8  C   UNL     1       4.027   4.555  17.740  0.00  0.00    +0.000 A 
ATOM      9  C   UNL     1       3.137   4.238  18.770  0.00  0.00    +0.000 A 
ATOM     10  C   UNL     1       2.375   5.188  19.465  0.00  0.00    +0.000 A 
ATOM     11 CL   UNL     1       1.169   4.714  20.616  0.00  0.00    +0.000 Cl
ENDROOT
BRANCH   9  12
ATOM     12  N   UNL     1       3.054   2.855  19.161  0.00  0.00    +0.000 N 
ATOM     13  O   UNL     1       2.215   2.148  18.588  0.00  0.00    +0.000 OA
ATOM     14  O   UNL     1       3.803   2.494  20.080  0.00  0.00    +0.000 OA
ENDBRANCH   9  12
BRANCH   1  16
ATOM     15  C   UNL     1       1.555   8.865  19.094  0.00  0.00    +0.000 C 
ATOM     16  C   UNL     1       1.911   7.662  19.952  0.00  0.00    +0.000 C 
ENDBRANCH   1  16
BRANCH   5  17
ATOM     17  O   UNL     1       6.360   5.822  14.691  0.00  0.00    +0.000 OA
ATOM     18  H   UNL     1       6.935   5.045  14.551  0.00  0.00    +0.000 HD
ENDBRANCH   5  17
BRANCH   6  19
ATOM     19  O   UNL     1       6.214   3.099  15.370  0.00  0.00    +0.000 OA
ATOM     20  H   UNL     1       7.057   2.997  15.848  0.00  0.00    +0.000 HD
ENDBRANCH   6  19
TORSDOF 4
ENDMDL
MODEL 5
REMARK VINA RESULT:      -6.6      3.301      4.556
REMARK  Name = 
REMARK  5 active torsions:
REMARK  status: ('A' for Active; 'I' for Inactive)
REMARK    1  A    between atoms: C_1  and  C_2
REMARK    2  A    between atoms: C_2  and  C_3
REMARK    3  A    between atoms: C_7  and  O_8
REMARK    4  A    between atoms: C_9  and  O_10
REMARK    5  A    between atoms: C_13  and  N_14
REMARK                            x       y       z     vdW  Elec       q    Type
REMARK                         _______ _______ _______ _____ _____    ______ ____
ROOT
ATOM      1  C   UNL     1       4.288   4.117  17.314  0.00  0.00    +0.000 A 
ATOM      2  C   UNL     1       4.513   3.723  15.985  0.00  0.00    +0.000 A 
ATOM      3  C   UNL     1       5.579   4.205  15.226  0.00  0.00    +0.000 A 
ATOM      4  N   UNL     1       5.728   3.738  13.971  0.00  0.00    +0.000 NA
ATOM      5  C   UNL     1       6.762   4.248  13.286  0.00  0.00    +0.000 A 
ATOM      6  C   UNL     1       7.614   5.204  13.798  0.00  0.00    +0.000 A 
ATOM      7  N   UNL     1       7.470   5.681  15.045  0.00  0.00    +0.000 NA
ATOM      8  C   UNL     1       6.456   5.166  15.791  0.00  0.00    +0.000 A 
ATOM      9  C   UNL     1       6.228   5.527  17.121  0.00  0.00    +0.000 A 
ATOM     10  C   UNL     1       5.197   4.996  17.909  0.00  0.00    +0.000 A 
ATOM     11 CL   UNL     1       5.071   5.362  19.599  0.00  0.00    +0.000 Cl
ENDROOT
BRANCH   9  12
ATOM     12  N   UNL     1       7.080   6.545  17.678  0.00  0.00    +0.000 N 
ATOM     13  O   UNL     1       6.914   7.708  17.287  0.00  0.00    +0.000 OA
ATOM     14  O   UNL     1       7.949   6.163  18.474  0.00  0.00    +0.000 OA
ENDBRANCH   9  12
BRANCH   1  16
ATOM     15  C   UNL     1       1.790   4.358  17.688  0.00  0.00    +0.000 C 
ATOM     16  C   UNL     1       3.058   3.589  18.023  0.00  0.00    +0.000 C 
ENDBRANCH   1  16
BRANCH   5  17
ATOM     17  O   UNL     1       6.927   3.745  12.034  0.00  0.00    +0.000 OA
ATOM     18  H   UNL     1       6.289   4.290  11.535  0.00  0.00    +0.000 HD
ENDBRANCH   5  17
BRANCH   6  19
ATOM     19  O   UNL     1       8.655   5.703  13.071  0.00  0.00    +0.000 OA
ATOM     20  H   UNL     1       9.377   5.058  13.179  0.00  0.00    +0.000 HD
ENDBRANCH   6  19
TORSDOF 4
ENDMDL
MODEL 6
REMARK VINA RESULT:      -6.5      2.339      4.397
REMARK  Name = 
REMARK  5 active torsions:
REMARK  status: ('A' for Active; 'I' for Inactive)
REMARK    1  A    between atoms: C_1  and  C_2
REMARK    2  A    between atoms: C_2  and  C_3
REMARK    3  A    between atoms: C_7  and  O_8
REMARK    4  A    between atoms: C_9  and  O_10
REMARK    5  A    between atoms: C_13  and  N_14
REMARK                            x       y       z     vdW  Elec       q    Type
REMARK                         _______ _______ _______ _____ _____    ______ ____
ROOT
ATOM      1  C   UNL     1       3.533   6.676  18.083  0.00  0.00    +0.000 A 
ATOM      2  C   UNL     1       2.865   5.927  19.066  0.00  0.00    +0.000 A 
ATOM      3  C   UNL     1       3.397   4.761  19.615  0.00  0.00    +0.000 A 
ATOM      4  N   UNL     1       2.693   4.133  20.577  0.00  0.00    +0.000 NA
ATOM      5  C   UNL     1       3.247   3.011  21.058  0.00  0.00    +0.000 A 
ATOM      6  C   UNL     1       4.443   2.498  20.599  0.00  0.00    +0.000 A 
ATOM      7  N   UNL     1       5.149   3.112  19.635  0.00  0.00    +0.000 NA
ATOM      8  C   UNL     1       4.643   4.274  19.143  0.00  0.00    +0.000 A 
ATOM      9  C   UNL     1       5.301   5.046  18.182  0.00  0.00    +0.000 A 
ATOM     10  C   UNL     1       4.802   6.254  17.674  0.00  0.00    +0.000 A 
ATOM     11 CL   UNL     1       5.744   7.245  16.609  0.00  0.00    +0.000 Cl
ENDROOT
BRANCH   9  12
ATOM     12  N   UNL     1       6.536   4.525  17.659  0.00  0.00    +0.000 N 
ATOM     13  O   UNL     1       7.560   4.688  18.336  0.00  0.00    +0.000 OA
ATOM     14  O   UNL     1       6.482   3.993  16.541  0.00  0.00    +0.000 OA
ENDBRANCH   9  12
BRANCH   1  16
ATOM     15  C   UNL     1       1.899   8.575  18.482  0.00  0.00    +0.000 C 
ATOM     16  C   UNL     1       2.833   7.887  17.500  0.00  0.00    +0.000 C 
ENDBRANCH   1  16
BRANCH   5  17
ATOM     17  O   UNL     1       2.549   2.405  22.054  0.00  0.00    +0.000 OA
ATOM     18  H   UNL     1       2.298   3.178  22.595  0.00  0.00    +0.000 HD
ENDBRANCH   5  17
BRANCH   6  19
ATOM     19  O   UNL     1       4.977   1.351  21.110  0.00  0.00    +0.000 OA
ATOM     20  H   UNL     1       5.328   0.867  20.341  0.00  0.00    +0.000 HD
ENDBRANCH   6  19
TORSDOF 4
ENDMDL
MODEL 7
REMARK VINA RESULT:      -6.4      1.249      1.372
REMARK  Name = 
REMARK  5 active torsions:
REMARK  status: ('A' for Active; 'I' for Inactive)
REMARK    1  A    between atoms: C_1  and  C_2
REMARK    2  A    between atoms: C_2  and  C_3
REMARK    3  A    between atoms: C_7  and  O_8
REMARK    4  A    between atoms: C_9  and  O_10
REMARK    5  A    between atoms: C_13  and  N_14
REMARK                            x       y       z     vdW  Elec       q    Type
REMARK                         _______ _______ _______ _____ _____    ______ ____
ROOT
ATOM      1  C   UNL     1       2.329   5.519  19.762  0.00  0.00    +0.000 A 
ATOM      2  C   UNL     1       3.384   6.238  19.176  0.00  0.00    +0.000 A 
ATOM      3  C   UNL     1       4.238   5.682  18.224  0.00  0.00    +0.000 A 
ATOM      4  N   UNL     1       5.199   6.467  17.697  0.00  0.00    +0.000 NA
ATOM      5  C   UNL     1       5.997   5.874  16.797  0.00  0.00    +0.000 A 
ATOM      6  C   UNL     1       5.881   4.547  16.437  0.00  0.00    +0.000 A 
ATOM      7  N   UNL     1       4.932   3.755  16.963  0.00  0.00    +0.000 NA
ATOM      8  C   UNL     1       4.076   4.323  17.853  0.00  0.00    +0.000 A 
ATOM      9  C   UNL     1       3.008   3.632  18.430  0.00  0.00    +0.000 A 
ATOM     10  C   UNL     1       2.106   4.205  19.338  0.00  0.00    +0.000 A 
ATOM     11 CL   UNL     1       0.706   3.343  19.889  0.00  0.00    +0.000 Cl
ENDROOT
BRANCH   9  12
ATOM     12  N   UNL     1       2.876   2.237  18.100  0.00  0.00    +0.000 N 
ATOM     13  O   UNL     1       2.131   1.940  17.158  0.00  0.00    +0.000 OA
ATOM     14  O   UNL     1       3.487   1.438  18.824  0.00  0.00    +0.000 OA
ENDBRANCH   9  12
BRANCH   1  16
ATOM     15  C   UNL     1       1.542   7.713  20.762  0.00  0.00    +0.000 C 
ATOM     16  C   UNL     1       1.508   6.195  20.840  0.00  0.00    +0.000 C 
ENDBRANCH   1  16
BRANCH   5  17
ATOM     17  O   UNL     1       6.938   6.682  16.243  0.00  0.00    +0.000 OA
ATOM     18  H   UNL     1       7.413   6.044  15.676  0.00  0.00    +0.000 HD
ENDBRANCH   5  17
BRANCH   6  19
ATOM     19  O   UNL     1       6.714   3.976  15.520  0.00  0.00    +0.000 OA
ATOM     20  H   UNL     1       7.614   4.119  15.864  0.00  0.00    +0.000 HD
ENDBRANCH   6  19
TORSDOF 4
ENDMDL
MODEL 8
REMARK VINA RESULT:      -6.1      3.119      5.471
REMARK  Name = 
REMARK  5 active torsions:
REMARK  status: ('A' for Active; 'I' for Inactive)
REMARK    1  A    between atoms: C_1  and  C_2
REMARK    2  A    between atoms: C_2  and  C_3
REMARK    3  A    between atoms: C_7  and  O_8
REMARK    4  A    between atoms: C_9  and  O_10
REMARK    5  A    between atoms: C_13  and  N_14
REMARK                            x       y       z     vdW  Elec       q    Type
REMARK                         _______ _______ _______ _____ _____    ______ ____
ROOT
ATOM      1  C   UNL     1       5.282   4.530  15.712  0.00  0.00    +0.000 A 
ATOM      2  C   UNL     1       4.212   3.732  16.147  0.00  0.00    +0.000 A 
ATOM      3  C   UNL     1       4.055   3.342  17.476  0.00  0.00    +0.000 A 
ATOM      4  N   UNL     1       2.975   2.604  17.799  0.00  0.00    +0.000 NA
ATOM      5  C   UNL     1       2.884   2.247  19.088  0.00  0.00    +0.000 A 
ATOM      6  C   UNL     1       3.832   2.576  20.035  0.00  0.00    +0.000 A 
ATOM      7  N   UNL     1       4.917   3.305  19.723  0.00  0.00    +0.000 NA
ATOM      8  C   UNL     1       5.031   3.721  18.433  0.00  0.00    +0.000 A 
ATOM      9  C   UNL     1       6.076   4.533  17.984  0.00  0.00    +0.000 A 
ATOM     10  C   UNL     1       6.203   4.984  16.662  0.00  0.00    +0.000 A 
ATOM     11 CL   UNL     1       7.428   6.123  16.209  0.00  0.00    +0.000 Cl
ENDROOT
BRANCH   9  12
ATOM     12  N   UNL     1       7.099   4.871  18.939  0.00  0.00    +0.000 N 
ATOM     13  O   UNL     1       6.771   5.571  19.905  0.00  0.00    +0.000 OA
ATOM     14  O   UNL     1       8.244   4.469  18.687  0.00  0.00    +0.000 OA
ENDBRANCH   9  12
BRANCH   1  16
ATOM     15  C   UNL     1       6.242   3.826  13.472  0.00  0.00    +0.000 C 
ATOM     16  C   UNL     1       5.398   4.836  14.233  0.00  0.00    +0.000 C 
ENDBRANCH   1  16
BRANCH   5  17
ATOM     17  O   UNL     1       1.773   1.535  19.412  0.00  0.00    +0.000 OA
ATOM     18  H   UNL     1       1.990   1.266  20.325  0.00  0.00    +0.000 HD
ENDBRANCH   5  17
BRANCH   6  19
ATOM     19  O   UNL     1       3.710   2.194  21.339  0.00  0.00    +0.000 OA
ATOM     20  H   UNL     1       2.848   2.542  21.630  0.00  0.00    +0.000 HD
ENDBRANCH   6  19
TORSDOF 4
ENDMDL
MODEL 9
REMARK VINA RESULT:      -6.0      1.404      1.683
REMARK  Name = 
REMARK  5 active torsions:
REMARK  status: ('A' for Active; 'I' for Inactive)
REMARK    1  A    between atoms: C_1  and  C_2
REMARK    2  A    between atoms: C_2  and  C_3
REMARK    3  A    between atoms: C_7  and  O_8
REMARK    4  A    between atoms: C_9  and  O_10
REMARK    5  A    between atoms: C_13  and  N_14
REMARK                            x       y       z     vdW  Elec       q    Type
REMARK                         _______ _______ _______ _____ _____    ______ ____
ROOT
ATOM      1  C   UNL     1       2.579   6.663  18.538  0.00  0.00    +0.000 A 
ATOM      2  C   UNL     1       3.750   7.181  17.960  0.00  0.00    +0.000 A 
ATOM      3  C   UNL     1       4.875   6.396  17.707  0.00  0.00    +0.000 A 
ATOM      4  N   UNL     1       5.937   6.980  17.117  0.00  0.00    +0.000 NA
ATOM      5  C   UNL     1       6.993   6.180  16.911  0.00  0.00    +0.000 A 
ATOM      6  C   UNL     1       7.027   4.854  17.292  0.00  0.00    +0.000 A 
ATOM      7  N   UNL     1       5.977   4.265  17.888  0.00  0.00    +0.000 NA
ATOM      8  C   UNL     1       4.869   5.029  18.083  0.00  0.00    +0.000 A 
ATOM      9  C   UNL     1       3.688   4.529  18.637  0.00  0.00    +0.000 A 
ATOM     10  C   UNL     1       2.531   5.297  18.832  0.00  0.00    +0.000 A 
ATOM     11 CL   UNL     1       1.048   4.577  19.368  0.00  0.00    +0.000 Cl
ENDROOT
BRANCH   9  12
ATOM     12  N   UNL     1       3.698   3.158  19.073  0.00  0.00    +0.000 N 
ATOM     13  O   UNL     1       4.077   2.928  20.229  0.00  0.00    +0.000 OA
ATOM     14  O   UNL     1       3.369   2.308  18.233  0.00  0.00    +0.000 OA
ENDBRANCH   9  12
BRANCH   1  16
ATOM     15  C   UNL     1       1.476   8.882  17.993  0.00  0.00    +0.000 C 
ATOM     16  C   UNL     1       1.441   7.618  18.837  0.00  0.00    +0.000 C 
ENDBRANCH   1  16
BRANCH   5  17
ATOM     17  O   UNL     1       8.045   6.767  16.282  0.00  0.00    +0.000 OA
ATOM     18  H   UNL     1       7.779   6.662  15.349  0.00  0.00    +0.000 HD
ENDBRANCH   5  17
BRANCH   6  19
ATOM     19  O   UNL     1       8.121   4.070  17.070  0.00  0.00    +0.000 OA
ATOM     20  H   UNL     1       8.429   4.305  16.176  0.00  0.00    +0.000 HD
ENDBRANCH   6  19
TORSDOF 4
ENDMDL
