MODEL 1
REMARK VINA RESULT:      -7.7      0.000      0.000
REMARK  Name = 
REMARK  5 active torsions:
REMARK  status: ('A' for Active; 'I' for Inactive)
REMARK    1  A    between atoms: C_1  and  C_2
REMARK    2  A    between atoms: C_4  and  C_5
REMARK    3  A    between atoms: C_7  and  N_8
REMARK    4  A    between atoms: C_9  and  C_11
REMARK    5  A    between atoms: N_14  and  C_15
REMARK                            x       y       z     vdW  Elec       q    Type
REMARK                         _______ _______ _______ _____ _____    ______ ____
ROOT
ATOM      1  N   UNL     1       4.155   7.219  17.393  0.00  0.00    +0.000 N 
ATOM      2  C   UNL     1       2.942   6.914  17.998  0.00  0.00    +0.000 C 
ATOM      3  O   UNL     1       2.506   5.783  18.207  0.00  0.00    +0.000 OA
ATOM      4  H   UNL     1       4.394   8.206  17.389  0.00  0.00    +0.000 HD
ENDROOT
BRANCH   1  11
ATOM      5  C   UNL     1       8.226   4.554  18.258  0.00  0.00    +0.000 C 
ATOM      6  C   UNL     1       7.113   4.972  17.340  0.00  0.00    +0.000 A 
ATOM      7  C   UNL     1       7.003   4.403  16.064  0.00  0.00    +0.000 A 
ATOM      8  C   UNL     1       5.962   4.778  15.209  0.00  0.00    +0.000 A 
ATOM      9  C   UNL     1       5.817   4.191  13.837  0.00  0.00    +0.000 C 
ATOM     10  C   UNL     1       5.027   5.721  15.646  0.00  0.00    +0.000 A 
ATOM     11  C   UNL     1       5.107   6.294  16.916  0.00  0.00    +0.000 A 
ATOM     12  C   UNL     1       6.168   5.928  17.754  0.00  0.00    +0.000 A 
ENDBRANCH   1  11
BRANCH   2  13
ATOM     13  C   UNL     1       2.200   8.106  18.459  0.00  0.00    +0.000 A 
ATOM     14  N   UNL     1       1.771   9.092  17.599  0.00  0.00    +0.000 NA
ATOM     15  C   UNL     1       1.061   9.879  18.366  0.00  0.00    +0.000 A 
ATOM     16  N   UNL     1       1.049   9.408  19.652  0.00  0.00    +0.000 N 
ATOM     17  N   UNL     1       1.832   8.299  19.742  0.00  0.00    +0.000 NA
BRANCH  16  18
ATOM     18  C   UNL     1       0.327   9.909  20.764  0.00  0.00    +0.000 A 
ATOM     19  C   UNL     1       0.232   9.170  21.952  0.00  0.00    +0.000 A 
ATOM     20  C   UNL     1      -0.465   9.693  23.042  0.00  0.00    +0.000 A 
ATOM     21  C   UNL     1      -1.076  10.943  22.950  0.00  0.00    +0.000 A 
ATOM     22  C   UNL     1      -0.983  11.680  21.771  0.00  0.00    +0.000 A 
ATOM     23  C   UNL     1      -0.278  11.172  20.681  0.00  0.00    +0.000 A 
ENDBRANCH  16  18
ENDBRANCH   2  13
TORSDOF 3
ENDMDL
MODEL 2
REMARK VINA RESULT:      -7.7      0.076      1.034
REMARK  Name = 
REMARK  5 active torsions:
REMARK  status: ('A' for Active; 'I' for Inactive)
REMARK    1  A    between atoms: C_1  and  C_2
REMARK    2  A    between atoms: C_4  and  C_5
REMARK    3  A    between atoms: C_7  and  N_8
REMARK    4  A    between atoms: C_9  and  C_11
REMARK    5  A    between atoms: N_14  and  C_15
REMARK                            x       y       z     vdW  Elec       q    Type
REMARK                         _______ _______ _______ _____ _____    ______ ____
ROOT
ATOM      1  N   UNL     1       4.111   7.228  17.373  0.00  0.00    +0.000 N 
ATOM      2  C   UNL     1       2.944   6.929  18.066  0.00  0.00    +0.000 C 
ATOM      3  O   UNL     1       2.557   5.802  18.370  0.00  0.00    +0.000 OA
ATOM      4  H   UNL     1       4.319   8.219  17.293  0.00  0.00    +0.000 HD
ENDROOT
BRANCH   1  11
ATOM      5  C   UNL     1       8.187   4.573  18.248  0.00  0.00    +0.000 C 
ATOM      6  C   UNL     1       7.071   4.984  17.329  0.00  0.00    +0.000 A 
ATOM      7  C   UNL     1       6.959   4.406  16.057  0.00  0.00    +0.000 A 
ATOM      8  C   UNL     1       5.916   4.774  15.202  0.00  0.00    +0.000 A 
ATOM      9  C   UNL     1       5.769   4.177  13.834  0.00  0.00    +0.000 C 
ATOM     10  C   UNL     1       4.981   5.719  15.635  0.00  0.00    +0.000 A 
ATOM     11  C   UNL     1       5.063   6.301  16.900  0.00  0.00    +0.000 A 
ATOM     12  C   UNL     1       6.127   5.942  17.738  0.00  0.00    +0.000 A 
ENDBRANCH   1  11
BRANCH   2  13
ATOM     13  C   UNL     1       2.193   8.128  18.493  0.00  0.00    +0.000 A 
ATOM     14  N   UNL     1       1.757   9.087  17.606  0.00  0.00    +0.000 NA
ATOM     15  C   UNL     1       1.040   9.889  18.352  0.00  0.00    +0.000 A 
ATOM     16  N   UNL     1       1.030   9.452  19.650  0.00  0.00    +0.000 N 
ATOM     17  N   UNL     1       1.822   8.353  19.770  0.00  0.00    +0.000 NA
BRANCH  16  18
ATOM     18  C   UNL     1       0.303   9.978  20.747  0.00  0.00    +0.000 A 
ATOM     19  C   UNL     1      -0.395  11.188  20.633  0.00  0.00    +0.000 A 
ATOM     20  C   UNL     1      -1.122  11.676  21.720  0.00  0.00    +0.000 A 
ATOM     21  C   UNL     1      -1.148  10.969  22.922  0.00  0.00    +0.000 A 
ATOM     22  C   UNL     1      -0.455   9.764  23.037  0.00  0.00    +0.000 A 
ATOM     23  C   UNL     1       0.263   9.263  21.954  0.00  0.00    +0.000 A 
ENDBRANCH  16  18
ENDBRANCH   2  13
TORSDOF 3
ENDMDL
MODEL 3
REMARK VINA RESULT:      -7.6      0.120      1.842
REMARK  Name = 
REMARK  5 active torsions:
REMARK  status: ('A' for Active; 'I' for Inactive)
REMARK    1  A    between atoms: C_1  and  C_2
REMARK    2  A    between atoms: C_4  and  C_5
REMARK    3  A    between atoms: C_7  and  N_8
REMARK    4  A    between atoms: C_9  and  C_11
REMARK    5  A    between atoms: N_14  and  C_15
REMARK                            x       y       z     vdW  Elec       q    Type
REMARK                         _______ _______ _______ _____ _____    ______ ____
ROOT
ATOM      1  N   UNL     1       4.139   7.153  17.501  0.00  0.00    +0.000 N 
ATOM      2  C   UNL     1       2.926   6.865  18.114  0.00  0.00    +0.000 C 
ATOM      3  O   UNL     1       2.498   5.741  18.371  0.00  0.00    +0.000 OA
ATOM      4  H   UNL     1       4.371   8.140  17.453  0.00  0.00    +0.000 HD
ENDROOT
BRANCH   1  11
ATOM      5  C   UNL     1       5.815   4.202  13.908  0.00  0.00    +0.000 C 
ATOM      6  C   UNL     1       5.934   4.761  15.297  0.00  0.00    +0.000 A 
ATOM      7  C   UNL     1       7.014   4.394  16.112  0.00  0.00    +0.000 A 
ATOM      8  C   UNL     1       7.139   4.920  17.401  0.00  0.00    +0.000 A 
ATOM      9  C   UNL     1       8.280   4.546  18.299  0.00  0.00    +0.000 C 
ATOM     10  C   UNL     1       6.178   5.824  17.864  0.00  0.00    +0.000 A 
ATOM     11  C   UNL     1       5.100   6.215  17.069  0.00  0.00    +0.000 A 
ATOM     12  C   UNL     1       4.973   5.661  15.789  0.00  0.00    +0.000 A 
ENDBRANCH   1  11
BRANCH   2  13
ATOM     13  C   UNL     1       2.173   8.071  18.519  0.00  0.00    +0.000 A 
ATOM     14  N   UNL     1       1.744   9.016  17.614  0.00  0.00    +0.000 NA
ATOM     15  C   UNL     1       1.023   9.831  18.342  0.00  0.00    +0.000 A 
ATOM     16  N   UNL     1       1.004   9.414  19.647  0.00  0.00    +0.000 N 
ATOM     17  N   UNL     1       1.794   8.316  19.789  0.00  0.00    +0.000 NA
BRANCH  16  18
ATOM     18  C   UNL     1       0.271   9.957  20.732  0.00  0.00    +0.000 A 
ATOM     19  C   UNL     1       0.195   9.282  21.958  0.00  0.00    +0.000 A 
ATOM     20  C   UNL     1      -0.515   9.845  23.019  0.00  0.00    +0.000 A 
ATOM     21  C   UNL     1      -1.156  11.073  22.861  0.00  0.00    +0.000 A 
ATOM     22  C   UNL     1      -1.081  11.748  21.643  0.00  0.00    +0.000 A 
ATOM     23  C   UNL     1      -0.365  11.199  20.582  0.00  0.00    +0.000 A 
ENDBRANCH  16  18
ENDBRANCH   2  13
TORSDOF 3
ENDMDL
MODEL 4
REMARK VINA RESULT:      -7.4      0.279      2.125
REMARK  Name = 
REMARK  5 active torsions:
REMARK  status: ('A' for Active; 'I' for Inactive)
REMARK    1  A    between atoms: C_1  and  C_2
REMARK    2  A    between atoms: C_4  and  C_5
REMARK    3  A    between atoms: C_7  and  N_8
REMARK    4  A    between atoms: C_9  and  C_11
REMARK    5  A    between atoms: N_14  and  C_15
REMARK                            x       y       z     vdW  Elec       q    Type
REMARK                         _______ _______ _______ _____ _____    ______ ____
ROOT
ATOM      1  N   UNL     1       4.067   7.123  17.604  0.00  0.00    +0.000 N 
ATOM      2  C   UNL     1       2.979   6.846  18.422  0.00  0.00    +0.000 C 
ATOM      3  O   UNL     1       2.692   5.745  18.889  0.00  0.00    +0.000 OA
ATOM      4  H   UNL     1       4.201   8.106  17.389  0.00  0.00    +0.000 HD
ENDROOT
BRANCH   1  11
ATOM      5  C   UNL     1       5.775   4.199  14.003  0.00  0.00    +0.000 C 
ATOM      6  C   UNL     1       5.891   4.760  15.392  0.00  0.00    +0.000 A 
ATOM      7  C   UNL     1       6.980   4.410  16.203  0.00  0.00    +0.000 A 
ATOM      8  C   UNL     1       7.102   4.938  17.492  0.00  0.00    +0.000 A 
ATOM      9  C   UNL     1       8.252   4.582  18.385  0.00  0.00    +0.000 C 
ATOM     10  C   UNL     1       6.129   5.826  17.959  0.00  0.00    +0.000 A 
ATOM     11  C   UNL     1       5.042   6.200  17.168  0.00  0.00    +0.000 A 
ATOM     12  C   UNL     1       4.918   5.645  15.888  0.00  0.00    +0.000 A 
ENDBRANCH   1  11
BRANCH   2  13
ATOM     13  C   UNL     1       2.183   8.043  18.764  0.00  0.00    +0.000 A 
ATOM     14  N   UNL     1       1.711   8.918  17.811  0.00  0.00    +0.000 NA
ATOM     15  C   UNL     1       0.964   9.744  18.498  0.00  0.00    +0.000 A 
ATOM     16  N   UNL     1       0.970   9.402  19.825  0.00  0.00    +0.000 N 
ATOM     17  N   UNL     1       1.803   8.345  20.022  0.00  0.00    +0.000 NA
BRANCH  16  18
ATOM     18  C   UNL     1       0.224   9.978  20.883  0.00  0.00    +0.000 A 
ATOM     19  C   UNL     1      -0.468  11.183  20.702  0.00  0.00    +0.000 A 
ATOM     20  C   UNL     1      -1.215  11.721  21.752  0.00  0.00    +0.000 A 
ATOM     21  C   UNL     1      -1.266  11.068  22.983  0.00  0.00    +0.000 A 
ATOM     22  C   UNL     1      -0.579   9.868  23.165  0.00  0.00    +0.000 A 
ATOM     23  C   UNL     1       0.159   9.318  22.120  0.00  0.00    +0.000 A 
ENDBRANCH  16  18
ENDBRANCH   2  13
TORSDOF 3
ENDMDL
MODEL 5
REMARK VINA RESULT:      -7.4      1.815      8.609
REMARK  Name = 
REMARK  5 active torsions:
REMARK  status: ('A' for Active; 'I' for Inactive)
REMARK    1  A    between atoms: C_1  and  C_2
REMARK    2  A    between atoms: C_4  and  C_5
REMARK    3  A    between atoms: C_7  and  N_8
REMARK    4  A    between atoms: C_9  and  C_11
REMARK    5  A    between atoms: N_14  and  C_15
REMARK                            x       y       z     vdW  Elec       q    Type
REMARK                         _______ _______ _______ _____ _____    ______ ____
ROOT
ATOM      1  N   UNL     1       2.381   7.455  19.859  0.00  0.00    +0.000 N 
ATOM      2  C   UNL     1       2.292   6.081  20.041  0.00  0.00    +0.000 C 
ATOM      3  O   UNL     1       1.398   5.491  20.646  0.00  0.00    +0.000 OA
ATOM      4  H   UNL     1       3.138   7.758  19.253  0.00  0.00    +0.000 HD
ENDROOT
BRANCH   1  11
ATOM      5  C   UNL     1      -0.770  11.111  18.797  0.00  0.00    +0.000 C 
ATOM      6  C   UNL     1      -0.097  10.222  19.804  0.00  0.00    +0.000 A 
ATOM      7  C   UNL     1      -0.428  10.322  21.163  0.00  0.00    +0.000 A 
ATOM      8  C   UNL     1       0.185   9.488  22.103  0.00  0.00    +0.000 A 
ATOM      9  C   UNL     1      -0.144   9.572  23.564  0.00  0.00    +0.000 C 
ATOM     10  C   UNL     1       1.125   8.549  21.671  0.00  0.00    +0.000 A 
ATOM     11  C   UNL     1       1.463   8.421  20.323  0.00  0.00    +0.000 A 
ATOM     12  C   UNL     1       0.861   9.278  19.394  0.00  0.00    +0.000 A 
ENDBRANCH   1  11
BRANCH   2  13
ATOM     13  C   UNL     1       3.371   5.329  19.367  0.00  0.00    +0.000 A 
ATOM     14  N   UNL     1       3.796   4.092  19.799  0.00  0.00    +0.000 NA
ATOM     15  C   UNL     1       4.649   3.723  18.877  0.00  0.00    +0.000 A 
ATOM     16  N   UNL     1       4.755   4.689  17.911  0.00  0.00    +0.000 N 
ATOM     17  N   UNL     1       3.985   5.759  18.246  0.00  0.00    +0.000 NA
BRANCH  16  18
ATOM     18  C   UNL     1       5.493   4.644  16.702  0.00  0.00    +0.000 A 
ATOM     19  C   UNL     1       4.878   4.269  15.499  0.00  0.00    +0.000 A 
ATOM     20  C   UNL     1       5.619   4.252  14.316  0.00  0.00    +0.000 A 
ATOM     21  C   UNL     1       6.970   4.598  14.328  0.00  0.00    +0.000 A 
ATOM     22  C   UNL     1       7.583   4.973  15.523  0.00  0.00    +0.000 A 
ATOM     23  C   UNL     1       6.849   5.004  16.707  0.00  0.00    +0.000 A 
ENDBRANCH  16  18
ENDBRANCH   2  13
TORSDOF 3
ENDMDL
MODEL 6
REMARK VINA RESULT:      -7.4      4.932      7.513
REMARK  Name = 
REMARK  5 active torsions:
REMARK  status: ('A' for Active; 'I' for Inactive)
REMARK    1  A    between atoms: C_1  and  C_2
REMARK    2  A    between atoms: C_4  and  C_5
REMARK    3  A    between atoms: C_7  and  N_8
REMARK    4  A    between atoms: C_9  and  C_11
REMARK    5  A    between atoms: N_14  and  C_15
REMARK                            x       y       z     vdW  Elec       q    Type
REMARK                         _______ _______ _______ _____ _____    ______ ____
ROOT
ATOM      1  N   UNL     1       8.159   9.156  17.873  0.00  0.00    +0.000 N 
ATOM      2  C   UNL     1       8.124   7.826  18.274  0.00  0.00    +0.000 C 
ATOM      3  O   UNL     1       8.795   7.330  19.178  0.00  0.00    +0.000 OA
ATOM      4  H   UNL     1       7.468   9.409  17.172  0.00  0.00    +0.000 HD
ENDROOT
BRANCH   1  11
ATOM      5  C   UNL     1      11.540  12.694  17.183  0.00  0.00    +0.000 C 
ATOM      6  C   UNL     1      10.623  11.927  18.093  0.00  0.00    +0.000 A 
ATOM      7  C   UNL     1      10.532  12.269  19.450  0.00  0.00    +0.000 A 
ATOM      8  C   UNL     1       9.671  11.567  20.300  0.00  0.00    +0.000 A 
ATOM      9  C   UNL     1       9.552  11.905  21.756  0.00  0.00    +0.000 C 
ATOM     10  C   UNL     1       8.896  10.528  19.778  0.00  0.00    +0.000 A 
ATOM     11  C   UNL     1       8.959  10.176  18.429  0.00  0.00    +0.000 A 
ATOM     12  C   UNL     1       9.843  10.870  17.594  0.00  0.00    +0.000 A 
ENDBRANCH   1  11
BRANCH   2  13
ATOM     13  C   UNL     1       7.125   7.019  17.544  0.00  0.00    +0.000 A 
ATOM     14  N   UNL     1       7.390   6.431  16.327  0.00  0.00    +0.000 NA
ATOM     15  C   UNL     1       6.318   5.718  16.092  0.00  0.00    +0.000 A 
ATOM     16  N   UNL     1       5.418   5.857  17.116  0.00  0.00    +0.000 N 
ATOM     17  N   UNL     1       5.898   6.743  18.030  0.00  0.00    +0.000 NA
BRANCH  16  18
ATOM     18  C   UNL     1       4.182   5.188  17.296  0.00  0.00    +0.000 A 
ATOM     19  C   UNL     1       4.023   3.853  16.898  0.00  0.00    +0.000 A 
ATOM     20  C   UNL     1       2.803   3.207  17.104  0.00  0.00    +0.000 A 
ATOM     21  C   UNL     1       1.739   3.888  17.695  0.00  0.00    +0.000 A 
ATOM     22  C   UNL     1       1.896   5.215  18.093  0.00  0.00    +0.000 A 
ATOM     23  C   UNL     1       3.113   5.864  17.902  0.00  0.00    +0.000 A 
ENDBRANCH  16  18
ENDBRANCH   2  13
TORSDOF 3
ENDMDL
MODEL 7
REMARK VINA RESULT:      -7.4      2.275      4.193
REMARK  Name = 
REMARK  5 active torsions:
REMARK  status: ('A' for Active; 'I' for Inactive)
REMARK    1  A    between atoms: C_1  and  C_2
REMARK    2  A    between atoms: C_4  and  C_5
REMARK    3  A    between atoms: C_7  and  N_8
REMARK    4  A    between atoms: C_9  and  C_11
REMARK    5  A    between atoms: N_14  and  C_15
REMARK                            x       y       z     vdW  Elec       q    Type
REMARK                         _______ _______ _______ _____ _____    ______ ____
ROOT
ATOM      1  N   UNL     1       5.016   4.907  15.682  0.00  0.00    +0.000 N 
ATOM      2  C   UNL     1       5.437   4.741  16.995  0.00  0.00    +0.000 C 
ATOM      3  O   UNL     1       6.538   4.323  17.350  0.00  0.00    +0.000 OA
ATOM      4  H   UNL     1       4.109   5.352  15.577  0.00  0.00    +0.000 HD
ENDROOT
BRANCH   1  11
ATOM      5  C   UNL     1       5.523   2.310  11.507  0.00  0.00    +0.000 C 
ATOM      6  C   UNL     1       6.023   3.361  12.457  0.00  0.00    +0.000 A 
ATOM      7  C   UNL     1       7.183   4.088  12.154  0.00  0.00    +0.000 A 
ATOM      8  C   UNL     1       7.647   5.077  13.028  0.00  0.00    +0.000 A 
ATOM      9  C   UNL     1       8.885   5.870  12.735  0.00  0.00    +0.000 C 
ATOM     10  C   UNL     1       6.935   5.337  14.202  0.00  0.00    +0.000 A 
ATOM     11  C   UNL     1       5.771   4.637  14.521  0.00  0.00    +0.000 A 
ATOM     12  C   UNL     1       5.331   3.632  13.650  0.00  0.00    +0.000 A 
ENDBRANCH   1  11
BRANCH   2  13
ATOM     13  C   UNL     1       4.441   5.186  17.991  0.00  0.00    +0.000 A 
ATOM     14  N   UNL     1       4.253   4.541  19.193  0.00  0.00    +0.000 NA
ATOM     15  C   UNL     1       3.398   5.308  19.821  0.00  0.00    +0.000 A 
ATOM     16  N   UNL     1       3.063   6.386  19.044  0.00  0.00    +0.000 N 
ATOM     17  N   UNL     1       3.679   6.288  17.835  0.00  0.00    +0.000 NA
BRANCH  16  18
ATOM     18  C   UNL     1       2.247   7.493  19.384  0.00  0.00    +0.000 A 
ATOM     19  C   UNL     1       1.986   8.506  18.451  0.00  0.00    +0.000 A 
ATOM     20  C   UNL     1       1.162   9.577  18.800  0.00  0.00    +0.000 A 
ATOM     21  C   UNL     1       0.606   9.648  20.077  0.00  0.00    +0.000 A 
ATOM     22  C   UNL     1       0.864   8.641  21.007  0.00  0.00    +0.000 A 
ATOM     23  C   UNL     1       1.675   7.562  20.664  0.00  0.00    +0.000 A 
ENDBRANCH  16  18
ENDBRANCH   2  13
TORSDOF 3
ENDMDL
MODEL 8
REMARK VINA RESULT:      -7.3      1.838      8.569
REMARK  Name = 
REMARK  5 active torsions:
REMARK  status: ('A' for Active; 'I' for Inactive)
REMARK    1  A    between atoms: C_1  and  C_2
REMARK    2  A    between atoms: C_4  and  C_5
REMARK    3  A    between atoms: C_7  and  N_8
REMARK    4  A    between atoms: C_9  and  C_11
REMARK    5  A    between atoms: N_14  and  C_15
REMARK                            x       y       z     vdW  Elec       q    Type
REMARK                         _______ _______ _______ _____ _____    ______ ____
ROOT
ATOM      1  N   UNL     1       2.299   7.427  19.659  0.00  0.00    +0.000 N 
ATOM      2  C   UNL     1       2.255   6.080  19.996  0.00  0.00    +0.000 C 
ATOM      3  O   UNL     1       1.459   5.558  20.775  0.00  0.00    +0.000 OA
ATOM      4  H   UNL     1       2.962   7.664  18.928  0.00  0.00    +0.000 HD
ENDROOT
BRANCH   1  11
ATOM      5  C   UNL     1      -0.563  11.334  18.672  0.00  0.00    +0.000 C 
ATOM      6  C   UNL     1       0.021  10.362  19.657  0.00  0.00    +0.000 A 
ATOM      7  C   UNL     1      -0.337  10.433  21.011  0.00  0.00    +0.000 A 
ATOM      8  C   UNL     1       0.192   9.523  21.932  0.00  0.00    +0.000 A 
ATOM      9  C   UNL     1      -0.168   9.574  23.386  0.00  0.00    +0.000 C 
ATOM     10  C   UNL     1       1.075   8.537  21.484  0.00  0.00    +0.000 A 
ATOM     11  C   UNL     1       1.438   8.437  20.140  0.00  0.00    +0.000 A 
ATOM     12  C   UNL     1       0.921   9.369  19.232  0.00  0.00    +0.000 A 
ENDBRANCH   1  11
BRANCH   2  13
ATOM     13  C   UNL     1       3.243   5.261  19.263  0.00  0.00    +0.000 A 
ATOM     14  N   UNL     1       3.412   3.915  19.499  0.00  0.00    +0.000 NA
ATOM     15  C   UNL     1       4.265   3.548  18.576  0.00  0.00    +0.000 A 
ATOM     16  N   UNL     1       4.617   4.619  17.798  0.00  0.00    +0.000 N 
ATOM     17  N   UNL     1       4.015   5.744  18.269  0.00  0.00    +0.000 NA
BRANCH  16  18
ATOM     18  C   UNL     1       5.437   4.633  16.642  0.00  0.00    +0.000 A 
ATOM     19  C   UNL     1       6.765   5.076  16.709  0.00  0.00    +0.000 A 
ATOM     20  C   UNL     1       7.561   5.061  15.562  0.00  0.00    +0.000 A 
ATOM     21  C   UNL     1       7.036   4.617  14.349  0.00  0.00    +0.000 A 
ATOM     22  C   UNL     1       5.715   4.175  14.281  0.00  0.00    +0.000 A 
ATOM     23  C   UNL     1       4.917   4.175  15.422  0.00  0.00    +0.000 A 
ENDBRANCH  16  18
ENDBRANCH   2  13
TORSDOF 3
ENDMDL
MODEL 9
REMARK VINA RESULT:      -7.3      4.944      7.563
REMARK  Name = 
REMARK  5 active torsions:
REMARK  status: ('A' for Active; 'I' for Inactive)
REMARK    1  A    between atoms: C_1  and  C_2
REMARK    2  A    between atoms: C_4  and  C_5
REMARK    3  A    between atoms: C_7  and  N_8
REMARK    4  A    between atoms: C_9  and  C_11
REMARK    5  A    between atoms: N_14  and  C_15
REMARK                            x       y       z     vdW  Elec       q    Type
REMARK                         _______ _______ _______ _____ _____    ______ ____
ROOT
ATOM      1  N   UNL     1       8.157   9.176  17.871  0.00  0.00    +0.000 N 
ATOM      2  C   UNL     1       8.128   7.845  18.270  0.00  0.00    +0.000 C 
ATOM      3  O   UNL     1       8.807   7.348  19.166  0.00  0.00    +0.000 OA
ATOM      4  H   UNL     1       7.460   9.430  17.178  0.00  0.00    +0.000 HD
ENDROOT
BRANCH   1  11
ATOM      5  C   UNL     1      11.536  12.711  17.157  0.00  0.00    +0.000 C 
ATOM      6  C   UNL     1      10.625  11.945  18.074  0.00  0.00    +0.000 A 
ATOM      7  C   UNL     1      10.543  12.288  19.431  0.00  0.00    +0.000 A 
ATOM      8  C   UNL     1       9.687  11.588  20.287  0.00  0.00    +0.000 A 
ATOM      9  C   UNL     1       9.579  11.926  21.743  0.00  0.00    +0.000 C 
ATOM     10  C   UNL     1       8.908  10.549  19.771  0.00  0.00    +0.000 A 
ATOM     11  C   UNL     1       8.961  10.196  18.422  0.00  0.00    +0.000 A 
ATOM     12  C   UNL     1       9.841  10.888  17.580  0.00  0.00    +0.000 A 
ENDBRANCH   1  11
BRANCH   2  13
ATOM     13  C   UNL     1       7.121   7.039  17.549  0.00  0.00    +0.000 A 
ATOM     14  N   UNL     1       7.371   6.464  16.323  0.00  0.00    +0.000 NA
ATOM     15  C   UNL     1       6.299   5.747  16.098  0.00  0.00    +0.000 A 
ATOM     16  N   UNL     1       5.416   5.870  17.137  0.00  0.00    +0.000 N 
ATOM     17  N   UNL     1       5.904   6.751  18.052  0.00  0.00    +0.000 NA
BRANCH  16  18
ATOM     18  C   UNL     1       4.186   5.192  17.330  0.00  0.00    +0.000 A 
ATOM     19  C   UNL     1       3.083   5.849  17.892  0.00  0.00    +0.000 A 
ATOM     20  C   UNL     1       1.876   5.167  18.053  0.00  0.00    +0.000 A 
ATOM     21  C   UNL     1       1.767   3.832  17.665  0.00  0.00    +0.000 A 
ATOM     22  C   UNL     1       2.862   3.177  17.105  0.00  0.00    +0.000 A 
ATOM     23  C   UNL     1       4.068   3.852  16.930  0.00  0.00    +0.000 A 
ENDBRANCH  16  18
ENDBRANCH   2  13
TORSDOF 3
ENDMDL
