MODEL 1
REMARK VINA RESULT:      -7.1      0.000      0.000
REMARK  Name = 
REMARK  7 active torsions:
REMARK  status: ('A' for Active; 'I' for Inactive)
REMARK    1  A    between atoms: C_4  and  C_5
REMARK    2  A    between atoms: C_4  and  C_16
REMARK    3  A    between atoms: C_5  and  C_6
REMARK    4  A    between atoms: C_13  and  C_14
REMARK    5  A    between atoms: C_14  and  O_15
REMARK    6  A    between atoms: N_24  and  C_25
REMARK    7  A    between atoms: C_25  and  C_26
REMARK                            x       y       z     vdW  Elec       q    Type
REMARK                         _______ _______ _______ _____ _____    ______ ____
ROOT
ATOM      1  O   UNL     1       7.250   5.554  19.946  0.00  0.00    +0.000 OA
ATOM      2  C   UNL     1       6.396   5.655  19.061  0.00  0.00    +0.000 C 
ATOM      3  C   UNL     1       5.001   5.127  19.219  0.00  0.00    +0.000 C 
ATOM      4  C   UNL     1       4.251   5.694  18.006  0.00  0.00    +0.000 C 
ATOM      5  C   UNL     1       5.370   6.280  17.159  0.00  0.00    +0.000 C 
ATOM      6  O   UNL     1       5.209   6.760  16.038  0.00  0.00    +0.000 OA
ATOM      7  N   UNL     1       6.541   6.240  17.844  0.00  0.00    +0.000 N 
ENDROOT
BRANCH   4   8
ATOM      8  C   UNL     1       3.243   6.771  18.466  0.00  0.00    +0.000 A 
ATOM      9  C   UNL     1       2.654   6.749  19.745  0.00  0.00    +0.000 A 
ATOM     10  C   UNL     1       1.754   7.735  20.153  0.00  0.00    +0.000 A 
ATOM     11  C   UNL     1       1.414   8.768  19.289  0.00  0.00    +0.000 A 
ATOM     12  C   UNL     1       1.973   8.811  18.016  0.00  0.00    +0.000 A 
ATOM     13  C   UNL     1       2.874   7.822  17.605  0.00  0.00    +0.000 A 
ENDBRANCH   4   8
BRANCH   4  14
ATOM     14  C   UNL     1       3.553   4.595  17.169  0.00  0.00    +0.000 C 
BRANCH  14  15
ATOM     15  C   UNL     1       2.170   4.157  17.660  0.00  0.00    +0.000 C 
ATOM     16  O   UNL     1       1.136   4.671  17.223  0.00  0.00    +0.000 OA
ATOM     17  N   UNL     1       2.153   3.083  18.546  0.00  0.00    +0.000 N 
ATOM     18  C   UNL     1       0.863   2.488  18.901  0.00  0.00    +0.000 C 
ATOM     19  C   UNL     1       0.458   2.826  20.333  0.00  0.00    +0.000 C 
ATOM     20  C   UNL     1       1.580   2.531  21.329  0.00  0.00    +0.000 C 
ATOM     21  C   UNL     1       2.894   3.171  20.882  0.00  0.00    +0.000 C 
ATOM     22  C   UNL     1       3.282   2.759  19.452  0.00  0.00    +0.000 C 
BRANCH  22  23
ATOM     23  C   UNL     1       3.706   1.281  19.350  0.00  0.00    +0.000 C 
BRANCH  23  24
ATOM     24  O   UNL     1       3.967   0.906  17.997  0.00  0.00    +0.000 OA
ATOM     25  H   UNL     1       4.171   1.726  17.510  0.00  0.00    +0.000 HD
ENDBRANCH  23  24
ENDBRANCH  22  23
ENDBRANCH  14  15
ENDBRANCH   4  14
BRANCH   7  26
ATOM     26  C   UNL     1       7.763   6.785  17.274  0.00  0.00    +0.000 C 
BRANCH  26  27
ATOM     27  C   UNL     1       7.985   8.188  17.773  0.00  0.00    +0.000 A 
ATOM     28  C   UNL     1       7.462   9.367  17.278  0.00  0.00    +0.000 A 
ATOM     29  C   UNL     1       7.994  10.515  17.932  0.00  0.00    +0.000 A 
ATOM     30  C   UNL     1       8.840  10.176  18.964  0.00  0.00    +0.000 A 
ATOM     31  S   UNL     1       8.980   8.481  19.141  0.00  0.00    +0.000 S 
ENDBRANCH  26  27
ENDBRANCH   7  26
TORSDOF 7
ENDMDL
MODEL 2
REMARK VINA RESULT:      -6.9      0.583      1.162
REMARK  Name = 
REMARK  7 active torsions:
REMARK  status: ('A' for Active; 'I' for Inactive)
REMARK    1  A    between atoms: C_4  and  C_5
REMARK    2  A    between atoms: C_4  and  C_16
REMARK    3  A    between atoms: C_5  and  C_6
REMARK    4  A    between atoms: C_13  and  C_14
REMARK    5  A    between atoms: C_14  and  O_15
REMARK    6  A    between atoms: N_24  and  C_25
REMARK    7  A    between atoms: C_25  and  C_26
REMARK                            x       y       z     vdW  Elec       q    Type
REMARK                         _______ _______ _______ _____ _____    ______ ____
ROOT
ATOM      1  O   UNL     1       7.296   5.603  19.933  0.00  0.00    +0.000 OA
ATOM      2  C   UNL     1       6.438   5.689  19.050  0.00  0.00    +0.000 C 
ATOM      3  C   UNL     1       5.044   5.163  19.223  0.00  0.00    +0.000 C 
ATOM      4  C   UNL     1       4.287   5.710  18.005  0.00  0.00    +0.000 C 
ATOM      5  C   UNL     1       5.402   6.282  17.143  0.00  0.00    +0.000 C 
ATOM      6  O   UNL     1       5.235   6.745  16.015  0.00  0.00    +0.000 OA
ATOM      7  N   UNL     1       6.576   6.254  17.823  0.00  0.00    +0.000 N 
ENDROOT
BRANCH   4   8
ATOM      8  C   UNL     1       3.281   6.794  18.452  0.00  0.00    +0.000 A 
ATOM      9  C   UNL     1       2.906   7.860  17.611  0.00  0.00    +0.000 A 
ATOM     10  C   UNL     1       1.986   8.827  18.023  0.00  0.00    +0.000 A 
ATOM     11  C   UNL     1       1.422   8.757  19.289  0.00  0.00    +0.000 A 
ATOM     12  C   UNL     1       1.781   7.721  20.146  0.00  0.00    +0.000 A 
ATOM     13  C   UNL     1       2.704   6.752  19.735  0.00  0.00    +0.000 A 
ENDBRANCH   4   8
BRANCH   4  14
ATOM     14  C   UNL     1       3.586   4.597  17.189  0.00  0.00    +0.000 C 
BRANCH  14  15
ATOM     15  C   UNL     1       2.201   4.173  17.687  0.00  0.00    +0.000 C 
ATOM     16  O   UNL     1       1.171   4.702  17.261  0.00  0.00    +0.000 OA
ATOM     17  N   UNL     1       2.177   3.095  18.568  0.00  0.00    +0.000 N 
ATOM     18  C   UNL     1       0.883   2.513  18.929  0.00  0.00    +0.000 C 
ATOM     19  C   UNL     1       0.493   2.848  20.366  0.00  0.00    +0.000 C 
ATOM     20  C   UNL     1       1.618   2.534  21.352  0.00  0.00    +0.000 C 
ATOM     21  C   UNL     1       2.937   3.160  20.899  0.00  0.00    +0.000 C 
ATOM     22  C   UNL     1       3.309   2.751  19.464  0.00  0.00    +0.000 C 
BRANCH  22  23
ATOM     23  C   UNL     1       3.715   1.268  19.350  0.00  0.00    +0.000 C 
BRANCH  23  24
ATOM     24  O   UNL     1       3.973   0.902  17.994  0.00  0.00    +0.000 OA
ATOM     25  H   UNL     1       4.814   0.410  17.988  0.00  0.00    +0.000 HD
ENDBRANCH  23  24
ENDBRANCH  22  23
ENDBRANCH  14  15
ENDBRANCH   4  14
BRANCH   7  26
ATOM     26  C   UNL     1       7.795   6.791  17.239  0.00  0.00    +0.000 C 
BRANCH  26  27
ATOM     27  C   UNL     1       8.127   8.119  17.865  0.00  0.00    +0.000 A 
ATOM     28  C   UNL     1       8.970   8.379  18.929  0.00  0.00    +0.000 A 
ATOM     29  C   UNL     1       8.941   9.747  19.325  0.00  0.00    +0.000 A 
ATOM     30  C   UNL     1       8.146  10.507  18.497  0.00  0.00    +0.000 A 
ATOM     31  S   UNL     1       7.448   9.570  17.248  0.00  0.00    +0.000 S 
ENDBRANCH  26  27
ENDBRANCH   7  26
TORSDOF 7
ENDMDL
MODEL 3
REMARK VINA RESULT:      -6.7      8.082     11.401
REMARK  Name = 
REMARK  7 active torsions:
REMARK  status: ('A' for Active; 'I' for Inactive)
REMARK    1  A    between atoms: C_4  and  C_5
REMARK    2  A    between atoms: C_4  and  C_16
REMARK    3  A    between atoms: C_5  and  C_6
REMARK    4  A    between atoms: C_13  and  C_14
REMARK    5  A    between atoms: C_14  and  O_15
REMARK    6  A    between atoms: N_24  and  C_25
REMARK    7  A    between atoms: C_25  and  C_26
REMARK                            x       y       z     vdW  Elec       q    Type
REMARK                         _______ _______ _______ _____ _____    ______ ____
ROOT
ATOM      1  O   UNL     1      -1.074  11.046  23.338  0.00  0.00    +0.000 OA
ATOM      2  C   UNL     1      -1.439  11.748  22.390  0.00  0.00    +0.000 C 
ATOM      3  C   UNL     1      -0.624  11.908  21.141  0.00  0.00    +0.000 C 
ATOM      4  C   UNL     1      -1.567  12.636  20.173  0.00  0.00    +0.000 C 
ATOM      5  C   UNL     1      -2.732  13.029  21.069  0.00  0.00    +0.000 C 
ATOM      6  O   UNL     1      -3.682  13.721  20.702  0.00  0.00    +0.000 OA
ATOM      7  N   UNL     1      -2.590  12.462  22.293  0.00  0.00    +0.000 N 
ENDROOT
BRANCH   4   8
ATOM      8  C   UNL     1      -2.000  11.680  19.040  0.00  0.00    +0.000 A 
ATOM      9  C   UNL     1      -3.321  11.646  18.552  0.00  0.00    +0.000 A 
ATOM     10  C   UNL     1      -3.697  10.785  17.518  0.00  0.00    +0.000 A 
ATOM     11  C   UNL     1      -2.762   9.931  16.949  0.00  0.00    +0.000 A 
ATOM     12  C   UNL     1      -1.452   9.935  17.417  0.00  0.00    +0.000 A 
ATOM     13  C   UNL     1      -1.074  10.797  18.454  0.00  0.00    +0.000 A 
ENDBRANCH   4   8
BRANCH   4  14
ATOM     14  C   UNL     1      -0.951  13.937  19.605  0.00  0.00    +0.000 C 
BRANCH  14  15
ATOM     15  C   UNL     1       0.097  14.623  20.488  0.00  0.00    +0.000 C 
ATOM     16  O   UNL     1      -0.216  15.198  21.534  0.00  0.00    +0.000 OA
ATOM     17  N   UNL     1       1.421  14.469  20.088  0.00  0.00    +0.000 N 
ATOM     18  C   UNL     1       2.483  14.929  20.986  0.00  0.00    +0.000 C 
ATOM     19  C   UNL     1       3.160  16.192  20.462  0.00  0.00    +0.000 C 
ATOM     20  C   UNL     1       3.593  16.045  19.003  0.00  0.00    +0.000 C 
ATOM     21  C   UNL     1       2.439  15.547  18.134  0.00  0.00    +0.000 C 
ATOM     22  C   UNL     1       1.824  14.247  18.678  0.00  0.00    +0.000 C 
BRANCH  22  23
ATOM     23  C   UNL     1       2.760  13.032  18.522  0.00  0.00    +0.000 C 
BRANCH  23  24
ATOM     24  O   UNL     1       2.475  12.305  17.326  0.00  0.00    +0.000 OA
ATOM     25  H   UNL     1       1.661  12.687  16.949  0.00  0.00    +0.000 HD
ENDBRANCH  23  24
ENDBRANCH  22  23
ENDBRANCH  14  15
ENDBRANCH   4  14
BRANCH   7  26
ATOM     26  C   UNL     1      -3.599  12.641  23.326  0.00  0.00    +0.000 C 
BRANCH  26  27
ATOM     27  C   UNL     1      -3.468  14.008  23.944  0.00  0.00    +0.000 A 
ATOM     28  C   UNL     1      -2.377  14.554  24.593  0.00  0.00    +0.000 A 
ATOM     29  C   UNL     1      -2.663  15.830  25.158  0.00  0.00    +0.000 A 
ATOM     30  C   UNL     1      -3.935  16.259  24.848  0.00  0.00    +0.000 A 
ATOM     31  S   UNL     1      -4.768  15.125  23.876  0.00  0.00    +0.000 S 
ENDBRANCH  26  27
ENDBRANCH   7  26
TORSDOF 7
ENDMDL
MODEL 4
REMARK VINA RESULT:      -6.7      7.103     10.129
REMARK  Name = 
REMARK  7 active torsions:
REMARK  status: ('A' for Active; 'I' for Inactive)
REMARK    1  A    between atoms: C_4  and  C_5
REMARK    2  A    between atoms: C_4  and  C_16
REMARK    3  A    between atoms: C_5  and  C_6
REMARK    4  A    between atoms: C_13  and  C_14
REMARK    5  A    between atoms: C_14  and  O_15
REMARK    6  A    between atoms: N_24  and  C_25
REMARK    7  A    between atoms: C_25  and  C_26
REMARK                            x       y       z     vdW  Elec       q    Type
REMARK                         _______ _______ _______ _____ _____    ______ ____
ROOT
ATOM      1  O   UNL     1       0.835  11.010  22.061  0.00  0.00    +0.000 OA
ATOM      2  C   UNL     1       0.400  11.771  21.192  0.00  0.00    +0.000 C 
ATOM      3  C   UNL     1       0.492  13.264  21.305  0.00  0.00    +0.000 C 
ATOM      4  C   UNL     1       0.069  13.768  19.918  0.00  0.00    +0.000 C 
ATOM      5  C   UNL     1      -0.457  12.508  19.247  0.00  0.00    +0.000 C 
ATOM      6  O   UNL     1      -0.987  12.487  18.137  0.00  0.00    +0.000 OA
ATOM      7  N   UNL     1      -0.204  11.427  20.026  0.00  0.00    +0.000 N 
ENDROOT
BRANCH   4   8
ATOM      8  C   UNL     1       1.289  14.358  19.176  0.00  0.00    +0.000 A 
ATOM      9  C   UNL     1       1.366  15.720  18.826  0.00  0.00    +0.000 A 
ATOM     10  C   UNL     1       2.479  16.243  18.166  0.00  0.00    +0.000 A 
ATOM     11  C   UNL     1       3.544  15.416  17.833  0.00  0.00    +0.000 A 
ATOM     12  C   UNL     1       3.492  14.065  18.157  0.00  0.00    +0.000 A 
ATOM     13  C   UNL     1       2.375  13.538  18.818  0.00  0.00    +0.000 A 
ENDBRANCH   4   8
BRANCH   4  14
ATOM     14  C   UNL     1      -1.094  14.787  19.983  0.00  0.00    +0.000 C 
BRANCH  14  15
ATOM     15  C   UNL     1      -1.498  15.253  21.386  0.00  0.00    +0.000 C 
ATOM     16  O   UNL     1      -0.858  16.119  21.989  0.00  0.00    +0.000 OA
ATOM     17  N   UNL     1      -2.680  14.713  21.887  0.00  0.00    +0.000 N 
ATOM     18  C   UNL     1      -3.227  15.259  23.131  0.00  0.00    +0.000 C 
ATOM     19  C   UNL     1      -3.062  14.287  24.296  0.00  0.00    +0.000 C 
ATOM     20  C   UNL     1      -3.569  12.887  23.949  0.00  0.00    +0.000 C 
ATOM     21  C   UNL     1      -2.967  12.395  22.632  0.00  0.00    +0.000 C 
ATOM     22  C   UNL     1      -3.204  13.386  21.481  0.00  0.00    +0.000 C 
BRANCH  22  23
ATOM     23  C   UNL     1      -4.680  13.450  21.042  0.00  0.00    +0.000 C 
BRANCH  23  24
ATOM     24  O   UNL     1      -4.802  13.911  19.695  0.00  0.00    +0.000 OA
ATOM     25  H   UNL     1      -5.554  13.435  19.299  0.00  0.00    +0.000 HD
ENDBRANCH  23  24
ENDBRANCH  22  23
ENDBRANCH  14  15
ENDBRANCH   4  14
BRANCH   7  26
ATOM     26  C   UNL     1      -0.564  10.086  19.590  0.00  0.00    +0.000 C 
BRANCH  26  27
ATOM     27  C   UNL     1       0.657   9.359  19.094  0.00  0.00    +0.000 A 
ATOM     28  C   UNL     1       1.319   9.514  17.891  0.00  0.00    +0.000 A 
ATOM     29  C   UNL     1       2.365   8.563  17.718  0.00  0.00    +0.000 A 
ATOM     30  C   UNL     1       2.527   7.767  18.830  0.00  0.00    +0.000 A 
ATOM     31  S   UNL     1       1.426   8.177  20.072  0.00  0.00    +0.000 S 
ENDBRANCH  26  27
ENDBRANCH   7  26
TORSDOF 7
ENDMDL
MODEL 5
REMARK VINA RESULT:      -6.7      8.489     12.304
REMARK  Name = 
REMARK  7 active torsions:
REMARK  status: ('A' for Active; 'I' for Inactive)
REMARK    1  A    between atoms: C_4  and  C_5
REMARK    2  A    between atoms: C_4  and  C_16
REMARK    3  A    between atoms: C_5  and  C_6
REMARK    4  A    between atoms: C_13  and  C_14
REMARK    5  A    between atoms: C_14  and  O_15
REMARK    6  A    between atoms: N_24  and  C_25
REMARK    7  A    between atoms: C_25  and  C_26
REMARK                            x       y       z     vdW  Elec       q    Type
REMARK                         _______ _______ _______ _____ _____    ______ ____
ROOT
ATOM      1  O   UNL     1      -0.508  15.374  23.885  0.00  0.00    +0.000 OA
ATOM      2  C   UNL     1      -0.791  14.734  22.868  0.00  0.00    +0.000 C 
ATOM      3  C   UNL     1       0.240  14.014  22.052  0.00  0.00    +0.000 C 
ATOM      4  C   UNL     1      -0.585  13.175  21.067  0.00  0.00    +0.000 C 
ATOM      5  C   UNL     1      -1.996  13.705  21.271  0.00  0.00    +0.000 C 
ATOM      6  O   UNL     1      -2.968  13.360  20.600  0.00  0.00    +0.000 OA
ATOM      7  N   UNL     1      -2.024  14.559  22.325  0.00  0.00    +0.000 N 
ENDROOT
BRANCH   4   8
ATOM      8  C   UNL     1      -0.468  11.677  21.423  0.00  0.00    +0.000 A 
ATOM      9  C   UNL     1      -0.059  10.712  20.481  0.00  0.00    +0.000 A 
ATOM     10  C   UNL     1       0.054   9.362  20.819  0.00  0.00    +0.000 A 
ATOM     11  C   UNL     1      -0.244   8.940  22.107  0.00  0.00    +0.000 A 
ATOM     12  C   UNL     1      -0.661   9.868  23.056  0.00  0.00    +0.000 A 
ATOM     13  C   UNL     1      -0.776  11.221  22.719  0.00  0.00    +0.000 A 
ENDBRANCH   4   8
BRANCH   4  14
ATOM     14  C   UNL     1      -0.195  13.433  19.592  0.00  0.00    +0.000 C 
BRANCH  14  15
ATOM     15  C   UNL     1       1.166  14.099  19.365  0.00  0.00    +0.000 C 
ATOM     16  O   UNL     1       2.220  13.463  19.454  0.00  0.00    +0.000 OA
ATOM     17  N   UNL     1       1.130  15.430  18.958  0.00  0.00    +0.000 N 
ATOM     18  C   UNL     1       2.379  16.068  18.536  0.00  0.00    +0.000 C 
ATOM     19  C   UNL     1       2.872  17.082  19.564  0.00  0.00    +0.000 C 
ATOM     20  C   UNL     1       1.774  18.063  19.972  0.00  0.00    +0.000 C 
ATOM     21  C   UNL     1       0.500  17.324  20.383  0.00  0.00    +0.000 C 
ATOM     22  C   UNL     1       0.018  16.352  19.293  0.00  0.00    +0.000 C 
BRANCH  22  23
ATOM     23  C   UNL     1      -0.535  17.076  18.050  0.00  0.00    +0.000 C 
BRANCH  23  24
ATOM     24  O   UNL     1      -1.631  17.928  18.388  0.00  0.00    +0.000 OA
ATOM     25  H   UNL     1      -2.445  17.459  18.130  0.00  0.00    +0.000 HD
ENDBRANCH  23  24
ENDBRANCH  22  23
ENDBRANCH  14  15
ENDBRANCH   4  14
BRANCH   7  26
ATOM     26  C   UNL     1      -3.269  15.171  22.764  0.00  0.00    +0.000 C 
BRANCH  26  27
ATOM     27  C   UNL     1      -4.117  14.157  23.484  0.00  0.00    +0.000 A 
ATOM     28  C   UNL     1      -3.716  13.189  24.386  0.00  0.00    +0.000 A 
ATOM     29  C   UNL     1      -4.784  12.328  24.769  0.00  0.00    +0.000 A 
ATOM     30  C   UNL     1      -5.984  12.716  24.217  0.00  0.00    +0.000 A 
ATOM     31  S   UNL     1      -5.817  14.116  23.251  0.00  0.00    +0.000 S 
ENDBRANCH  26  27
ENDBRANCH   7  26
TORSDOF 7
ENDMDL
MODEL 6
REMARK VINA RESULT:      -6.7      2.354      4.818
REMARK  Name = 
REMARK  7 active torsions:
REMARK  status: ('A' for Active; 'I' for Inactive)
REMARK    1  A    between atoms: C_4  and  C_5
REMARK    2  A    between atoms: C_4  and  C_16
REMARK    3  A    between atoms: C_5  and  C_6
REMARK    4  A    between atoms: C_13  and  C_14
REMARK    5  A    between atoms: C_14  and  O_15
REMARK    6  A    between atoms: N_24  and  C_25
REMARK    7  A    between atoms: C_25  and  C_26
REMARK                            x       y       z     vdW  Elec       q    Type
REMARK                         _______ _______ _______ _____ _____    ______ ____
ROOT
ATOM      1  O   UNL     1       2.310   9.547  17.342  0.00  0.00    +0.000 OA
ATOM      2  C   UNL     1       2.659   8.427  17.727  0.00  0.00    +0.000 C 
ATOM      3  C   UNL     1       3.465   7.493  16.875  0.00  0.00    +0.000 C 
ATOM      4  C   UNL     1       3.867   6.367  17.836  0.00  0.00    +0.000 C 
ATOM      5  C   UNL     1       3.033   6.664  19.073  0.00  0.00    +0.000 C 
ATOM      6  O   UNL     1       2.986   5.938  20.065  0.00  0.00    +0.000 OA
ATOM      7  N   UNL     1       2.406   7.859  18.935  0.00  0.00    +0.000 N 
ENDROOT
BRANCH   4   8
ATOM      8  C   UNL     1       5.383   6.437  18.125  0.00  0.00    +0.000 A 
ATOM      9  C   UNL     1       5.999   5.622  19.096  0.00  0.00    +0.000 A 
ATOM     10  C   UNL     1       7.373   5.686  19.339  0.00  0.00    +0.000 A 
ATOM     11  C   UNL     1       8.166   6.572  18.622  0.00  0.00    +0.000 A 
ATOM     12  C   UNL     1       7.584   7.397  17.665  0.00  0.00    +0.000 A 
ATOM     13  C   UNL     1       6.207   7.334  17.421  0.00  0.00    +0.000 A 
ENDBRANCH   4   8
BRANCH   4  14
ATOM     14  C   UNL     1       3.459   4.967  17.319  0.00  0.00    +0.000 C 
BRANCH  14  15
ATOM     15  C   UNL     1       2.123   4.424  17.837  0.00  0.00    +0.000 C 
ATOM     16  O   UNL     1       1.048   4.943  17.523  0.00  0.00    +0.000 OA
ATOM     17  N   UNL     1       2.195   3.260  18.597  0.00  0.00    +0.000 N 
ATOM     18  C   UNL     1       0.950   2.580  18.958  0.00  0.00    +0.000 C 
ATOM     19  C   UNL     1       0.625   2.743  20.441  0.00  0.00    +0.000 C 
ATOM     20  C   UNL     1       1.815   2.384  21.330  0.00  0.00    +0.000 C 
ATOM     21  C   UNL     1       3.079   3.118  20.881  0.00  0.00    +0.000 C 
ATOM     22  C   UNL     1       3.389   2.882  19.393  0.00  0.00    +0.000 C 
BRANCH  22  23
ATOM     23  C   UNL     1       3.852   1.441  19.102  0.00  0.00    +0.000 C 
BRANCH  23  24
ATOM     24  O   UNL     1       5.086   1.148  19.760  0.00  0.00    +0.000 OA
ATOM     25  H   UNL     1       5.043   0.217  20.044  0.00  0.00    +0.000 HD
ENDBRANCH  23  24
ENDBRANCH  22  23
ENDBRANCH  14  15
ENDBRANCH   4  14
BRANCH   7  26
ATOM     26  C   UNL     1       1.580   8.402  20.002  0.00  0.00    +0.000 C 
BRANCH  26  27
ATOM     27  C   UNL     1       0.704   9.504  19.467  0.00  0.00    +0.000 A 
ATOM     28  C   UNL     1      -0.398   9.399  18.641  0.00  0.00    +0.000 A 
ATOM     29  C   UNL     1      -0.902  10.670  18.242  0.00  0.00    +0.000 A 
ATOM     30  C   UNL     1      -0.224  11.707  18.844  0.00  0.00    +0.000 A 
ATOM     31  S   UNL     1       1.005  11.140  19.889  0.00  0.00    +0.000 S 
ENDBRANCH  26  27
ENDBRANCH   7  26
TORSDOF 7
ENDMDL
MODEL 7
REMARK VINA RESULT:      -6.7      8.505     11.517
REMARK  Name = 
REMARK  7 active torsions:
REMARK  status: ('A' for Active; 'I' for Inactive)
REMARK    1  A    between atoms: C_4  and  C_5
REMARK    2  A    between atoms: C_4  and  C_16
REMARK    3  A    between atoms: C_5  and  C_6
REMARK    4  A    between atoms: C_13  and  C_14
REMARK    5  A    between atoms: C_14  and  O_15
REMARK    6  A    between atoms: N_24  and  C_25
REMARK    7  A    between atoms: C_25  and  C_26
REMARK                            x       y       z     vdW  Elec       q    Type
REMARK                         _______ _______ _______ _____ _____    ______ ____
ROOT
ATOM      1  O   UNL     1      -1.174  10.549  23.084  0.00  0.00    +0.000 OA
ATOM      2  C   UNL     1      -1.620  11.622  22.667  0.00  0.00    +0.000 C 
ATOM      3  C   UNL     1      -2.891  12.226  23.187  0.00  0.00    +0.000 C 
ATOM      4  C   UNL     1      -2.907  13.636  22.580  0.00  0.00    +0.000 C 
ATOM      5  C   UNL     1      -1.761  13.586  21.580  0.00  0.00    +0.000 C 
ATOM      6  O   UNL     1      -1.484  14.498  20.801  0.00  0.00    +0.000 OA
ATOM      7  N   UNL     1      -1.074  12.425  21.718  0.00  0.00    +0.000 N 
ENDROOT
BRANCH   4   8
ATOM      8  C   UNL     1      -2.670  14.688  23.685  0.00  0.00    +0.000 A 
ATOM      9  C   UNL     1      -3.678  15.583  24.097  0.00  0.00    +0.000 A 
ATOM     10  C   UNL     1      -3.454  16.522  25.106  0.00  0.00    +0.000 A 
ATOM     11  C   UNL     1      -2.214  16.596  25.726  0.00  0.00    +0.000 A 
ATOM     12  C   UNL     1      -1.196  15.733  25.333  0.00  0.00    +0.000 A 
ATOM     13  C   UNL     1      -1.418  14.792  24.321  0.00  0.00    +0.000 A 
ENDBRANCH   4   8
BRANCH   4  14
ATOM     14  C   UNL     1      -4.206  13.932  21.793  0.00  0.00    +0.000 C 
BRANCH  14  15
ATOM     15  C   UNL     1      -5.332  12.906  21.950  0.00  0.00    +0.000 C 
ATOM     16  O   UNL     1      -5.583  12.382  23.039  0.00  0.00    +0.000 OA
ATOM     17  N   UNL     1      -6.110  12.681  20.817  0.00  0.00    +0.000 N 
ATOM     18  C   UNL     1      -7.320  11.866  20.948  0.00  0.00    +0.000 C 
ATOM     19  C   UNL     1      -7.151  10.496  20.297  0.00  0.00    +0.000 C 
ATOM     20  C   UNL     1      -6.619  10.603  18.868  0.00  0.00    +0.000 C 
ATOM     21  C   UNL     1      -5.369  11.481  18.811  0.00  0.00    +0.000 C 
ATOM     22  C   UNL     1      -5.606  12.867  19.435  0.00  0.00    +0.000 C 
BRANCH  22  23
ATOM     23  C   UNL     1      -6.540  13.752  18.586  0.00  0.00    +0.000 C 
BRANCH  23  24
ATOM     24  O   UNL     1      -6.158  13.741  17.209  0.00  0.00    +0.000 OA
ATOM     25  H   UNL     1      -6.775  14.330  16.739  0.00  0.00    +0.000 HD
ENDBRANCH  23  24
ENDBRANCH  22  23
ENDBRANCH  14  15
ENDBRANCH   4  14
BRANCH   7  26
ATOM     26  C   UNL     1       0.103  12.148  20.909  0.00  0.00    +0.000 C 
BRANCH  26  27
ATOM     27  C   UNL     1      -0.279  11.337  19.700  0.00  0.00    +0.000 A 
ATOM     28  C   UNL     1      -1.495  11.297  19.043  0.00  0.00    +0.000 A 
ATOM     29  C   UNL     1      -1.523  10.317  18.011  0.00  0.00    +0.000 A 
ATOM     30  C   UNL     1      -0.303   9.698  17.852  0.00  0.00    +0.000 A 
ATOM     31  S   UNL     1       0.866  10.309  18.940  0.00  0.00    +0.000 S 
ENDBRANCH  26  27
ENDBRANCH   7  26
TORSDOF 7
ENDMDL
MODEL 8
REMARK VINA RESULT:      -6.6      9.315     12.469
REMARK  Name = 
REMARK  7 active torsions:
REMARK  status: ('A' for Active; 'I' for Inactive)
REMARK    1  A    between atoms: C_4  and  C_5
REMARK    2  A    between atoms: C_4  and  C_16
REMARK    3  A    between atoms: C_5  and  C_6
REMARK    4  A    between atoms: C_13  and  C_14
REMARK    5  A    between atoms: C_14  and  O_15
REMARK    6  A    between atoms: N_24  and  C_25
REMARK    7  A    between atoms: C_25  and  C_26
REMARK                            x       y       z     vdW  Elec       q    Type
REMARK                         _______ _______ _______ _____ _____    ______ ____
ROOT
ATOM      1  O   UNL     1      -0.532  15.300  23.748  0.00  0.00    +0.000 OA
ATOM      2  C   UNL     1      -1.254  14.441  23.233  0.00  0.00    +0.000 C 
ATOM      3  C   UNL     1      -0.972  13.851  21.883  0.00  0.00    +0.000 C 
ATOM      4  C   UNL     1      -1.957  12.679  21.777  0.00  0.00    +0.000 C 
ATOM      5  C   UNL     1      -2.862  12.888  22.982  0.00  0.00    +0.000 C 
ATOM      6  O   UNL     1      -3.859  12.208  23.223  0.00  0.00    +0.000 OA
ATOM      7  N   UNL     1      -2.374  13.885  23.762  0.00  0.00    +0.000 N 
ENDROOT
BRANCH   4   8
ATOM      8  C   UNL     1      -1.192  11.339  21.848  0.00  0.00    +0.000 A 
ATOM      9  C   UNL     1      -0.694  10.699  20.696  0.00  0.00    +0.000 A 
ATOM     10  C   UNL     1       0.007   9.494  20.775  0.00  0.00    +0.000 A 
ATOM     11  C   UNL     1       0.223   8.893  22.008  0.00  0.00    +0.000 A 
ATOM     12  C   UNL     1      -0.266   9.497  23.162  0.00  0.00    +0.000 A 
ATOM     13  C   UNL     1      -0.969  10.705  23.085  0.00  0.00    +0.000 A 
ENDBRANCH   4   8
BRANCH   4  14
ATOM     14  C   UNL     1      -2.840  12.755  20.508  0.00  0.00    +0.000 C 
BRANCH  14  15
ATOM     15  C   UNL     1      -3.882  13.877  20.483  0.00  0.00    +0.000 C 
ATOM     16  O   UNL     1      -3.585  15.042  20.764  0.00  0.00    +0.000 OA
ATOM     17  N   UNL     1      -5.148  13.518  20.030  0.00  0.00    +0.000 N 
ATOM     18  C   UNL     1      -6.134  14.575  19.794  0.00  0.00    +0.000 C 
ATOM     19  C   UNL     1      -7.233  14.571  20.853  0.00  0.00    +0.000 C 
ATOM     20  C   UNL     1      -7.839  13.180  21.043  0.00  0.00    +0.000 C 
ATOM     21  C   UNL     1      -6.749  12.131  21.267  0.00  0.00    +0.000 C 
ATOM     22  C   UNL     1      -5.695  12.144  20.148  0.00  0.00    +0.000 C 
BRANCH  22  23
ATOM     23  C   UNL     1      -6.241  11.615  18.806  0.00  0.00    +0.000 C 
BRANCH  23  24
ATOM     24  O   UNL     1      -7.147  10.529  19.006  0.00  0.00    +0.000 OA
ATOM     25  H   UNL     1      -7.058   9.940  18.235  0.00  0.00    +0.000 HD
ENDBRANCH  23  24
ENDBRANCH  22  23
ENDBRANCH  14  15
ENDBRANCH   4  14
BRANCH   7  26
ATOM     26  C   UNL     1      -3.029  14.253  25.008  0.00  0.00    +0.000 C 
BRANCH  26  27
ATOM     27  C   UNL     1      -3.795  15.537  24.829  0.00  0.00    +0.000 A 
ATOM     28  C   UNL     1      -3.461  16.803  25.271  0.00  0.00    +0.000 A 
ATOM     29  C   UNL     1      -4.490  17.755  25.024  0.00  0.00    +0.000 A 
ATOM     30  C   UNL     1      -5.543  17.208  24.324  0.00  0.00    +0.000 A 
ATOM     31  S   UNL     1      -5.277  15.557  23.964  0.00  0.00    +0.000 S 
ENDBRANCH  26  27
ENDBRANCH   7  26
TORSDOF 7
ENDMDL
MODEL 9
REMARK VINA RESULT:      -6.6      7.274     10.271
REMARK  Name = 
REMARK  7 active torsions:
REMARK  status: ('A' for Active; 'I' for Inactive)
REMARK    1  A    between atoms: C_4  and  C_5
REMARK    2  A    between atoms: C_4  and  C_16
REMARK    3  A    between atoms: C_5  and  C_6
REMARK    4  A    between atoms: C_13  and  C_14
REMARK    5  A    between atoms: C_14  and  O_15
REMARK    6  A    between atoms: N_24  and  C_25
REMARK    7  A    between atoms: C_25  and  C_26
REMARK                            x       y       z     vdW  Elec       q    Type
REMARK                         _______ _______ _______ _____ _____    ______ ____
ROOT
ATOM      1  O   UNL     1       0.467  10.953  22.276  0.00  0.00    +0.000 OA
ATOM      2  C   UNL     1       0.054  11.754  21.432  0.00  0.00    +0.000 C 
ATOM      3  C   UNL     1       0.118  13.239  21.626  0.00  0.00    +0.000 C 
ATOM      4  C   UNL     1      -0.260  13.810  20.252  0.00  0.00    +0.000 C 
ATOM      5  C   UNL     1      -0.739  12.580  19.496  0.00  0.00    +0.000 C 
ATOM      6  O   UNL     1      -1.225  12.610  18.366  0.00  0.00    +0.000 OA
ATOM      7  N   UNL     1      -0.499  11.462  20.226  0.00  0.00    +0.000 N 
ENDROOT
BRANCH   4   8
ATOM      8  C   UNL     1       0.979  14.455  19.591  0.00  0.00    +0.000 A 
ATOM      9  C   UNL     1       2.241  13.830  19.595  0.00  0.00    +0.000 A 
ATOM     10  C   UNL     1       3.350  14.418  18.983  0.00  0.00    +0.000 A 
ATOM     11  C   UNL     1       3.227  15.650  18.356  0.00  0.00    +0.000 A 
ATOM     12  C   UNL     1       1.995  16.296  18.344  0.00  0.00    +0.000 A 
ATOM     13  C   UNL     1       0.883  15.708  18.958  0.00  0.00    +0.000 A 
ENDBRANCH   4   8
BRANCH   4  14
ATOM     14  C   UNL     1      -1.440  14.807  20.325  0.00  0.00    +0.000 C 
BRANCH  14  15
ATOM     15  C   UNL     1      -1.848  15.262  21.730  0.00  0.00    +0.000 C 
ATOM     16  O   UNL     1      -1.222  16.138  22.334  0.00  0.00    +0.000 OA
ATOM     17  N   UNL     1      -3.017  14.700  22.234  0.00  0.00    +0.000 N 
ATOM     18  C   UNL     1      -3.570  15.231  23.481  0.00  0.00    +0.000 C 
ATOM     19  C   UNL     1      -3.383  14.259  24.643  0.00  0.00    +0.000 C 
ATOM     20  C   UNL     1      -3.865  12.851  24.293  0.00  0.00    +0.000 C 
ATOM     21  C   UNL     1      -3.260  12.374  22.973  0.00  0.00    +0.000 C 
ATOM     22  C   UNL     1      -3.519  13.364  21.826  0.00  0.00    +0.000 C 
BRANCH  22  23
ATOM     23  C   UNL     1      -4.997  13.403  21.392  0.00  0.00    +0.000 C 
BRANCH  23  24
ATOM     24  O   UNL     1      -5.555  12.089  21.327  0.00  0.00    +0.000 OA
ATOM     25  H   UNL     1      -6.457  12.180  20.971  0.00  0.00    +0.000 HD
ENDBRANCH  23  24
ENDBRANCH  22  23
ENDBRANCH  14  15
ENDBRANCH   4  14
BRANCH   7  26
ATOM     26  C   UNL     1      -0.821  10.142  19.707  0.00  0.00    +0.000 C 
BRANCH  26  27
ATOM     27  C   UNL     1       0.422   9.478  19.178  0.00  0.00    +0.000 A 
ATOM     28  C   UNL     1       1.036   9.660  17.953  0.00  0.00    +0.000 A 
ATOM     29  C   UNL     1       2.127   8.766  17.753  0.00  0.00    +0.000 A 
ATOM     30  C   UNL     1       2.368   7.989  18.865  0.00  0.00    +0.000 A 
ATOM     31  S   UNL     1       1.286   8.349  20.139  0.00  0.00    +0.000 S 
ENDBRANCH  26  27
ENDBRANCH   7  26
TORSDOF 7
ENDMDL
