MODEL 1
REMARK VINA RESULT:      -7.4      0.000      0.000
REMARK  Name = 
REMARK  9 active torsions:
REMARK  status: ('A' for Active; 'I' for Inactive)
REMARK    1  A    between atoms: C_1  and  O_2
REMARK    2  A    between atoms: O_2  and  C_3
REMARK    3  A    between atoms: C_8  and  O_9
REMARK    4  A    between atoms: O_9  and  C_10
REMARK    5  A    between atoms: C_16  and  O_17
REMARK    6  A    between atoms: O_17  and  C_18
REMARK    7  A    between atoms: C_19  and  O_20
REMARK    8  A    between atoms: O_20  and  S_21
REMARK    9  A    between atoms: S_21  and  C_24
REMARK                            x       y       z     vdW  Elec       q    Type
REMARK                         _______ _______ _______ _____ _____    ______ ____
ROOT
ATOM      1  C   UNL     1      -0.990  13.129  19.598  0.00  0.00    +0.000 A 
ATOM      2  C   UNL     1       0.405  13.178  19.503  0.00  0.00    +0.000 A 
ATOM      3  C   UNL     1       1.129  11.991  19.422  0.00  0.00    +0.000 A 
ATOM      4  C   UNL     1       0.532  10.753  19.710  0.00  0.00    +0.000 A 
ATOM      5  C   UNL     1      -0.860  10.700  19.757  0.00  0.00    +0.000 A 
ATOM      6  C   UNL     1      -1.627  11.873  19.631  0.00  0.00    +0.000 A 
ATOM      7  C   UNL     1       1.483   9.563  19.623  0.00  0.00    +0.000 C 
ATOM      8  C   UNL     1       0.977   8.284  20.282  0.00  0.00    +0.000 C 
ATOM      9  C   UNL     1       1.829   7.093  19.936  0.00  0.00    +0.000 A 
ATOM     10  C   UNL     1       1.799   5.991  20.795  0.00  0.00    +0.000 A 
ATOM     11  C   UNL     1       2.441   4.814  20.448  0.00  0.00    +0.000 A 
ATOM     12  C   UNL     1       3.134   4.714  19.239  0.00  0.00    +0.000 A 
ATOM     13  C   UNL     1       3.227   5.835  18.387  0.00  0.00    +0.000 A 
ATOM     14  C   UNL     1       2.560   7.043  18.736  0.00  0.00    +0.000 A 
ATOM     15  C   UNL     1       2.701   8.287  17.866  0.00  0.00    +0.000 C 
ATOM     16  N   UNL     1       1.864   9.439  18.214  0.00  0.00    +0.000 NA
ATOM     17  C   UNL     1       2.381  10.739  17.690  0.00  0.00    +0.000 C 
ATOM     18  C   UNL     1       2.477  11.902  18.740  0.00  0.00    +0.000 C 
ENDROOT
BRANCH   1  20
ATOM     19  C   UNL     1      -1.168  15.423  20.193  0.00  0.00    +0.000 C 
ATOM     20  O   UNL     1      -1.768  14.256  19.643  0.00  0.00    +0.000 OA
ENDBRANCH   1  20
BRANCH   6  21
ATOM     21  O   UNL     1      -2.971  11.620  19.504  0.00  0.00    +0.000 OA
ATOM     22  C   UNL     1      -3.487  11.451  18.187  0.00  0.00    +0.000 C 
ENDBRANCH   6  21
BRANCH  12  23
ATOM     23  O   UNL     1       3.635   3.507  18.835  0.00  0.00    +0.000 OA
ATOM     24  C   UNL     1       4.091   2.663  19.886  0.00  0.00    +0.000 C 
ENDBRANCH  12  23
BRANCH  13  25
ATOM     25  O   UNL     1       3.918   5.859  17.192  0.00  0.00    +0.000 OA
BRANCH  25  26
ATOM     26  S   UNL     1       5.548   5.972  17.091  0.00  0.00    +0.000 S 
ATOM     27  O   UNL     1       5.931   7.354  16.815  0.00  0.00    +0.000 OA
ATOM     28  O   UNL     1       6.167   5.183  18.132  0.00  0.00    +0.000 OA
BRANCH  26  29
ATOM     29  C   UNL     1       5.953   5.117  15.566  0.00  0.00    +0.000 A 
ATOM     30  C   UNL     1       7.204   5.368  14.984  0.00  0.00    +0.000 A 
ATOM     31  C   UNL     1       7.503   4.830  13.731  0.00  0.00    +0.000 A 
ATOM     32  C   UNL     1       6.552   4.051  13.084  0.00  0.00    +0.000 A 
ATOM     33  F   UNL     1       6.823   3.569  11.865  0.00  0.00    +0.000 F 
ATOM     34  C   UNL     1       5.316   3.774  13.673  0.00  0.00    +0.000 A 
ATOM     35  C   UNL     1       5.010   4.308  14.928  0.00  0.00    +0.000 A 
ENDBRANCH  26  29
ENDBRANCH  25  26
ENDBRANCH  13  25
TORSDOF 6
ENDMDL
MODEL 2
REMARK VINA RESULT:      -7.1      3.122      4.806
REMARK  Name = 
REMARK  9 active torsions:
REMARK  status: ('A' for Active; 'I' for Inactive)
REMARK    1  A    between atoms: C_1  and  O_2
REMARK    2  A    between atoms: O_2  and  C_3
REMARK    3  A    between atoms: C_8  and  O_9
REMARK    4  A    between atoms: O_9  and  C_10
REMARK    5  A    between atoms: C_16  and  O_17
REMARK    6  A    between atoms: O_17  and  C_18
REMARK    7  A    between atoms: C_19  and  O_20
REMARK    8  A    between atoms: O_20  and  S_21
REMARK    9  A    between atoms: S_21  and  C_24
REMARK                            x       y       z     vdW  Elec       q    Type
REMARK                         _______ _______ _______ _____ _____    ______ ____
ROOT
ATOM      1  C   UNL     1      -1.034  14.043  22.956  0.00  0.00    +0.000 A 
ATOM      2  C   UNL     1      -1.689  12.822  23.148  0.00  0.00    +0.000 A 
ATOM      3  C   UNL     1      -1.211  11.680  22.510  0.00  0.00    +0.000 A 
ATOM      4  C   UNL     1      -0.270  11.765  21.472  0.00  0.00    +0.000 A 
ATOM      5  C   UNL     1       0.413  12.970  21.314  0.00  0.00    +0.000 A 
ATOM      6  C   UNL     1       0.084  14.090  22.100  0.00  0.00    +0.000 A 
ATOM      7  C   UNL     1       0.104  10.422  20.851  0.00  0.00    +0.000 C 
ATOM      8  C   UNL     1       0.814  10.509  19.504  0.00  0.00    +0.000 C 
ATOM      9  C   UNL     1       1.385   9.184  19.077  0.00  0.00    +0.000 A 
ATOM     10  C   UNL     1       1.632   8.982  17.717  0.00  0.00    +0.000 A 
ATOM     11  C   UNL     1       2.297   7.846  17.286  0.00  0.00    +0.000 A 
ATOM     12  C   UNL     1       2.720   6.882  18.205  0.00  0.00    +0.000 A 
ATOM     13  C   UNL     1       2.425   7.039  19.577  0.00  0.00    +0.000 A 
ATOM     14  C   UNL     1       1.752   8.210  20.023  0.00  0.00    +0.000 A 
ATOM     15  C   UNL     1       1.362   8.372  21.488  0.00  0.00    +0.000 C 
ATOM     16  N   UNL     1       0.809   9.668  21.889  0.00  0.00    +0.000 NA
ATOM     17  C   UNL     1       0.002   9.615  23.145  0.00  0.00    +0.000 C 
ATOM     18  C   UNL     1      -1.415  10.288  23.068  0.00  0.00    +0.000 C 
ENDROOT
BRANCH   1  20
ATOM     19  C   UNL     1      -0.641  15.622  24.688  0.00  0.00    +0.000 C 
ATOM     20  O   UNL     1      -1.426  15.198  23.580  0.00  0.00    +0.000 OA
ENDBRANCH   1  20
BRANCH   6  21
ATOM     21  O   UNL     1       0.976  15.124  21.955  0.00  0.00    +0.000 OA
ATOM     22  C   UNL     1       2.343  14.788  21.737  0.00  0.00    +0.000 C 
ENDBRANCH   6  21
BRANCH  12  23
ATOM     23  O   UNL     1       3.506   5.841  17.792  0.00  0.00    +0.000 OA
ATOM     24  C   UNL     1       4.907   6.065  17.901  0.00  0.00    +0.000 C 
ENDBRANCH  12  23
BRANCH  13  25
ATOM     25  O   UNL     1       2.761   6.132  20.561  0.00  0.00    +0.000 OA
BRANCH  25  26
ATOM     26  S   UNL     1       1.918   4.759  20.853  0.00  0.00    +0.000 S 
ATOM     27  O   UNL     1       2.203   4.281  22.203  0.00  0.00    +0.000 OA
ATOM     28  O   UNL     1       0.574   4.882  20.337  0.00  0.00    +0.000 OA
BRANCH  26  29
ATOM     29  C   UNL     1       2.701   3.531  19.803  0.00  0.00    +0.000 A 
ATOM     30  C   UNL     1       2.016   3.116  18.653  0.00  0.00    +0.000 A 
ATOM     31  C   UNL     1       2.527   2.068  17.886  0.00  0.00    +0.000 A 
ATOM     32  C   UNL     1       3.711   1.457  18.278  0.00  0.00    +0.000 A 
ATOM     33  F   UNL     1       4.180   0.425  17.565  0.00  0.00    +0.000 F 
ATOM     34  C   UNL     1       4.412   1.887  19.407  0.00  0.00    +0.000 A 
ATOM     35  C   UNL     1       3.908   2.936  20.180  0.00  0.00    +0.000 A 
ENDBRANCH  26  29
ENDBRANCH  25  26
ENDBRANCH  13  25
TORSDOF 6
ENDMDL
MODEL 3
REMARK VINA RESULT:      -7.1      5.528      7.966
REMARK  Name = 
REMARK  9 active torsions:
REMARK  status: ('A' for Active; 'I' for Inactive)
REMARK    1  A    between atoms: C_1  and  O_2
REMARK    2  A    between atoms: O_2  and  C_3
REMARK    3  A    between atoms: C_8  and  O_9
REMARK    4  A    between atoms: O_9  and  C_10
REMARK    5  A    between atoms: C_16  and  O_17
REMARK    6  A    between atoms: O_17  and  C_18
REMARK    7  A    between atoms: C_19  and  O_20
REMARK    8  A    between atoms: O_20  and  S_21
REMARK    9  A    between atoms: S_21  and  C_24
REMARK                            x       y       z     vdW  Elec       q    Type
REMARK                         _______ _______ _______ _____ _____    ______ ____
ROOT
ATOM      1  C   UNL     1      -4.537  16.691  24.805  0.00  0.00    +0.000 A 
ATOM      2  C   UNL     1      -3.163  16.858  25.006  0.00  0.00    +0.000 A 
ATOM      3  C   UNL     1      -2.278  15.902  24.514  0.00  0.00    +0.000 A 
ATOM      4  C   UNL     1      -2.731  14.649  24.071  0.00  0.00    +0.000 A 
ATOM      5  C   UNL     1      -4.095  14.502  23.828  0.00  0.00    +0.000 A 
ATOM      6  C   UNL     1      -4.993  15.544  24.127  0.00  0.00    +0.000 A 
ATOM      7  C   UNL     1      -1.621  13.705  23.615  0.00  0.00    +0.000 C 
ATOM      8  C   UNL     1      -2.031  12.241  23.491  0.00  0.00    +0.000 C 
ATOM      9  C   UNL     1      -0.983  11.417  22.792  0.00  0.00    +0.000 A 
ATOM     10  C   UNL     1      -0.977  10.038  23.012  0.00  0.00    +0.000 A 
ATOM     11  C   UNL     1      -0.138   9.214  22.280  0.00  0.00    +0.000 A 
ATOM     12  C   UNL     1       0.722   9.754  21.319  0.00  0.00    +0.000 A 
ATOM     13  C   UNL     1       0.774  11.151  21.126  0.00  0.00    +0.000 A 
ATOM     14  C   UNL     1      -0.095  11.998  21.869  0.00  0.00    +0.000 A 
ATOM     15  C   UNL     1      -0.010  13.513  21.728  0.00  0.00    +0.000 C 
ATOM     16  N   UNL     1      -1.038  14.302  22.412  0.00  0.00    +0.000 NA
ATOM     17  C   UNL     1      -0.639  15.720  22.665  0.00  0.00    +0.000 C 
ATOM     18  C   UNL     1      -0.850  16.230  24.135  0.00  0.00    +0.000 C 
ENDROOT
BRANCH   1  20
ATOM     19  C   UNL     1      -5.952  18.518  24.248  0.00  0.00    +0.000 C 
ATOM     20  O   UNL     1      -5.462  17.610  25.228  0.00  0.00    +0.000 OA
ENDBRANCH   1  20
BRANCH   6  21
ATOM     21  O   UNL     1      -6.259  15.311  23.647  0.00  0.00    +0.000 OA
ATOM     22  C   UNL     1      -6.734  13.968  23.670  0.00  0.00    +0.000 C 
ENDBRANCH   6  21
BRANCH  12  23
ATOM     23  O   UNL     1       1.435   8.925  20.497  0.00  0.00    +0.000 OA
ATOM     24  C   UNL     1       1.464   7.559  20.899  0.00  0.00    +0.000 C 
ENDBRANCH  12  23
BRANCH  13  25
ATOM     25  O   UNL     1       1.611  11.790  20.234  0.00  0.00    +0.000 OA
BRANCH  25  26
ATOM     26  S   UNL     1       1.315  11.887  18.626  0.00  0.00    +0.000 S 
ATOM     27  O   UNL     1       1.305  13.287  18.210  0.00  0.00    +0.000 OA
ATOM     28  O   UNL     1       2.059  10.869  17.921  0.00  0.00    +0.000 OA
BRANCH  26  29
ATOM     29  C   UNL     1      -0.403  11.395  18.466  0.00  0.00    +0.000 A 
ATOM     30  C   UNL     1      -0.675  10.101  17.999  0.00  0.00    +0.000 A 
ATOM     31  C   UNL     1      -1.993   9.726  17.731  0.00  0.00    +0.000 A 
ATOM     32  C   UNL     1      -3.013  10.646  17.937  0.00  0.00    +0.000 A 
ATOM     33  F   UNL     1      -4.273  10.301  17.641  0.00  0.00    +0.000 F 
ATOM     34  C   UNL     1      -2.749  11.927  18.429  0.00  0.00    +0.000 A 
ATOM     35  C   UNL     1      -1.433  12.309  18.701  0.00  0.00    +0.000 A 
ENDBRANCH  26  29
ENDBRANCH  25  26
ENDBRANCH  13  25
TORSDOF 6
ENDMDL
MODEL 4
REMARK VINA RESULT:      -6.8      0.739      1.120
REMARK  Name = 
REMARK  9 active torsions:
REMARK  status: ('A' for Active; 'I' for Inactive)
REMARK    1  A    between atoms: C_1  and  O_2
REMARK    2  A    between atoms: O_2  and  C_3
REMARK    3  A    between atoms: C_8  and  O_9
REMARK    4  A    between atoms: O_9  and  C_10
REMARK    5  A    between atoms: C_16  and  O_17
REMARK    6  A    between atoms: O_17  and  C_18
REMARK    7  A    between atoms: C_19  and  O_20
REMARK    8  A    between atoms: O_20  and  S_21
REMARK    9  A    between atoms: S_21  and  C_24
REMARK                            x       y       z     vdW  Elec       q    Type
REMARK                         _______ _______ _______ _____ _____    ______ ____
ROOT
ATOM      1  C   UNL     1      -1.034  13.563  19.730  0.00  0.00    +0.000 A 
ATOM      2  C   UNL     1       0.363  13.566  19.651  0.00  0.00    +0.000 A 
ATOM      3  C   UNL     1       1.048  12.356  19.582  0.00  0.00    +0.000 A 
ATOM      4  C   UNL     1       0.408  11.139  19.867  0.00  0.00    +0.000 A 
ATOM      5  C   UNL     1      -0.985  11.132  19.899  0.00  0.00    +0.000 A 
ATOM      6  C   UNL     1      -1.713  12.329  19.760  0.00  0.00    +0.000 A 
ATOM      7  C   UNL     1       1.320   9.918  19.795  0.00  0.00    +0.000 C 
ATOM      8  C   UNL     1       0.765   8.658  20.452  0.00  0.00    +0.000 C 
ATOM      9  C   UNL     1       1.581   7.439  20.120  0.00  0.00    +0.000 A 
ATOM     10  C   UNL     1       1.505   6.342  20.983  0.00  0.00    +0.000 A 
ATOM     11  C   UNL     1       2.111   5.143  20.647  0.00  0.00    +0.000 A 
ATOM     12  C   UNL     1       2.815   5.017  19.446  0.00  0.00    +0.000 A 
ATOM     13  C   UNL     1       2.955   6.131  18.591  0.00  0.00    +0.000 A 
ATOM     14  C   UNL     1       2.324   7.361  18.929  0.00  0.00    +0.000 A 
ATOM     15  C   UNL     1       2.515   8.597  18.057  0.00  0.00    +0.000 C 
ATOM     16  N   UNL     1       1.713   9.776  18.391  0.00  0.00    +0.000 NA
ATOM     17  C   UNL     1       2.278  11.057  17.869  0.00  0.00    +0.000 C 
ATOM     18  C   UNL     1       2.400  12.220  18.916  0.00  0.00    +0.000 C 
ENDROOT
BRANCH   1  20
ATOM     19  C   UNL     1      -1.738  15.464  20.972  0.00  0.00    +0.000 C 
ATOM     20  O   UNL     1      -1.775  14.716  19.762  0.00  0.00    +0.000 OA
ENDBRANCH   1  20
BRANCH   6  21
ATOM     21  O   UNL     1      -3.063  12.120  19.618  0.00  0.00    +0.000 OA
ATOM     22  C   UNL     1      -3.913  12.572  20.668  0.00  0.00    +0.000 C 
ENDBRANCH   6  21
BRANCH  12  23
ATOM     23  O   UNL     1       3.281   3.792  19.052  0.00  0.00    +0.000 OA
ATOM     24  C   UNL     1       2.274   2.859  18.674  0.00  0.00    +0.000 C 
ENDBRANCH  12  23
BRANCH  13  25
ATOM     25  O   UNL     1       3.659   6.127  17.404  0.00  0.00    +0.000 OA
BRANCH  25  26
ATOM     26  S   UNL     1       5.290   6.246  17.319  0.00  0.00    +0.000 S 
ATOM     27  O   UNL     1       5.672   7.635  17.080  0.00  0.00    +0.000 OA
ATOM     28  O   UNL     1       5.902   5.435  18.347  0.00  0.00    +0.000 OA
BRANCH  26  29
ATOM     29  C   UNL     1       5.710   5.429  15.778  0.00  0.00    +0.000 A 
ATOM     30  C   UNL     1       4.756   4.575  15.205  0.00  0.00    +0.000 A 
ATOM     31  C   UNL     1       5.094   3.816  14.083  0.00  0.00    +0.000 A 
ATOM     32  C   UNL     1       6.372   3.926  13.552  0.00  0.00    +0.000 A 
ATOM     33  F   UNL     1       6.709   3.169  12.500  0.00  0.00    +0.000 F 
ATOM     34  C   UNL     1       7.316   4.797  14.101  0.00  0.00    +0.000 A 
ATOM     35  C   UNL     1       6.986   5.560  15.224  0.00  0.00    +0.000 A 
ENDBRANCH  26  29
ENDBRANCH  25  26
ENDBRANCH  13  25
TORSDOF 6
ENDMDL
MODEL 5
REMARK VINA RESULT:      -6.7      2.272      2.655
REMARK  Name = 
REMARK  9 active torsions:
REMARK  status: ('A' for Active; 'I' for Inactive)
REMARK    1  A    between atoms: C_1  and  O_2
REMARK    2  A    between atoms: O_2  and  C_3
REMARK    3  A    between atoms: C_8  and  O_9
REMARK    4  A    between atoms: O_9  and  C_10
REMARK    5  A    between atoms: C_16  and  O_17
REMARK    6  A    between atoms: O_17  and  C_18
REMARK    7  A    between atoms: C_19  and  O_20
REMARK    8  A    between atoms: O_20  and  S_21
REMARK    9  A    between atoms: S_21  and  C_24
REMARK                            x       y       z     vdW  Elec       q    Type
REMARK                         _______ _______ _______ _____ _____    ______ ____
ROOT
ATOM      1  C   UNL     1      -0.499  13.129  19.629  0.00  0.00    +0.000 A 
ATOM      2  C   UNL     1       0.841  13.036  19.239  0.00  0.00    +0.000 A 
ATOM      3  C   UNL     1       1.446  11.784  19.158  0.00  0.00    +0.000 A 
ATOM      4  C   UNL     1       0.844  10.646  19.717  0.00  0.00    +0.000 A 
ATOM      5  C   UNL     1      -0.504  10.730  20.061  0.00  0.00    +0.000 A 
ATOM      6  C   UNL     1      -1.198  11.950  19.952  0.00  0.00    +0.000 A 
ATOM      7  C   UNL     1       1.668   9.369  19.583  0.00  0.00    +0.000 C 
ATOM      8  C   UNL     1       1.232   8.222  20.489  0.00  0.00    +0.000 C 
ATOM      9  C   UNL     1       1.904   6.926  20.125  0.00  0.00    +0.000 A 
ATOM     10  C   UNL     1       1.987   5.931  21.102  0.00  0.00    +0.000 A 
ATOM     11  C   UNL     1       2.454   4.668  20.779  0.00  0.00    +0.000 A 
ATOM     12  C   UNL     1       2.858   4.374  19.474  0.00  0.00    +0.000 A 
ATOM     13  C   UNL     1       2.839   5.383  18.487  0.00  0.00    +0.000 A 
ATOM     14  C   UNL     1       2.349   6.679  18.814  0.00  0.00    +0.000 A 
ATOM     15  C   UNL     1       2.381   7.803  17.785  0.00  0.00    +0.000 C 
ATOM     16  N   UNL     1       1.722   9.059  18.153  0.00  0.00    +0.000 NA
ATOM     17  C   UNL     1       2.200  10.241  17.373  0.00  0.00    +0.000 C 
ATOM     18  C   UNL     1       2.603  11.496  18.225  0.00  0.00    +0.000 C 
ENDROOT
BRANCH   1  20
ATOM     19  C   UNL     1      -0.427  15.489  19.355  0.00  0.00    +0.000 C 
ATOM     20  O   UNL     1      -1.168  14.323  19.694  0.00  0.00    +0.000 OA
ENDBRANCH   1  20
BRANCH   6  21
ATOM     21  O   UNL     1      -2.552  11.813  20.142  0.00  0.00    +0.000 OA
ATOM     22  C   UNL     1      -3.380  11.798  18.983  0.00  0.00    +0.000 C 
ENDBRANCH   6  21
BRANCH  12  23
ATOM     23  O   UNL     1       3.173   3.089  19.128  0.00  0.00    +0.000 OA
ATOM     24  C   UNL     1       3.702   2.295  20.185  0.00  0.00    +0.000 C 
ENDBRANCH  12  23
BRANCH  13  25
ATOM     25  O   UNL     1       3.250   5.212  17.181  0.00  0.00    +0.000 OA
BRANCH  25  26
ATOM     26  S   UNL     1       4.695   4.563  16.765  0.00  0.00    +0.000 S 
ATOM     27  O   UNL     1       4.881   3.290  17.456  0.00  0.00    +0.000 OA
ATOM     28  O   UNL     1       4.921   4.721  15.346  0.00  0.00    +0.000 OA
BRANCH  26  29
ATOM     29  C   UNL     1       5.901   5.639  17.545  0.00  0.00    +0.000 A 
ATOM     30  C   UNL     1       6.172   6.873  16.936  0.00  0.00    +0.000 A 
ATOM     31  C   UNL     1       7.199   7.677  17.432  0.00  0.00    +0.000 A 
ATOM     32  C   UNL     1       7.932   7.238  18.528  0.00  0.00    +0.000 A 
ATOM     33  F   UNL     1       8.944   7.991  18.980  0.00  0.00    +0.000 F 
ATOM     34  C   UNL     1       7.646   6.024  19.155  0.00  0.00    +0.000 A 
ATOM     35  C   UNL     1       6.620   5.213  18.665  0.00  0.00    +0.000 A 
ENDBRANCH  26  29
ENDBRANCH  25  26
ENDBRANCH  13  25
TORSDOF 6
ENDMDL
MODEL 6
REMARK VINA RESULT:      -6.6      2.746      4.256
REMARK  Name = 
REMARK  9 active torsions:
REMARK  status: ('A' for Active; 'I' for Inactive)
REMARK    1  A    between atoms: C_1  and  O_2
REMARK    2  A    between atoms: O_2  and  C_3
REMARK    3  A    between atoms: C_8  and  O_9
REMARK    4  A    between atoms: O_9  and  C_10
REMARK    5  A    between atoms: C_16  and  O_17
REMARK    6  A    between atoms: O_17  and  C_18
REMARK    7  A    between atoms: C_19  and  O_20
REMARK    8  A    between atoms: O_20  and  S_21
REMARK    9  A    between atoms: S_21  and  C_24
REMARK                            x       y       z     vdW  Elec       q    Type
REMARK                         _______ _______ _______ _____ _____    ______ ____
ROOT
ATOM      1  C   UNL     1      -0.770  13.895  19.637  0.00  0.00    +0.000 A 
ATOM      2  C   UNL     1      -1.544  12.743  19.809  0.00  0.00    +0.000 A 
ATOM      3  C   UNL     1      -0.949  11.491  19.673  0.00  0.00    +0.000 A 
ATOM      4  C   UNL     1       0.325  11.348  19.100  0.00  0.00    +0.000 A 
ATOM      5  C   UNL     1       1.110  12.493  18.974  0.00  0.00    +0.000 A 
ATOM      6  C   UNL     1       0.593  13.759  19.306  0.00  0.00    +0.000 A 
ATOM      7  C   UNL     1       0.802   9.904  18.980  0.00  0.00    +0.000 C 
ATOM      8  C   UNL     1       1.984   9.690  18.041  0.00  0.00    +0.000 C 
ATOM      9  C   UNL     1       2.567   8.309  18.169  0.00  0.00    +0.000 A 
ATOM     10  C   UNL     1       3.307   7.805  17.096  0.00  0.00    +0.000 A 
ATOM     11  C   UNL     1       3.993   6.608  17.217  0.00  0.00    +0.000 A 
ATOM     12  C   UNL     1       3.946   5.883  18.411  0.00  0.00    +0.000 A 
ATOM     13  C   UNL     1       3.155   6.344  19.485  0.00  0.00    +0.000 A 
ATOM     14  C   UNL     1       2.458   7.579  19.367  0.00  0.00    +0.000 A 
ATOM     15  C   UNL     1       1.544   8.065  20.485  0.00  0.00    +0.000 C 
ATOM     16  N   UNL     1       0.985   9.413  20.348  0.00  0.00    +0.000 NA
ATOM     17  C   UNL     1      -0.249   9.638  21.161  0.00  0.00    +0.000 C 
ATOM     18  C   UNL     1      -1.465  10.260  20.386  0.00  0.00    +0.000 C 
ENDROOT
BRANCH   1  20
ATOM     19  C   UNL     1      -2.248  15.332  20.820  0.00  0.00    +0.000 C 
ATOM     20  O   UNL     1      -1.279  15.158  19.793  0.00  0.00    +0.000 OA
ENDBRANCH   1  20
BRANCH   6  21
ATOM     21  O   UNL     1       1.551  14.743  19.311  0.00  0.00    +0.000 OA
ATOM     22  C   UNL     1       2.633  14.611  18.394  0.00  0.00    +0.000 C 
ENDBRANCH   6  21
BRANCH  12  23
ATOM     23  O   UNL     1       4.744   4.784  18.575  0.00  0.00    +0.000 OA
ATOM     24  C   UNL     1       6.085   5.067  18.961  0.00  0.00    +0.000 C 
ENDBRANCH  12  23
BRANCH  13  25
ATOM     25  O   UNL     1       3.007   5.689  20.691  0.00  0.00    +0.000 OA
BRANCH  25  26
ATOM     26  S   UNL     1       1.973   4.441  20.922  0.00  0.00    +0.000 S 
ATOM     27  O   UNL     1       2.171   3.875  22.253  0.00  0.00    +0.000 OA
ATOM     28  O   UNL     1       0.666   4.776  20.402  0.00  0.00    +0.000 OA
BRANCH  26  29
ATOM     29  C   UNL     1       2.585   3.156  19.829  0.00  0.00    +0.000 A 
ATOM     30  C   UNL     1       3.699   2.414  20.247  0.00  0.00    +0.000 A 
ATOM     31  C   UNL     1       4.288   1.501  19.370  0.00  0.00    +0.000 A 
ATOM     32  C   UNL     1       3.754   1.342  18.098  0.00  0.00    +0.000 A 
ATOM     33  F   UNL     1       4.343   0.496  17.244  0.00  0.00    +0.000 F 
ATOM     34  C   UNL     1       2.626   2.058  17.689  0.00  0.00    +0.000 A 
ATOM     35  C   UNL     1       2.030   2.973  18.560  0.00  0.00    +0.000 A 
ENDBRANCH  26  29
ENDBRANCH  25  26
ENDBRANCH  13  25
TORSDOF 6
ENDMDL
MODEL 7
REMARK VINA RESULT:      -6.5      4.391     10.003
REMARK  Name = 
REMARK  9 active torsions:
REMARK  status: ('A' for Active; 'I' for Inactive)
REMARK    1  A    between atoms: C_1  and  O_2
REMARK    2  A    between atoms: O_2  and  C_3
REMARK    3  A    between atoms: C_8  and  O_9
REMARK    4  A    between atoms: O_9  and  C_10
REMARK    5  A    between atoms: C_16  and  O_17
REMARK    6  A    between atoms: O_17  and  C_18
REMARK    7  A    between atoms: C_19  and  O_20
REMARK    8  A    between atoms: O_20  and  S_21
REMARK    9  A    between atoms: S_21  and  C_24
REMARK                            x       y       z     vdW  Elec       q    Type
REMARK                         _______ _______ _______ _____ _____    ______ ____
ROOT
ATOM      1  C   UNL     1       2.402   7.505  18.374  0.00  0.00    +0.000 A 
ATOM      2  C   UNL     1       2.045   8.666  17.680  0.00  0.00    +0.000 A 
ATOM      3  C   UNL     1       1.445   9.718  18.368  0.00  0.00    +0.000 A 
ATOM      4  C   UNL     1       0.937   9.545  19.666  0.00  0.00    +0.000 A 
ATOM      5  C   UNL     1       1.333   8.409  20.369  0.00  0.00    +0.000 A 
ATOM      6  C   UNL     1       2.123   7.421  19.752  0.00  0.00    +0.000 A 
ATOM      7  C   UNL     1       0.266  10.785  20.249  0.00  0.00    +0.000 C 
ATOM      8  C   UNL     1      -0.609  10.531  21.471  0.00  0.00    +0.000 C 
ATOM      9  C   UNL     1      -1.023  11.809  22.148  0.00  0.00    +0.000 A 
ATOM     10  C   UNL     1      -2.164  11.787  22.954  0.00  0.00    +0.000 A 
ATOM     11  C   UNL     1      -2.502  12.890  23.721  0.00  0.00    +0.000 A 
ATOM     12  C   UNL     1      -1.712  14.042  23.691  0.00  0.00    +0.000 A 
ATOM     13  C   UNL     1      -0.591  14.106  22.837  0.00  0.00    +0.000 A 
ATOM     14  C   UNL     1      -0.235  12.970  22.056  0.00  0.00    +0.000 A 
ATOM     15  C   UNL     1       0.931  13.036  21.077  0.00  0.00    +0.000 C 
ATOM     16  N   UNL     1       1.323  11.783  20.426  0.00  0.00    +0.000 NA
ATOM     17  C   UNL     1       2.085  11.978  19.155  0.00  0.00    +0.000 C 
ATOM     18  C   UNL     1       1.564  11.159  17.921  0.00  0.00    +0.000 C 
ENDROOT
BRANCH   1  20
ATOM     19  C   UNL     1       4.379   6.652  17.367  0.00  0.00    +0.000 C 
ATOM     20  O   UNL     1       3.030   6.447  17.770  0.00  0.00    +0.000 OA
ENDBRANCH   1  20
BRANCH   6  21
ATOM     21  O   UNL     1       2.582   6.475  20.636  0.00  0.00    +0.000 OA
ATOM     22  C   UNL     1       1.829   5.273  20.765  0.00  0.00    +0.000 C 
ENDBRANCH   6  21
BRANCH  12  23
ATOM     23  O   UNL     1      -1.965  15.067  24.561  0.00  0.00    +0.000 OA
ATOM     24  C   UNL     1      -3.280  15.082  25.108  0.00  0.00    +0.000 C 
ENDBRANCH  12  23
BRANCH  13  25
ATOM     25  O   UNL     1       0.233  15.205  22.701  0.00  0.00    +0.000 OA
BRANCH  25  26
ATOM     26  S   UNL     1      -0.178  16.544  21.852  0.00  0.00    +0.000 S 
ATOM     27  O   UNL     1      -1.340  16.260  21.015  0.00  0.00    +0.000 OA
ATOM     28  O   UNL     1      -0.091  17.714  22.696  0.00  0.00    +0.000 OA
BRANCH  26  29
ATOM     29  C   UNL     1       1.153  16.735  20.663  0.00  0.00    +0.000 A 
ATOM     30  C   UNL     1       0.811  16.867  19.310  0.00  0.00    +0.000 A 
ATOM     31  C   UNL     1       1.817  16.881  18.342  0.00  0.00    +0.000 A 
ATOM     32  C   UNL     1       3.143  16.766  18.742  0.00  0.00    +0.000 A 
ATOM     33  F   UNL     1       4.105  16.738  17.812  0.00  0.00    +0.000 F 
ATOM     34  C   UNL     1       3.489  16.663  20.092  0.00  0.00    +0.000 A 
ATOM     35  C   UNL     1       2.488  16.650  21.066  0.00  0.00    +0.000 A 
ENDBRANCH  26  29
ENDBRANCH  25  26
ENDBRANCH  13  25
TORSDOF 6
ENDMDL
MODEL 8
REMARK VINA RESULT:      -6.5      5.587     11.603
REMARK  Name = 
REMARK  9 active torsions:
REMARK  status: ('A' for Active; 'I' for Inactive)
REMARK    1  A    between atoms: C_1  and  O_2
REMARK    2  A    between atoms: O_2  and  C_3
REMARK    3  A    between atoms: C_8  and  O_9
REMARK    4  A    between atoms: O_9  and  C_10
REMARK    5  A    between atoms: C_16  and  O_17
REMARK    6  A    between atoms: O_17  and  C_18
REMARK    7  A    between atoms: C_19  and  O_20
REMARK    8  A    between atoms: O_20  and  S_21
REMARK    9  A    between atoms: S_21  and  C_24
REMARK                            x       y       z     vdW  Elec       q    Type
REMARK                         _______ _______ _______ _____ _____    ______ ____
ROOT
ATOM      1  C   UNL     1       1.445   8.692  19.830  0.00  0.00    +0.000 A 
ATOM      2  C   UNL     1       1.452   8.783  21.225  0.00  0.00    +0.000 A 
ATOM      3  C   UNL     1       0.737   9.804  21.849  0.00  0.00    +0.000 A 
ATOM      4  C   UNL     1       0.243  10.897  21.120  0.00  0.00    +0.000 A 
ATOM      5  C   UNL     1       0.196  10.782  19.732  0.00  0.00    +0.000 A 
ATOM      6  C   UNL     1       0.731   9.651  19.086  0.00  0.00    +0.000 A 
ATOM      7  C   UNL     1      -0.469  11.947  21.968  0.00  0.00    +0.000 C 
ATOM      8  C   UNL     1      -0.678  13.294  21.285  0.00  0.00    +0.000 C 
ATOM      9  C   UNL     1      -1.607  14.186  22.063  0.00  0.00    +0.000 A 
ATOM     10  C   UNL     1      -1.531  15.564  21.845  0.00  0.00    +0.000 A 
ATOM     11  C   UNL     1      -2.462  16.417  22.416  0.00  0.00    +0.000 A 
ATOM     12  C   UNL     1      -3.483  15.911  23.226  0.00  0.00    +0.000 A 
ATOM     13  C   UNL     1      -3.539  14.529  23.507  0.00  0.00    +0.000 A 
ATOM     14  C   UNL     1      -2.591  13.650  22.913  0.00  0.00    +0.000 A 
ATOM     15  C   UNL     1      -2.588  12.165  23.254  0.00  0.00    +0.000 C 
ATOM     16  N   UNL     1      -1.680  11.308  22.487  0.00  0.00    +0.000 NA
ATOM     17  C   UNL     1      -1.348  10.020  23.169  0.00  0.00    +0.000 C 
ATOM     18  C   UNL     1       0.181   9.672  23.250  0.00  0.00    +0.000 C 
ENDROOT
BRANCH   1  20
ATOM     19  C   UNL     1       2.404   6.517  19.891  0.00  0.00    +0.000 C 
ATOM     20  O   UNL     1       2.094   7.693  19.152  0.00  0.00    +0.000 OA
ENDBRANCH   1  20
BRANCH   6  21
ATOM     21  O   UNL     1       0.428   9.608  17.747  0.00  0.00    +0.000 OA
ATOM     22  C   UNL     1      -0.935   9.786  17.375  0.00  0.00    +0.000 C 
ENDBRANCH   6  21
BRANCH  12  23
ATOM     23  O   UNL     1      -4.483  16.736  23.661  0.00  0.00    +0.000 OA
ATOM     24  C   UNL     1      -4.245  17.357  24.921  0.00  0.00    +0.000 C 
ENDBRANCH  12  23
BRANCH  13  25
ATOM     25  O   UNL     1      -4.478  13.931  24.323  0.00  0.00    +0.000 OA
BRANCH  25  26
ATOM     26  S   UNL     1      -6.005  13.585  23.842  0.00  0.00    +0.000 S 
ATOM     27  O   UNL     1      -6.307  12.185  24.128  0.00  0.00    +0.000 OA
ATOM     28  O   UNL     1      -6.896  14.665  24.199  0.00  0.00    +0.000 OA
BRANCH  26  29
ATOM     29  C   UNL     1      -5.922  13.633  22.049  0.00  0.00    +0.000 A 
ATOM     30  C   UNL     1      -6.325  14.810  21.404  0.00  0.00    +0.000 A 
ATOM     31  C   UNL     1      -6.405  14.841  20.010  0.00  0.00    +0.000 A 
ATOM     32  C   UNL     1      -6.078  13.700  19.288  0.00  0.00    +0.000 A 
ATOM     33  F   UNL     1      -6.194  13.717  17.955  0.00  0.00    +0.000 F 
ATOM     34  C   UNL     1      -5.648  12.534  19.926  0.00  0.00    +0.000 A 
ATOM     35  C   UNL     1      -5.564  12.495  21.320  0.00  0.00    +0.000 A 
ENDBRANCH  26  29
ENDBRANCH  25  26
ENDBRANCH  13  25
TORSDOF 6
ENDMDL
MODEL 9
REMARK VINA RESULT:      -6.5      4.563     10.225
REMARK  Name = 
REMARK  9 active torsions:
REMARK  status: ('A' for Active; 'I' for Inactive)
REMARK    1  A    between atoms: C_1  and  O_2
REMARK    2  A    between atoms: O_2  and  C_3
REMARK    3  A    between atoms: C_8  and  O_9
REMARK    4  A    between atoms: O_9  and  C_10
REMARK    5  A    between atoms: C_16  and  O_17
REMARK    6  A    between atoms: O_17  and  C_18
REMARK    7  A    between atoms: C_19  and  O_20
REMARK    8  A    between atoms: O_20  and  S_21
REMARK    9  A    between atoms: S_21  and  C_24
REMARK                            x       y       z     vdW  Elec       q    Type
REMARK                         _______ _______ _______ _____ _____    ______ ____
ROOT
ATOM      1  C   UNL     1       2.186   7.981  18.502  0.00  0.00    +0.000 A 
ATOM      2  C   UNL     1       1.888   9.173  17.834  0.00  0.00    +0.000 A 
ATOM      3  C   UNL     1       1.302  10.224  18.536  0.00  0.00    +0.000 A 
ATOM      4  C   UNL     1       0.751  10.029  19.813  0.00  0.00    +0.000 A 
ATOM      5  C   UNL     1       1.089   8.860  20.493  0.00  0.00    +0.000 A 
ATOM      6  C   UNL     1       1.864   7.865  19.868  0.00  0.00    +0.000 A 
ATOM      7  C   UNL     1       0.105  11.274  20.414  0.00  0.00    +0.000 C 
ATOM      8  C   UNL     1      -0.815  11.013  21.603  0.00  0.00    +0.000 C 
ATOM      9  C   UNL     1      -1.206  12.284  22.307  0.00  0.00    +0.000 A 
ATOM     10  C   UNL     1      -2.370  12.276  23.079  0.00  0.00    +0.000 A 
ATOM     11  C   UNL     1      -2.695  13.366  23.869  0.00  0.00    +0.000 A 
ATOM     12  C   UNL     1      -1.867  14.492  23.897  0.00  0.00    +0.000 A 
ATOM     13  C   UNL     1      -0.719  14.543  23.078  0.00  0.00    +0.000 A 
ATOM     14  C   UNL     1      -0.378  13.420  22.273  0.00  0.00    +0.000 A 
ATOM     15  C   UNL     1       0.818  13.476  21.330  0.00  0.00    +0.000 C 
ATOM     16  N   UNL     1       1.188  12.230  20.652  0.00  0.00    +0.000 NA
ATOM     17  C   UNL     1       1.993  12.436  19.410  0.00  0.00    +0.000 C 
ATOM     18  C   UNL     1       1.482  11.673  18.137  0.00  0.00    +0.000 C 
ENDROOT
BRANCH   1  20
ATOM     19  C   UNL     1       4.166   7.088  17.536  0.00  0.00    +0.000 C 
ATOM     20  O   UNL     1       2.796   6.920  17.884  0.00  0.00    +0.000 OA
ENDBRANCH   1  20
BRANCH   6  21
ATOM     21  O   UNL     1       2.266   6.879  20.736  0.00  0.00    +0.000 OA
ATOM     22  C   UNL     1       1.647   5.602  20.613  0.00  0.00    +0.000 C 
ENDBRANCH   6  21
BRANCH  12  23
ATOM     23  O   UNL     1      -2.112  15.499  24.791  0.00  0.00    +0.000 OA
ATOM     24  C   UNL     1      -1.407  15.394  26.023  0.00  0.00    +0.000 C 
ENDBRANCH  12  23
BRANCH  13  25
ATOM     25  O   UNL     1       0.144  15.618  22.999  0.00  0.00    +0.000 OA
BRANCH  25  26
ATOM     26  S   UNL     1      -0.240  17.035  22.273  0.00  0.00    +0.000 S 
ATOM     27  O   UNL     1      -1.653  17.033  21.904  0.00  0.00    +0.000 OA
ATOM     28  O   UNL     1       0.383  18.136  22.971  0.00  0.00    +0.000 OA
BRANCH  26  29
ATOM     29  C   UNL     1       0.603  16.959  20.691  0.00  0.00    +0.000 A 
ATOM     30  C   UNL     1       1.998  17.093  20.682  0.00  0.00    +0.000 A 
ATOM     31  C   UNL     1       2.677  17.177  19.464  0.00  0.00    +0.000 A 
ATOM     32  C   UNL     1       1.952  17.121  18.281  0.00  0.00    +0.000 A 
ATOM     33  F   UNL     1       2.597  17.242  17.114  0.00  0.00    +0.000 F 
ATOM     34  C   UNL     1       0.564  16.958  18.285  0.00  0.00    +0.000 A 
ATOM     35  C   UNL     1      -0.122  16.872  19.499  0.00  0.00    +0.000 A 
ENDBRANCH  26  29
ENDBRANCH  25  26
ENDBRANCH  13  25
TORSDOF 6
ENDMDL
