MODEL 1
REMARK VINA RESULT:      -7.2      0.000      0.000
REMARK  Name = 
REMARK  9 active torsions:
REMARK  status: ('A' for Active; 'I' for Inactive)
REMARK    1  A    between atoms: C_1  and  O_2
REMARK    2  A    between atoms: O_2  and  C_3
REMARK    3  A    between atoms: C_6  and  C_7
REMARK    4  A    between atoms: C_7  and  C_8
REMARK    5  A    between atoms: C_8  and  N_9
REMARK    6  A    between atoms: N_12  and  C_13
REMARK    7  A    between atoms: C_16  and  N_17
REMARK    8  A    between atoms: C_23  and  O_24
REMARK    9  A    between atoms: O_24  and  C_25
REMARK                            x       y       z     vdW  Elec       q    Type
REMARK                         _______ _______ _______ _____ _____    ______ ____
ROOT
ATOM      1  N   UNL     1       2.170   6.610  20.675  0.00  0.00    +0.000 N 
ATOM      2  C   UNL     1       2.665   6.512  19.389  0.00  0.00    +0.000 C 
ATOM      3  O   UNL     1       2.187   7.166  18.467  0.00  0.00    +0.000 OA
ATOM      4  N   UNL     1       3.695   5.603  19.278  0.00  0.00    +0.000 N 
ATOM      5  H   UNL     1       2.864   6.519  21.405  0.00  0.00    +0.000 HD
ATOM      6  H   UNL     1       3.718   4.885  19.985  0.00  0.00    +0.000 HD
ENDROOT
BRANCH   4   7
ATOM      7  C   UNL     1       4.447   5.389  18.098  0.00  0.00    +0.000 A 
ATOM      8  C   UNL     1       4.241   4.280  17.266  0.00  0.00    +0.000 A 
ATOM      9  C   UNL     1       5.020   4.074  16.125  0.00  0.00    +0.000 A 
ATOM     10  C   UNL     1       6.012   4.999  15.797  0.00  0.00    +0.000 A 
ATOM     11  C   UNL     1       6.218   6.129  16.599  0.00  0.00    +0.000 A 
ATOM     12  C   UNL     1       5.428   6.323  17.744  0.00  0.00    +0.000 A 
BRANCH  10  13
ATOM     13  N   UNL     1       6.836   4.781  14.601  0.00  0.00    +0.000 N 
ATOM     14  O   UNL     1       6.452   3.935  13.780  0.00  0.00    +0.000 OA
ATOM     15  O   UNL     1       7.867   5.458  14.482  0.00  0.00    +0.000 OA
ENDBRANCH  10  13
ENDBRANCH   4   7
BRANCH   1  16
ATOM     16  C   UNL     1       1.123   7.603  20.869  0.00  0.00    +0.000 C 
BRANCH  16  17
ATOM     17  C   UNL     1       1.468   8.717  21.854  0.00  0.00    +0.000 C 
BRANCH  17  21
ATOM     18  C   UNL     1      -1.520  11.863  22.059  0.00  0.00    +0.000 A 
ATOM     19  C   UNL     1      -1.336  10.974  23.128  0.00  0.00    +0.000 A 
ATOM     20  C   UNL     1      -0.374   9.964  23.067  0.00  0.00    +0.000 A 
ATOM     21  C   UNL     1       0.389   9.777  21.912  0.00  0.00    +0.000 A 
ATOM     22  C   UNL     1       0.140  10.612  20.815  0.00  0.00    +0.000 A 
ATOM     23  C   UNL     1      -0.806  11.653  20.870  0.00  0.00    +0.000 A 
BRANCH  18  25
ATOM     24  C   UNL     1      -3.658  12.611  22.754  0.00  0.00    +0.000 C 
ATOM     25  O   UNL     1      -2.396  12.911  22.155  0.00  0.00    +0.000 OA
ENDBRANCH  18  25
BRANCH  23  26
ATOM     26  O   UNL     1      -0.866  12.350  19.693  0.00  0.00    +0.000 OA
ATOM     27  C   UNL     1      -1.815  11.970  18.709  0.00  0.00    +0.000 C 
ENDBRANCH  23  26
ENDBRANCH  17  21
ENDBRANCH  16  17
ENDBRANCH   1  16
TORSDOF 7
ENDMDL
MODEL 2
REMARK VINA RESULT:      -7.2      0.341      1.011
REMARK  Name = 
REMARK  9 active torsions:
REMARK  status: ('A' for Active; 'I' for Inactive)
REMARK    1  A    between atoms: C_1  and  O_2
REMARK    2  A    between atoms: O_2  and  C_3
REMARK    3  A    between atoms: C_6  and  C_7
REMARK    4  A    between atoms: C_7  and  C_8
REMARK    5  A    between atoms: C_8  and  N_9
REMARK    6  A    between atoms: N_12  and  C_13
REMARK    7  A    between atoms: C_16  and  N_17
REMARK    8  A    between atoms: C_23  and  O_24
REMARK    9  A    between atoms: O_24  and  C_25
REMARK                            x       y       z     vdW  Elec       q    Type
REMARK                         _______ _______ _______ _____ _____    ______ ____
ROOT
ATOM      1  N   UNL     1       2.175   6.962  20.581  0.00  0.00    +0.000 N 
ATOM      2  C   UNL     1       2.698   6.797  19.313  0.00  0.00    +0.000 C 
ATOM      3  O   UNL     1       2.252   7.415  18.351  0.00  0.00    +0.000 OA
ATOM      4  N   UNL     1       3.715   5.869  19.268  0.00  0.00    +0.000 N 
ATOM      5  H   UNL     1       2.851   6.894  21.331  0.00  0.00    +0.000 HD
ATOM      6  H   UNL     1       3.711   5.184  20.008  0.00  0.00    +0.000 HD
ENDROOT
BRANCH   4   7
ATOM      7  C   UNL     1       4.491   5.590  18.117  0.00  0.00    +0.000 A 
ATOM      8  C   UNL     1       5.333   6.543  17.527  0.00  0.00    +0.000 A 
ATOM      9  C   UNL     1       6.062   6.252  16.372  0.00  0.00    +0.000 A 
ATOM     10  C   UNL     1       5.965   4.982  15.803  0.00  0.00    +0.000 A 
ATOM     11  C   UNL     1       5.152   4.004  16.391  0.00  0.00    +0.000 A 
ATOM     12  C   UNL     1       4.423   4.311  17.552  0.00  0.00    +0.000 A 
BRANCH  10  13
ATOM     13  N   UNL     1       6.727   4.676  14.585  0.00  0.00    +0.000 N 
ATOM     14  O   UNL     1       6.314   3.759  13.860  0.00  0.00    +0.000 OA
ATOM     15  O   UNL     1       7.739   5.353  14.355  0.00  0.00    +0.000 OA
ENDBRANCH  10  13
ENDBRANCH   4   7
BRANCH   1  16
ATOM     16  C   UNL     1       1.140   7.979  20.705  0.00  0.00    +0.000 C 
BRANCH  16  17
ATOM     17  C   UNL     1       1.220   8.827  21.971  0.00  0.00    +0.000 C 
BRANCH  17  21
ATOM     18  C   UNL     1      -1.710  12.031  22.077  0.00  0.00    +0.000 A 
ATOM     19  C   UNL     1      -1.508  11.204  23.190  0.00  0.00    +0.000 A 
ATOM     20  C   UNL     1      -0.564  10.175  23.162  0.00  0.00    +0.000 A 
ATOM     21  C   UNL     1       0.160   9.907  21.998  0.00  0.00    +0.000 A 
ATOM     22  C   UNL     1      -0.109  10.680  20.861  0.00  0.00    +0.000 A 
ATOM     23  C   UNL     1      -1.036  11.739  20.882  0.00  0.00    +0.000 A 
BRANCH  18  25
ATOM     24  C   UNL     1      -3.934  12.813  21.835  0.00  0.00    +0.000 C 
ATOM     25  O   UNL     1      -2.567  13.098  22.136  0.00  0.00    +0.000 OA
ENDBRANCH  18  25
BRANCH  23  26
ATOM     26  O   UNL     1      -1.121  12.366  19.667  0.00  0.00    +0.000 OA
ATOM     27  C   UNL     1      -1.607  11.645  18.547  0.00  0.00    +0.000 C 
ENDBRANCH  23  26
ENDBRANCH  17  21
ENDBRANCH  16  17
ENDBRANCH   1  16
TORSDOF 7
ENDMDL
MODEL 3
REMARK VINA RESULT:      -7.1      3.629      9.855
REMARK  Name = 
REMARK  9 active torsions:
REMARK  status: ('A' for Active; 'I' for Inactive)
REMARK    1  A    between atoms: C_1  and  O_2
REMARK    2  A    between atoms: O_2  and  C_3
REMARK    3  A    between atoms: C_6  and  C_7
REMARK    4  A    between atoms: C_7  and  C_8
REMARK    5  A    between atoms: C_8  and  N_9
REMARK    6  A    between atoms: N_12  and  C_13
REMARK    7  A    between atoms: C_16  and  N_17
REMARK    8  A    between atoms: C_23  and  O_24
REMARK    9  A    between atoms: O_24  and  C_25
REMARK                            x       y       z     vdW  Elec       q    Type
REMARK                         _______ _______ _______ _____ _____    ______ ____
ROOT
ATOM      1  N   UNL     1       1.523  10.186  18.430  0.00  0.00    +0.000 N 
ATOM      2  C   UNL     1       0.392  10.310  19.215  0.00  0.00    +0.000 C 
ATOM      3  O   UNL     1      -0.483   9.448  19.218  0.00  0.00    +0.000 OA
ATOM      4  N   UNL     1       0.363  11.486  19.931  0.00  0.00    +0.000 N 
ATOM      5  H   UNL     1       2.366  10.567  18.838  0.00  0.00    +0.000 HD
ATOM      6  H   UNL     1       0.914  12.240  19.551  0.00  0.00    +0.000 HD
ENDROOT
BRANCH   4   7
ATOM      7  C   UNL     1      -0.628  11.813  20.889  0.00  0.00    +0.000 A 
ATOM      8  C   UNL     1      -0.663  11.231  22.164  0.00  0.00    +0.000 A 
ATOM      9  C   UNL     1      -1.670  11.546  23.078  0.00  0.00    +0.000 A 
ATOM     10  C   UNL     1      -2.652  12.471  22.723  0.00  0.00    +0.000 A 
ATOM     11  C   UNL     1      -2.622  13.086  21.465  0.00  0.00    +0.000 A 
ATOM     12  C   UNL     1      -1.603  12.759  20.554  0.00  0.00    +0.000 A 
BRANCH  10  13
ATOM     13  N   UNL     1      -3.716  12.800  23.681  0.00  0.00    +0.000 N 
ATOM     14  O   UNL     1      -4.106  11.902  24.442  0.00  0.00    +0.000 OA
ATOM     15  O   UNL     1      -4.159  13.957  23.673  0.00  0.00    +0.000 OA
ENDBRANCH  10  13
ENDBRANCH   4   7
BRANCH   1  16
ATOM     16  C   UNL     1       1.642   8.932  17.698  0.00  0.00    +0.000 C 
BRANCH  16  17
ATOM     17  C   UNL     1       2.839   8.070  18.092  0.00  0.00    +0.000 C 
BRANCH  17  21
ATOM     18  C   UNL     1       1.467   4.366  19.898  0.00  0.00    +0.000 A 
ATOM     19  C   UNL     1       1.719   5.500  20.684  0.00  0.00    +0.000 A 
ATOM     20  C   UNL     1       2.156   6.694  20.106  0.00  0.00    +0.000 A 
ATOM     21  C   UNL     1       2.413   6.768  18.735  0.00  0.00    +0.000 A 
ATOM     22  C   UNL     1       2.244   5.608  17.969  0.00  0.00    +0.000 A 
ATOM     23  C   UNL     1       1.776   4.405  18.531  0.00  0.00    +0.000 A 
BRANCH  18  25
ATOM     24  C   UNL     1       1.661   2.700  21.571  0.00  0.00    +0.000 C 
ATOM     25  O   UNL     1       0.948   3.225  20.451  0.00  0.00    +0.000 OA
ENDBRANCH  18  25
BRANCH  23  26
ATOM     26  O   UNL     1       1.670   3.412  17.593  0.00  0.00    +0.000 OA
ATOM     27  C   UNL     1       2.581   2.326  17.627  0.00  0.00    +0.000 C 
ENDBRANCH  23  26
ENDBRANCH  17  21
ENDBRANCH  16  17
ENDBRANCH   1  16
TORSDOF 7
ENDMDL
MODEL 4
REMARK VINA RESULT:      -7.1      4.079      9.914
REMARK  Name = 
REMARK  9 active torsions:
REMARK  status: ('A' for Active; 'I' for Inactive)
REMARK    1  A    between atoms: C_1  and  O_2
REMARK    2  A    between atoms: O_2  and  C_3
REMARK    3  A    between atoms: C_6  and  C_7
REMARK    4  A    between atoms: C_7  and  C_8
REMARK    5  A    between atoms: C_8  and  N_9
REMARK    6  A    between atoms: N_12  and  C_13
REMARK    7  A    between atoms: C_16  and  N_17
REMARK    8  A    between atoms: C_23  and  O_24
REMARK    9  A    between atoms: O_24  and  C_25
REMARK                            x       y       z     vdW  Elec       q    Type
REMARK                         _______ _______ _______ _____ _____    ______ ____
ROOT
ATOM      1  N   UNL     1       0.930   9.815  17.733  0.00  0.00    +0.000 N 
ATOM      2  C   UNL     1      -0.244  10.058  18.420  0.00  0.00    +0.000 C 
ATOM      3  O   UNL     1      -0.366   9.761  19.604  0.00  0.00    +0.000 OA
ATOM      4  N   UNL     1      -1.221  10.620  17.629  0.00  0.00    +0.000 N 
ATOM      5  H   UNL     1       1.162  10.505  17.032  0.00  0.00    +0.000 HD
ATOM      6  H   UNL     1      -1.130  10.449  16.639  0.00  0.00    +0.000 HD
ENDROOT
BRANCH   4   7
ATOM      7  C   UNL     1      -2.478  11.064  18.107  0.00  0.00    +0.000 A 
ATOM      8  C   UNL     1      -2.600  12.028  19.117  0.00  0.00    +0.000 A 
ATOM      9  C   UNL     1      -3.852  12.424  19.594  0.00  0.00    +0.000 A 
ATOM     10  C   UNL     1      -5.004  11.863  19.043  0.00  0.00    +0.000 A 
ATOM     11  C   UNL     1      -4.907  10.919  18.013  0.00  0.00    +0.000 A 
ATOM     12  C   UNL     1      -3.642  10.528  17.543  0.00  0.00    +0.000 A 
BRANCH  10  13
ATOM     13  N   UNL     1      -6.320  12.275  19.547  0.00  0.00    +0.000 N 
ATOM     14  O   UNL     1      -6.973  13.083  18.869  0.00  0.00    +0.000 OA
ATOM     15  O   UNL     1      -6.703  11.789  20.621  0.00  0.00    +0.000 OA
ENDBRANCH  10  13
ENDBRANCH   4   7
BRANCH   1  16
ATOM     16  C   UNL     1       2.025   9.281  18.533  0.00  0.00    +0.000 C 
BRANCH  16  17
ATOM     17  C   UNL     1       2.757   8.095  17.910  0.00  0.00    +0.000 C 
BRANCH  17  21
ATOM     18  C   UNL     1       1.574   4.376  19.818  0.00  0.00    +0.000 A 
ATOM     19  C   UNL     1       1.831   5.526  20.579  0.00  0.00    +0.000 A 
ATOM     20  C   UNL     1       2.207   6.724  19.969  0.00  0.00    +0.000 A 
ATOM     21  C   UNL     1       2.397   6.789  18.587  0.00  0.00    +0.000 A 
ATOM     22  C   UNL     1       2.225   5.616  17.841  0.00  0.00    +0.000 A 
ATOM     23  C   UNL     1       1.818   4.408  18.437  0.00  0.00    +0.000 A 
BRANCH  18  25
ATOM     24  C   UNL     1       1.676   2.917  21.682  0.00  0.00    +0.000 C 
ATOM     25  O   UNL     1       1.114   3.228  20.407  0.00  0.00    +0.000 OA
ENDBRANCH  18  25
BRANCH  23  26
ATOM     26  O   UNL     1       1.695   3.401  17.516  0.00  0.00    +0.000 OA
ATOM     27  C   UNL     1       2.554   2.275  17.601  0.00  0.00    +0.000 C 
ENDBRANCH  23  26
ENDBRANCH  17  21
ENDBRANCH  16  17
ENDBRANCH   1  16
TORSDOF 7
ENDMDL
MODEL 5
REMARK VINA RESULT:      -7.0      2.098      9.689
REMARK  Name = 
REMARK  9 active torsions:
REMARK  status: ('A' for Active; 'I' for Inactive)
REMARK    1  A    between atoms: C_1  and  O_2
REMARK    2  A    between atoms: O_2  and  C_3
REMARK    3  A    between atoms: C_6  and  C_7
REMARK    4  A    between atoms: C_7  and  C_8
REMARK    5  A    between atoms: C_8  and  N_9
REMARK    6  A    between atoms: N_12  and  C_13
REMARK    7  A    between atoms: C_16  and  N_17
REMARK    8  A    between atoms: C_23  and  O_24
REMARK    9  A    between atoms: O_24  and  C_25
REMARK                            x       y       z     vdW  Elec       q    Type
REMARK                         _______ _______ _______ _____ _____    ______ ____
ROOT
ATOM      1  N   UNL     1       3.145   5.537  20.041  0.00  0.00    +0.000 N 
ATOM      2  C   UNL     1       2.036   6.279  20.400  0.00  0.00    +0.000 C 
ATOM      3  O   UNL     1       0.963   5.743  20.658  0.00  0.00    +0.000 OA
ATOM      4  N   UNL     1       2.275   7.636  20.398  0.00  0.00    +0.000 N 
ATOM      5  H   UNL     1       4.028   5.910  20.364  0.00  0.00    +0.000 HD
ATOM      6  H   UNL     1       3.037   7.941  19.812  0.00  0.00    +0.000 HD
ENDROOT
BRANCH   4   7
ATOM      7  C   UNL     1       1.343   8.612  20.828  0.00  0.00    +0.000 A 
ATOM      8  C   UNL     1       0.628   9.416  19.930  0.00  0.00    +0.000 A 
ATOM      9  C   UNL     1      -0.260  10.394  20.381  0.00  0.00    +0.000 A 
ATOM     10  C   UNL     1      -0.453  10.564  21.753  0.00  0.00    +0.000 A 
ATOM     11  C   UNL     1       0.230   9.753  22.668  0.00  0.00    +0.000 A 
ATOM     12  C   UNL     1       1.122   8.773  22.201  0.00  0.00    +0.000 A 
BRANCH  10  13
ATOM     13  N   UNL     1      -1.383  11.596  22.229  0.00  0.00    +0.000 N 
ATOM     14  O   UNL     1      -2.230  12.025  21.432  0.00  0.00    +0.000 OA
ATOM     15  O   UNL     1      -1.266  11.978  23.402  0.00  0.00    +0.000 OA
ENDBRANCH  10  13
ENDBRANCH   4   7
BRANCH   1  16
ATOM     16  C   UNL     1       2.973   4.091  20.089  0.00  0.00    +0.000 C 
BRANCH  16  17
ATOM     17  C   UNL     1       4.205   3.284  19.689  0.00  0.00    +0.000 C 
BRANCH  17  21
ATOM     18  C   UNL     1       5.996   4.976  16.111  0.00  0.00    +0.000 A 
ATOM     19  C   UNL     1       4.860   4.159  16.030  0.00  0.00    +0.000 A 
ATOM     20  C   UNL     1       4.279   3.616  17.178  0.00  0.00    +0.000 A 
ATOM     21  C   UNL     1       4.855   3.826  18.433  0.00  0.00    +0.000 A 
ATOM     22  C   UNL     1       6.039   4.570  18.499  0.00  0.00    +0.000 A 
ATOM     23  C   UNL     1       6.621   5.148  17.355  0.00  0.00    +0.000 A 
BRANCH  18  25
ATOM     24  C   UNL     1       6.813   4.719  13.902  0.00  0.00    +0.000 C 
ATOM     25  O   UNL     1       6.509   5.585  14.997  0.00  0.00    +0.000 OA
ENDBRANCH  18  25
BRANCH  23  26
ATOM     26  O   UNL     1       7.759   5.846  17.660  0.00  0.00    +0.000 OA
ATOM     27  C   UNL     1       7.686   7.252  17.835  0.00  0.00    +0.000 C 
ENDBRANCH  23  26
ENDBRANCH  17  21
ENDBRANCH  16  17
ENDBRANCH   1  16
TORSDOF 7
ENDMDL
MODEL 6
REMARK VINA RESULT:      -7.0      2.448      9.062
REMARK  Name = 
REMARK  9 active torsions:
REMARK  status: ('A' for Active; 'I' for Inactive)
REMARK    1  A    between atoms: C_1  and  O_2
REMARK    2  A    between atoms: O_2  and  C_3
REMARK    3  A    between atoms: C_6  and  C_7
REMARK    4  A    between atoms: C_7  and  C_8
REMARK    5  A    between atoms: C_8  and  N_9
REMARK    6  A    between atoms: N_12  and  C_13
REMARK    7  A    between atoms: C_16  and  N_17
REMARK    8  A    between atoms: C_23  and  O_24
REMARK    9  A    between atoms: O_24  and  C_25
REMARK                            x       y       z     vdW  Elec       q    Type
REMARK                         _______ _______ _______ _____ _____    ______ ____
ROOT
ATOM      1  N   UNL     1       2.763   5.059  20.612  0.00  0.00    +0.000 N 
ATOM      2  C   UNL     1       2.289   6.110  19.851  0.00  0.00    +0.000 C 
ATOM      3  O   UNL     1       2.099   5.992  18.644  0.00  0.00    +0.000 OA
ATOM      4  N   UNL     1       2.098   7.260  20.584  0.00  0.00    +0.000 N 
ATOM      5  H   UNL     1       2.399   5.021  21.555  0.00  0.00    +0.000 HD
ATOM      6  H   UNL     1       2.642   7.331  21.430  0.00  0.00    +0.000 HD
ENDROOT
BRANCH   4   7
ATOM      7  C   UNL     1       1.522   8.448  20.071  0.00  0.00    +0.000 A 
ATOM      8  C   UNL     1       1.874   8.976  18.821  0.00  0.00    +0.000 A 
ATOM      9  C   UNL     1       1.316  10.167  18.353  0.00  0.00    +0.000 A 
ATOM     10  C   UNL     1       0.376  10.837  19.137  0.00  0.00    +0.000 A 
ATOM     11  C   UNL     1      -0.012  10.314  20.377  0.00  0.00    +0.000 A 
ATOM     12  C   UNL     1       0.558   9.115  20.836  0.00  0.00    +0.000 A 
BRANCH  10  13
ATOM     13  N   UNL     1      -0.209  12.093  18.649  0.00  0.00    +0.000 N 
ATOM     14  O   UNL     1       0.566  12.990  18.287  0.00  0.00    +0.000 OA
ATOM     15  O   UNL     1      -1.445  12.181  18.626  0.00  0.00    +0.000 OA
ENDBRANCH  10  13
ENDBRANCH   4   7
BRANCH   1  16
ATOM     16  C   UNL     1       2.922   3.795  19.906  0.00  0.00    +0.000 C 
BRANCH  16  17
ATOM     17  C   UNL     1       4.367   3.343  19.716  0.00  0.00    +0.000 C 
BRANCH  17  21
ATOM     18  C   UNL     1       6.032   5.104  16.110  0.00  0.00    +0.000 A 
ATOM     19  C   UNL     1       4.980   4.179  16.041  0.00  0.00    +0.000 A 
ATOM     20  C   UNL     1       4.439   3.614  17.197  0.00  0.00    +0.000 A 
ATOM     21  C   UNL     1       4.977   3.911  18.452  0.00  0.00    +0.000 A 
ATOM     22  C   UNL     1       6.084   4.768  18.509  0.00  0.00    +0.000 A 
ATOM     23  C   UNL     1       6.622   5.368  17.355  0.00  0.00    +0.000 A 
BRANCH  18  25
ATOM     24  C   UNL     1       7.039   4.872  13.979  0.00  0.00    +0.000 C 
ATOM     25  O   UNL     1       6.498   5.729  14.985  0.00  0.00    +0.000 OA
ENDBRANCH  18  25
BRANCH  23  26
ATOM     26  O   UNL     1       7.685   6.180  17.651  0.00  0.00    +0.000 OA
ATOM     27  C   UNL     1       7.551   7.584  17.494  0.00  0.00    +0.000 C 
ENDBRANCH  23  26
ENDBRANCH  17  21
ENDBRANCH  16  17
ENDBRANCH   1  16
TORSDOF 7
ENDMDL
MODEL 7
REMARK VINA RESULT:      -7.0      2.528      9.001
REMARK  Name = 
REMARK  9 active torsions:
REMARK  status: ('A' for Active; 'I' for Inactive)
REMARK    1  A    between atoms: C_1  and  O_2
REMARK    2  A    between atoms: O_2  and  C_3
REMARK    3  A    between atoms: C_6  and  C_7
REMARK    4  A    between atoms: C_7  and  C_8
REMARK    5  A    between atoms: C_8  and  N_9
REMARK    6  A    between atoms: N_12  and  C_13
REMARK    7  A    between atoms: C_16  and  N_17
REMARK    8  A    between atoms: C_23  and  O_24
REMARK    9  A    between atoms: O_24  and  C_25
REMARK                            x       y       z     vdW  Elec       q    Type
REMARK                         _______ _______ _______ _____ _____    ______ ____
ROOT
ATOM      1  N   UNL     1       2.723   4.850  20.767  0.00  0.00    +0.000 N 
ATOM      2  C   UNL     1       2.219   5.892  20.012  0.00  0.00    +0.000 C 
ATOM      3  O   UNL     1       1.970   5.755  18.817  0.00  0.00    +0.000 OA
ATOM      4  N   UNL     1       2.072   7.055  20.734  0.00  0.00    +0.000 N 
ATOM      5  H   UNL     1       2.406   4.829  21.727  0.00  0.00    +0.000 HD
ATOM      6  H   UNL     1       2.656   7.136  21.551  0.00  0.00    +0.000 HD
ENDROOT
BRANCH   4   7
ATOM      7  C   UNL     1       1.479   8.238  20.230  0.00  0.00    +0.000 A 
ATOM      8  C   UNL     1       0.559   8.993  20.971  0.00  0.00    +0.000 A 
ATOM      9  C   UNL     1      -0.036  10.138  20.437  0.00  0.00    +0.000 A 
ATOM     10  C   UNL     1       0.301  10.549  19.148  0.00  0.00    +0.000 A 
ATOM     11  C   UNL     1       1.238   9.825  18.399  0.00  0.00    +0.000 A 
ATOM     12  C   UNL     1       1.830   8.675  18.947  0.00  0.00    +0.000 A 
BRANCH  10  13
ATOM     13  N   UNL     1      -0.329  11.749  18.583  0.00  0.00    +0.000 N 
ATOM     14  O   UNL     1      -1.540  11.700  18.325  0.00  0.00    +0.000 OA
ATOM     15  O   UNL     1       0.389  12.743  18.399  0.00  0.00    +0.000 OA
ENDBRANCH  10  13
ENDBRANCH   4   7
BRANCH   1  16
ATOM     16  C   UNL     1       2.840   3.574  20.074  0.00  0.00    +0.000 C 
BRANCH  16  17
ATOM     17  C   UNL     1       4.272   3.118  19.804  0.00  0.00    +0.000 C 
BRANCH  17  21
ATOM     18  C   UNL     1       5.797   5.020  16.209  0.00  0.00    +0.000 A 
ATOM     19  C   UNL     1       4.774   4.063  16.139  0.00  0.00    +0.000 A 
ATOM     20  C   UNL     1       4.278   3.453  17.292  0.00  0.00    +0.000 A 
ATOM     21  C   UNL     1       4.834   3.737  18.542  0.00  0.00    +0.000 A 
ATOM     22  C   UNL     1       5.914   4.626  18.597  0.00  0.00    +0.000 A 
ATOM     23  C   UNL     1       6.407   5.272  17.447  0.00  0.00    +0.000 A 
BRANCH  18  25
ATOM     24  C   UNL     1       6.929   4.903  14.131  0.00  0.00    +0.000 C 
ATOM     25  O   UNL     1       6.218   5.687  15.089  0.00  0.00    +0.000 OA
ENDBRANCH  18  25
BRANCH  23  26
ATOM     26  O   UNL     1       7.450   6.110  17.740  0.00  0.00    +0.000 OA
ATOM     27  C   UNL     1       7.959   6.146  19.064  0.00  0.00    +0.000 C 
ENDBRANCH  23  26
ENDBRANCH  17  21
ENDBRANCH  16  17
ENDBRANCH   1  16
TORSDOF 7
ENDMDL
MODEL 8
REMARK VINA RESULT:      -6.9      2.392      8.883
REMARK  Name = 
REMARK  9 active torsions:
REMARK  status: ('A' for Active; 'I' for Inactive)
REMARK    1  A    between atoms: C_1  and  O_2
REMARK    2  A    between atoms: O_2  and  C_3
REMARK    3  A    between atoms: C_6  and  C_7
REMARK    4  A    between atoms: C_7  and  C_8
REMARK    5  A    between atoms: C_8  and  N_9
REMARK    6  A    between atoms: N_12  and  C_13
REMARK    7  A    between atoms: C_16  and  N_17
REMARK    8  A    between atoms: C_23  and  O_24
REMARK    9  A    between atoms: O_24  and  C_25
REMARK                            x       y       z     vdW  Elec       q    Type
REMARK                         _______ _______ _______ _____ _____    ______ ____
ROOT
ATOM      1  N   UNL     1       2.812   4.582  20.098  0.00  0.00    +0.000 N 
ATOM      2  C   UNL     1       2.357   5.772  19.563  0.00  0.00    +0.000 C 
ATOM      3  O   UNL     1       2.214   5.916  18.352  0.00  0.00    +0.000 OA
ATOM      4  N   UNL     1       2.128   6.737  20.518  0.00  0.00    +0.000 N 
ATOM      5  H   UNL     1       2.414   4.341  20.996  0.00  0.00    +0.000 HD
ATOM      6  H   UNL     1       2.638   6.625  21.380  0.00  0.00    +0.000 HD
ENDROOT
BRANCH   4   7
ATOM      7  C   UNL     1       1.559   8.007  20.251  0.00  0.00    +0.000 A 
ATOM      8  C   UNL     1       1.759   8.679  19.038  0.00  0.00    +0.000 A 
ATOM      9  C   UNL     1       1.215   9.946  18.812  0.00  0.00    +0.000 A 
ATOM     10  C   UNL     1       0.443  10.547  19.807  0.00  0.00    +0.000 A 
ATOM     11  C   UNL     1       0.208   9.881  21.017  0.00  0.00    +0.000 A 
ATOM     12  C   UNL     1       0.762   8.608  21.231  0.00  0.00    +0.000 A 
BRANCH  10  13
ATOM     13  N   UNL     1      -0.125  11.881  19.574  0.00  0.00    +0.000 N 
ATOM     14  O   UNL     1       0.466  12.855  20.062  0.00  0.00    +0.000 OA
ATOM     15  O   UNL     1      -1.164  11.954  18.902  0.00  0.00    +0.000 OA
ENDBRANCH  10  13
ENDBRANCH   4   7
BRANCH   1  16
ATOM     16  C   UNL     1       3.010   3.501  19.143  0.00  0.00    +0.000 C 
BRANCH  16  17
ATOM     17  C   UNL     1       4.465   3.089  18.931  0.00  0.00    +0.000 C 
BRANCH  17  21
ATOM     18  C   UNL     1       6.983   6.251  17.343  0.00  0.00    +0.000 A 
ATOM     19  C   UNL     1       6.909   6.015  18.723  0.00  0.00    +0.000 A 
ATOM     20  C   UNL     1       6.103   4.997  19.238  0.00  0.00    +0.000 A 
ATOM     21  C   UNL     1       5.303   4.227  18.390  0.00  0.00    +0.000 A 
ATOM     22  C   UNL     1       5.314   4.525  17.022  0.00  0.00    +0.000 A 
ATOM     23  C   UNL     1       6.142   5.528  16.484  0.00  0.00    +0.000 A 
BRANCH  18  25
ATOM     24  C   UNL     1       7.994   8.378  17.605  0.00  0.00    +0.000 C 
ATOM     25  O   UNL     1       7.844   7.186  16.832  0.00  0.00    +0.000 OA
ENDBRANCH  18  25
BRANCH  23  26
ATOM     26  O   UNL     1       6.003   5.630  15.125  0.00  0.00    +0.000 OA
ATOM     27  C   UNL     1       6.858   4.876  14.282  0.00  0.00    +0.000 C 
ENDBRANCH  23  26
ENDBRANCH  17  21
ENDBRANCH  16  17
ENDBRANCH   1  16
TORSDOF 7
ENDMDL
MODEL 9
REMARK VINA RESULT:      -6.9      1.281      2.089
REMARK  Name = 
REMARK  9 active torsions:
REMARK  status: ('A' for Active; 'I' for Inactive)
REMARK    1  A    between atoms: C_1  and  O_2
REMARK    2  A    between atoms: O_2  and  C_3
REMARK    3  A    between atoms: C_6  and  C_7
REMARK    4  A    between atoms: C_7  and  C_8
REMARK    5  A    between atoms: C_8  and  N_9
REMARK    6  A    between atoms: N_12  and  C_13
REMARK    7  A    between atoms: C_16  and  N_17
REMARK    8  A    between atoms: C_23  and  O_24
REMARK    9  A    between atoms: O_24  and  C_25
REMARK                            x       y       z     vdW  Elec       q    Type
REMARK                         _______ _______ _______ _____ _____    ______ ____
ROOT
ATOM      1  N   UNL     1       2.322   6.373  20.698  0.00  0.00    +0.000 N 
ATOM      2  C   UNL     1       2.796   6.270  19.405  0.00  0.00    +0.000 C 
ATOM      3  O   UNL     1       2.203   6.787  18.462  0.00  0.00    +0.000 OA
ATOM      4  N   UNL     1       3.947   5.519  19.313  0.00  0.00    +0.000 N 
ATOM      5  H   UNL     1       3.039   6.431  21.409  0.00  0.00    +0.000 HD
ATOM      6  H   UNL     1       4.095   4.858  20.060  0.00  0.00    +0.000 HD
ENDROOT
BRANCH   4   7
ATOM      7  C   UNL     1       4.696   5.346  18.123  0.00  0.00    +0.000 A 
ATOM      8  C   UNL     1       5.547   6.339  17.619  0.00  0.00    +0.000 A 
ATOM      9  C   UNL     1       6.248   6.155  16.425  0.00  0.00    +0.000 A 
ATOM     10  C   UNL     1       6.112   4.954  15.729  0.00  0.00    +0.000 A 
ATOM     11  C   UNL     1       5.288   3.937  16.228  0.00  0.00    +0.000 A 
ATOM     12  C   UNL     1       4.588   4.135  17.430  0.00  0.00    +0.000 A 
BRANCH  10  13
ATOM     13  N   UNL     1       6.845   4.762  14.470  0.00  0.00    +0.000 N 
ATOM     14  O   UNL     1       7.838   5.474  14.265  0.00  0.00    +0.000 OA
ATOM     15  O   UNL     1       6.426   3.897  13.688  0.00  0.00    +0.000 OA
ENDBRANCH  10  13
ENDBRANCH   4   7
BRANCH   1  16
ATOM     16  C   UNL     1       1.142   7.210  20.868  0.00  0.00    +0.000 C 
BRANCH  16  17
ATOM     17  C   UNL     1       1.386   8.521  21.611  0.00  0.00    +0.000 C 
BRANCH  17  21
ATOM     18  C   UNL     1      -0.697  11.872  19.796  0.00  0.00    +0.000 A 
ATOM     19  C   UNL     1      -0.317  11.907  21.145  0.00  0.00    +0.000 A 
ATOM     20  C   UNL     1       0.357  10.833  21.731  0.00  0.00    +0.000 A 
ATOM     21  C   UNL     1       0.613   9.671  21.000  0.00  0.00    +0.000 A 
ATOM     22  C   UNL     1       0.154   9.607  19.679  0.00  0.00    +0.000 A 
ATOM     23  C   UNL     1      -0.501  10.691  19.065  0.00  0.00    +0.000 A 
BRANCH  18  25
ATOM     24  C   UNL     1      -0.372  13.859  18.546  0.00  0.00    +0.000 C 
ATOM     25  O   UNL     1      -1.273  12.961  19.196  0.00  0.00    +0.000 OA
ENDBRANCH  18  25
BRANCH  23  26
ATOM     26  O   UNL     1      -0.842  10.412  17.768  0.00  0.00    +0.000 OA
ATOM     27  C   UNL     1      -2.160   9.978  17.475  0.00  0.00    +0.000 C 
ENDBRANCH  23  26
ENDBRANCH  17  21
ENDBRANCH  16  17
ENDBRANCH   1  16
TORSDOF 7
ENDMDL
