MODEL 1
REMARK VINA RESULT:      -8.4      0.000      0.000
REMARK  Name = 
REMARK  6 active torsions:
REMARK  status: ('A' for Active; 'I' for Inactive)
REMARK    1  A    between atoms: C_1  and  O_2
REMARK    2  A    between atoms: O_2  and  C_3
REMARK    3  A    between atoms: C_3  and  C_5
REMARK    4  A    between atoms: C_5  and  C_6
REMARK    5  A    between atoms: C_5  and  N_13
REMARK    6  A    between atoms: C_6  and  C_7
REMARK                            x       y       z     vdW  Elec       q    Type
REMARK                         _______ _______ _______ _____ _____    ______ ____
ROOT
ATOM      1  C   UNL     1       6.038   5.505  18.295  0.00  0.00    +0.000 C 
ENDROOT
BRANCH   1   2
ATOM      2  N   UNL     1       6.187   4.271  17.508  0.00  0.00    +0.000 N 
ATOM      3  C   UNL     1       6.508   4.373  16.212  0.00  0.00    +0.000 A 
ATOM      4  N   UNL     1       7.246   5.276  15.605  0.00  0.00    +0.000 NA
ATOM      5  C   UNL     1       7.190   4.905  14.286  0.00  0.00    +0.000 A 
ATOM      6  C   UNL     1       7.779   5.463  13.144  0.00  0.00    +0.000 A 
ATOM      7  C   UNL     1       7.489   4.881  11.900  0.00  0.00    +0.000 A 
ATOM      8  C   UNL     1       6.641   3.769  11.801  0.00  0.00    +0.000 A 
ATOM      9  C   UNL     1       6.065   3.186  12.938  0.00  0.00    +0.000 A 
ATOM     10  C   UNL     1       6.379   3.792  14.148  0.00  0.00    +0.000 A 
ATOM     11  O   UNL     1       5.956   3.429  15.393  0.00  0.00    +0.000 OA
ATOM     12  H   UNL     1       5.560   3.519  17.775  0.00  0.00    +0.000 HD
ENDBRANCH   1   2
BRANCH   1  13
ATOM     13  C   UNL     1       7.338   5.766  19.085  0.00  0.00    +0.000 C 
ATOM     14  O   UNL     1       7.619   5.268  20.167  0.00  0.00    +0.000 OA
BRANCH  13  16
ATOM     15  C   UNL     1       7.456   7.770  17.798  0.00  0.00    +0.000 C 
ATOM     16  O   UNL     1       8.119   6.654  18.401  0.00  0.00    +0.000 OA
ENDBRANCH  13  16
ENDBRANCH   1  13
BRANCH   1  17
ATOM     17  C   UNL     1       4.819   5.343  19.233  0.00  0.00    +0.000 C 
BRANCH  17  18
ATOM     18  C   UNL     1       3.449   5.753  18.641  0.00  0.00    +0.000 C 
ATOM     19  C   UNL     1       2.780   4.642  17.818  0.00  0.00    +0.000 C 
ATOM     20  C   UNL     1       2.176   3.535  18.679  0.00  0.00    +0.000 C 
ATOM     21  C   UNL     1       1.178   4.104  19.680  0.00  0.00    +0.000 C 
ATOM     22  C   UNL     1       1.828   5.164  20.562  0.00  0.00    +0.000 C 
ATOM     23  C   UNL     1       2.487   6.267  19.733  0.00  0.00    +0.000 C 
ENDBRANCH  17  18
ENDBRANCH   1  17
TORSDOF 5
ENDMDL
MODEL 2
REMARK VINA RESULT:      -7.7      0.791      1.671
REMARK  Name = 
REMARK  6 active torsions:
REMARK  status: ('A' for Active; 'I' for Inactive)
REMARK    1  A    between atoms: C_1  and  O_2
REMARK    2  A    between atoms: O_2  and  C_3
REMARK    3  A    between atoms: C_3  and  C_5
REMARK    4  A    between atoms: C_5  and  C_6
REMARK    5  A    between atoms: C_5  and  N_13
REMARK    6  A    between atoms: C_6  and  C_7
REMARK                            x       y       z     vdW  Elec       q    Type
REMARK                         _______ _______ _______ _____ _____    ______ ____
ROOT
ATOM      1  C   UNL     1       6.043   5.527  18.367  0.00  0.00    +0.000 C 
ENDROOT
BRANCH   1   2
ATOM      2  N   UNL     1       6.181   4.290  17.584  0.00  0.00    +0.000 N 
ATOM      3  C   UNL     1       6.504   4.385  16.288  0.00  0.00    +0.000 A 
ATOM      4  N   UNL     1       7.252   5.278  15.679  0.00  0.00    +0.000 NA
ATOM      5  C   UNL     1       7.194   4.904  14.362  0.00  0.00    +0.000 A 
ATOM      6  C   UNL     1       7.791   5.452  13.219  0.00  0.00    +0.000 A 
ATOM      7  C   UNL     1       7.496   4.870  11.976  0.00  0.00    +0.000 A 
ATOM      8  C   UNL     1       6.638   3.766  11.879  0.00  0.00    +0.000 A 
ATOM      9  C   UNL     1       6.055   3.192  13.017  0.00  0.00    +0.000 A 
ATOM     10  C   UNL     1       6.373   3.798  14.225  0.00  0.00    +0.000 A 
ATOM     11  O   UNL     1       5.945   3.443  15.471  0.00  0.00    +0.000 OA
ATOM     12  H   UNL     1       5.546   3.545  17.852  0.00  0.00    +0.000 HD
ENDBRANCH   1   2
BRANCH   1  13
ATOM     13  C   UNL     1       7.341   5.774  19.165  0.00  0.00    +0.000 C 
ATOM     14  O   UNL     1       7.545   5.401  20.312  0.00  0.00    +0.000 OA
BRANCH  13  16
ATOM     15  C   UNL     1       7.970   7.892  18.269  0.00  0.00    +0.000 C 
ATOM     16  O   UNL     1       8.219   6.488  18.401  0.00  0.00    +0.000 OA
ENDBRANCH  13  16
ENDBRANCH   1  13
BRANCH   1  17
ATOM     17  C   UNL     1       4.815   5.383  19.297  0.00  0.00    +0.000 C 
BRANCH  17  18
ATOM     18  C   UNL     1       3.432   5.424  18.604  0.00  0.00    +0.000 C 
ATOM     19  C   UNL     1       2.273   5.729  19.566  0.00  0.00    +0.000 C 
ATOM     20  C   UNL     1       2.207   7.196  19.982  0.00  0.00    +0.000 C 
ATOM     21  C   UNL     1       2.116   8.107  18.763  0.00  0.00    +0.000 C 
ATOM     22  C   UNL     1       3.289   7.879  17.818  0.00  0.00    +0.000 C 
ATOM     23  C   UNL     1       3.419   6.410  17.416  0.00  0.00    +0.000 C 
ENDBRANCH  17  18
ENDBRANCH   1  17
TORSDOF 5
ENDMDL
MODEL 3
REMARK VINA RESULT:      -7.5      3.398      6.652
REMARK  Name = 
REMARK  6 active torsions:
REMARK  status: ('A' for Active; 'I' for Inactive)
REMARK    1  A    between atoms: C_1  and  O_2
REMARK    2  A    between atoms: O_2  and  C_3
REMARK    3  A    between atoms: C_3  and  C_5
REMARK    4  A    between atoms: C_5  and  C_6
REMARK    5  A    between atoms: C_5  and  N_13
REMARK    6  A    between atoms: C_6  and  C_7
REMARK                            x       y       z     vdW  Elec       q    Type
REMARK                         _______ _______ _______ _____ _____    ______ ____
ROOT
ATOM      1  C   UNL     1       4.043   3.812  19.001  0.00  0.00    +0.000 C 
ENDROOT
BRANCH   1   2
ATOM      2  N   UNL     1       2.932   4.427  19.743  0.00  0.00    +0.000 N 
ATOM      3  C   UNL     1       2.553   5.669  19.415  0.00  0.00    +0.000 A 
ATOM      4  N   UNL     1       2.574   6.264  18.243  0.00  0.00    +0.000 NA
ATOM      5  C   UNL     1       2.117   7.528  18.514  0.00  0.00    +0.000 A 
ATOM      6  C   UNL     1       1.902   8.632  17.679  0.00  0.00    +0.000 A 
ATOM      7  C   UNL     1       1.470   9.831  18.267  0.00  0.00    +0.000 A 
ATOM      8  C   UNL     1       1.251   9.922  19.649  0.00  0.00    +0.000 A 
ATOM      9  C   UNL     1       1.437   8.818  20.492  0.00  0.00    +0.000 A 
ATOM     10  C   UNL     1       1.864   7.652  19.870  0.00  0.00    +0.000 A 
ATOM     11  O   UNL     1       2.120   6.445  20.452  0.00  0.00    +0.000 OA
ATOM     12  H   UNL     1       2.880   4.168  20.722  0.00  0.00    +0.000 HD
ENDBRANCH   1   2
BRANCH   1  13
ATOM     13  C   UNL     1       4.266   2.374  19.516  0.00  0.00    +0.000 C 
ATOM     14  O   UNL     1       4.925   2.072  20.502  0.00  0.00    +0.000 OA
BRANCH  13  16
ATOM     15  C   UNL     1       2.747   2.039  17.709  0.00  0.00    +0.000 C 
ATOM     16  O   UNL     1       3.632   1.489  18.691  0.00  0.00    +0.000 OA
ENDBRANCH  13  16
ENDBRANCH   1  13
BRANCH   1  17
ATOM     17  C   UNL     1       5.302   4.692  19.189  0.00  0.00    +0.000 C 
BRANCH  17  18
ATOM     18  C   UNL     1       6.299   4.710  18.007  0.00  0.00    +0.000 C 
ATOM     19  C   UNL     1       5.847   5.598  16.837  0.00  0.00    +0.000 C 
ATOM     20  C   UNL     1       6.013   7.090  17.116  0.00  0.00    +0.000 C 
ATOM     21  C   UNL     1       7.455   7.421  17.485  0.00  0.00    +0.000 C 
ATOM     22  C   UNL     1       7.915   6.605  18.687  0.00  0.00    +0.000 C 
ATOM     23  C   UNL     1       7.720   5.105  18.465  0.00  0.00    +0.000 C 
ENDBRANCH  17  18
ENDBRANCH   1  17
TORSDOF 5
ENDMDL
MODEL 4
REMARK VINA RESULT:      -7.4      2.673      4.279
REMARK  Name = 
REMARK  6 active torsions:
REMARK  status: ('A' for Active; 'I' for Inactive)
REMARK    1  A    between atoms: C_1  and  O_2
REMARK    2  A    between atoms: O_2  and  C_3
REMARK    3  A    between atoms: C_3  and  C_5
REMARK    4  A    between atoms: C_5  and  C_6
REMARK    5  A    between atoms: C_5  and  N_13
REMARK    6  A    between atoms: C_6  and  C_7
REMARK                            x       y       z     vdW  Elec       q    Type
REMARK                         _______ _______ _______ _____ _____    ______ ____
ROOT
ATOM      1  C   UNL     1       2.380   5.847  19.898  0.00  0.00    +0.000 C 
ENDROOT
BRANCH   1   2
ATOM      2  N   UNL     1       3.850   5.887  19.852  0.00  0.00    +0.000 N 
ATOM      3  C   UNL     1       4.458   5.735  18.668  0.00  0.00    +0.000 A 
ATOM      4  N   UNL     1       4.053   6.097  17.471  0.00  0.00    +0.000 NA
ATOM      5  C   UNL     1       5.050   5.651  16.644  0.00  0.00    +0.000 A 
ATOM      6  C   UNL     1       5.208   5.740  15.255  0.00  0.00    +0.000 A 
ATOM      7  C   UNL     1       6.332   5.129  14.677  0.00  0.00    +0.000 A 
ATOM      8  C   UNL     1       7.276   4.456  15.466  0.00  0.00    +0.000 A 
ATOM      9  C   UNL     1       7.144   4.381  16.858  0.00  0.00    +0.000 A 
ATOM     10  C   UNL     1       6.019   4.999  17.389  0.00  0.00    +0.000 A 
ATOM     11  O   UNL     1       5.652   5.074  18.701  0.00  0.00    +0.000 OA
ATOM     12  H   UNL     1       4.311   5.494  20.666  0.00  0.00    +0.000 HD
ENDBRANCH   1   2
BRANCH   1  13
ATOM     13  C   UNL     1       1.832   7.287  19.980  0.00  0.00    +0.000 C 
ATOM     14  O   UNL     1       1.934   8.132  19.100  0.00  0.00    +0.000 OA
BRANCH  13  16
ATOM     15  C   UNL     1       0.789   8.809  21.490  0.00  0.00    +0.000 C 
ATOM     16  O   UNL     1       1.233   7.481  21.192  0.00  0.00    +0.000 OA
ENDBRANCH  13  16
ENDBRANCH   1  13
BRANCH   1  17
ATOM     17  C   UNL     1       1.952   4.998  21.119  0.00  0.00    +0.000 C 
BRANCH  17  18
ATOM     18  C   UNL     1       1.411   3.583  20.804  0.00  0.00    +0.000 C 
ATOM     19  C   UNL     1       0.755   3.471  19.420  0.00  0.00    +0.000 C 
ATOM     20  C   UNL     1       1.767   3.435  18.276  0.00  0.00    +0.000 C 
ATOM     21  C   UNL     1       2.765   2.299  18.465  0.00  0.00    +0.000 C 
ATOM     22  C   UNL     1       3.485   2.417  19.803  0.00  0.00    +0.000 C 
ATOM     23  C   UNL     1       2.503   2.505  20.972  0.00  0.00    +0.000 C 
ENDBRANCH  17  18
ENDBRANCH   1  17
TORSDOF 5
ENDMDL
MODEL 5
REMARK VINA RESULT:      -7.4      1.150      1.652
REMARK  Name = 
REMARK  6 active torsions:
REMARK  status: ('A' for Active; 'I' for Inactive)
REMARK    1  A    between atoms: C_1  and  O_2
REMARK    2  A    between atoms: O_2  and  C_3
REMARK    3  A    between atoms: C_3  and  C_5
REMARK    4  A    between atoms: C_5  and  C_6
REMARK    5  A    between atoms: C_5  and  N_13
REMARK    6  A    between atoms: C_6  and  C_7
REMARK                            x       y       z     vdW  Elec       q    Type
REMARK                         _______ _______ _______ _____ _____    ______ ____
ROOT
ATOM      1  C   UNL     1       4.874   5.087  17.957  0.00  0.00    +0.000 C 
ENDROOT
BRANCH   1   2
ATOM      2  N   UNL     1       5.174   3.930  17.100  0.00  0.00    +0.000 N 
ATOM      3  C   UNL     1       5.797   4.140  15.934  0.00  0.00    +0.000 A 
ATOM      4  N   UNL     1       6.681   5.059  15.615  0.00  0.00    +0.000 NA
ATOM      5  C   UNL     1       6.931   4.821  14.289  0.00  0.00    +0.000 A 
ATOM      6  C   UNL     1       7.789   5.456  13.381  0.00  0.00    +0.000 A 
ATOM      7  C   UNL     1       7.788   5.012  12.050  0.00  0.00    +0.000 A 
ATOM      8  C   UNL     1       6.960   3.959  11.638  0.00  0.00    +0.000 A 
ATOM      9  C   UNL     1       6.116   3.298  12.540  0.00  0.00    +0.000 A 
ATOM     10  C   UNL     1       6.148   3.768  13.847  0.00  0.00    +0.000 A 
ATOM     11  O   UNL     1       5.432   3.308  14.914  0.00  0.00    +0.000 OA
ATOM     12  H   UNL     1       4.483   3.188  17.132  0.00  0.00    +0.000 HD
ENDBRANCH   1   2
BRANCH   1  13
ATOM     13  C   UNL     1       6.074   5.357  18.889  0.00  0.00    +0.000 C 
ATOM     14  O   UNL     1       6.375   4.683  19.864  0.00  0.00    +0.000 OA
BRANCH  13  16
ATOM     15  C   UNL     1       8.117   6.585  18.833  0.00  0.00    +0.000 C 
ATOM     16  O   UNL     1       6.737   6.476  18.470  0.00  0.00    +0.000 OA
ENDBRANCH  13  16
ENDBRANCH   1  13
BRANCH   1  17
ATOM     17  C   UNL     1       3.583   4.785  18.754  0.00  0.00    +0.000 C 
BRANCH  17  18
ATOM     18  C   UNL     1       3.156   3.299  18.814  0.00  0.00    +0.000 C 
ATOM     19  C   UNL     1       3.602   2.584  20.099  0.00  0.00    +0.000 C 
ATOM     20  C   UNL     1       2.768   2.966  21.319  0.00  0.00    +0.000 C 
ATOM     21  C   UNL     1       1.287   2.703  21.074  0.00  0.00    +0.000 C 
ATOM     22  C   UNL     1       0.793   3.453  19.842  0.00  0.00    +0.000 C 
ATOM     23  C   UNL     1       1.635   3.134  18.607  0.00  0.00    +0.000 C 
ENDBRANCH  17  18
ENDBRANCH   1  17
TORSDOF 5
ENDMDL
MODEL 6
REMARK VINA RESULT:      -7.4      3.013      6.363
REMARK  Name = 
REMARK  6 active torsions:
REMARK  status: ('A' for Active; 'I' for Inactive)
REMARK    1  A    between atoms: C_1  and  O_2
REMARK    2  A    between atoms: O_2  and  C_3
REMARK    3  A    between atoms: C_3  and  C_5
REMARK    4  A    between atoms: C_5  and  C_6
REMARK    5  A    between atoms: C_5  and  N_13
REMARK    6  A    between atoms: C_6  and  C_7
REMARK                            x       y       z     vdW  Elec       q    Type
REMARK                         _______ _______ _______ _____ _____    ______ ____
ROOT
ATOM      1  C   UNL     1       4.002   5.136  17.957  0.00  0.00    +0.000 C 
ENDROOT
BRANCH   1   2
ATOM      2  N   UNL     1       3.851   6.553  17.589  0.00  0.00    +0.000 N 
ATOM      3  C   UNL     1       2.994   7.307  18.288  0.00  0.00    +0.000 A 
ATOM      4  N   UNL     1       2.658   7.229  19.557  0.00  0.00    +0.000 NA
ATOM      5  C   UNL     1       1.719   8.216  19.704  0.00  0.00    +0.000 A 
ATOM      6  C   UNL     1       0.990   8.640  20.823  0.00  0.00    +0.000 A 
ATOM      7  C   UNL     1       0.044   9.661  20.648  0.00  0.00    +0.000 A 
ATOM      8  C   UNL     1      -0.165  10.247  19.391  0.00  0.00    +0.000 A 
ATOM      9  C   UNL     1       0.574   9.851  18.269  0.00  0.00    +0.000 A 
ATOM     10  C   UNL     1       1.501   8.840  18.487  0.00  0.00    +0.000 A 
ATOM     11  O   UNL     1       2.342   8.272  17.574  0.00  0.00    +0.000 OA
ATOM     12  H   UNL     1       3.939   6.745  16.597  0.00  0.00    +0.000 HD
ENDBRANCH   1   2
BRANCH   1  13
ATOM     13  C   UNL     1       5.102   4.497  17.082  0.00  0.00    +0.000 C 
ATOM     14  O   UNL     1       4.999   4.253  15.888  0.00  0.00    +0.000 OA
BRANCH  13  16
ATOM     15  C   UNL     1       7.468   4.647  17.337  0.00  0.00    +0.000 C 
ATOM     16  O   UNL     1       6.199   4.227  17.850  0.00  0.00    +0.000 OA
ENDBRANCH  13  16
ENDBRANCH   1  13
BRANCH   1  17
ATOM     17  C   UNL     1       2.637   4.434  17.769  0.00  0.00    +0.000 C 
BRANCH  17  18
ATOM     18  C   UNL     1       2.533   2.995  18.327  0.00  0.00    +0.000 C 
ATOM     19  C   UNL     1       3.400   2.755  19.572  0.00  0.00    +0.000 C 
ATOM     20  C   UNL     1       2.821   3.383  20.838  0.00  0.00    +0.000 C 
ATOM     21  C   UNL     1       1.403   2.886  21.096  0.00  0.00    +0.000 C 
ATOM     22  C   UNL     1       0.496   3.169  19.905  0.00  0.00    +0.000 C 
ATOM     23  C   UNL     1       1.067   2.597  18.607  0.00  0.00    +0.000 C 
ENDBRANCH  17  18
ENDBRANCH   1  17
TORSDOF 5
ENDMDL
MODEL 7
REMARK VINA RESULT:      -7.3      3.440      6.478
REMARK  Name = 
REMARK  6 active torsions:
REMARK  status: ('A' for Active; 'I' for Inactive)
REMARK    1  A    between atoms: C_1  and  O_2
REMARK    2  A    between atoms: O_2  and  C_3
REMARK    3  A    between atoms: C_3  and  C_5
REMARK    4  A    between atoms: C_5  and  C_6
REMARK    5  A    between atoms: C_5  and  N_13
REMARK    6  A    between atoms: C_6  and  C_7
REMARK                            x       y       z     vdW  Elec       q    Type
REMARK                         _______ _______ _______ _____ _____    ______ ____
ROOT
ATOM      1  C   UNL     1       3.726   5.797  18.756  0.00  0.00    +0.000 C 
ENDROOT
BRANCH   1   2
ATOM      2  N   UNL     1       3.437   7.038  18.021  0.00  0.00    +0.000 N 
ATOM      3  C   UNL     1       2.516   7.875  18.515  0.00  0.00    +0.000 A 
ATOM      4  N   UNL     1       2.197   8.119  19.767  0.00  0.00    +0.000 NA
ATOM      5  C   UNL     1       1.169   9.019  19.669  0.00  0.00    +0.000 A 
ATOM      6  C   UNL     1       0.410   9.666  20.653  0.00  0.00    +0.000 A 
ATOM      7  C   UNL     1      -0.631  10.510  20.236  0.00  0.00    +0.000 A 
ATOM      8  C   UNL     1      -0.902  10.708  18.875  0.00  0.00    +0.000 A 
ATOM      9  C   UNL     1      -0.135  10.087  17.881  0.00  0.00    +0.000 A 
ATOM     10  C   UNL     1       0.885   9.262  18.336  0.00  0.00    +0.000 A 
ATOM     11  O   UNL     1       1.771   8.544  17.586  0.00  0.00    +0.000 OA
ATOM     12  H   UNL     1       3.501   6.958  17.012  0.00  0.00    +0.000 HD
ENDBRANCH   1   2
BRANCH   1  13
ATOM     13  C   UNL     1       5.233   5.483  18.656  0.00  0.00    +0.000 C 
ATOM     14  O   UNL     1       5.837   4.689  19.365  0.00  0.00    +0.000 OA
BRANCH  13  16
ATOM     15  C   UNL     1       7.176   6.582  17.818  0.00  0.00    +0.000 C 
ATOM     16  O   UNL     1       5.794   6.240  17.667  0.00  0.00    +0.000 OA
ENDBRANCH  13  16
ENDBRANCH   1  13
BRANCH   1  17
ATOM     17  C   UNL     1       2.860   4.662  18.158  0.00  0.00    +0.000 C 
BRANCH  17  18
ATOM     18  C   UNL     1       1.498   4.414  18.847  0.00  0.00    +0.000 C 
ATOM     19  C   UNL     1       1.007   2.963  18.731  0.00  0.00    +0.000 C 
ATOM     20  C   UNL     1       1.751   2.001  19.655  0.00  0.00    +0.000 C 
ATOM     21  C   UNL     1       1.662   2.458  21.106  0.00  0.00    +0.000 C 
ATOM     22  C   UNL     1       2.204   3.873  21.270  0.00  0.00    +0.000 C 
ATOM     23  C   UNL     1       1.517   4.859  20.325  0.00  0.00    +0.000 C 
ENDBRANCH  17  18
ENDBRANCH   1  17
TORSDOF 5
ENDMDL
MODEL 8
REMARK VINA RESULT:      -7.3      1.568      6.375
REMARK  Name = 
REMARK  6 active torsions:
REMARK  status: ('A' for Active; 'I' for Inactive)
REMARK    1  A    between atoms: C_1  and  O_2
REMARK    2  A    between atoms: O_2  and  C_3
REMARK    3  A    between atoms: C_3  and  C_5
REMARK    4  A    between atoms: C_5  and  C_6
REMARK    5  A    between atoms: C_5  and  N_13
REMARK    6  A    between atoms: C_6  and  C_7
REMARK                            x       y       z     vdW  Elec       q    Type
REMARK                         _______ _______ _______ _____ _____    ______ ____
ROOT
ATOM      1  C   UNL     1       6.597   4.352  17.232  0.00  0.00    +0.000 C 
ENDROOT
BRANCH   1   2
ATOM      2  N   UNL     1       5.240   4.921  17.230  0.00  0.00    +0.000 N 
ATOM      3  C   UNL     1       4.348   4.452  18.111  0.00  0.00    +0.000 A 
ATOM      4  N   UNL     1       4.541   3.992  19.327  0.00  0.00    +0.000 NA
ATOM      5  C   UNL     1       3.287   3.616  19.734  0.00  0.00    +0.000 A 
ATOM      6  C   UNL     1       2.833   3.063  20.938  0.00  0.00    +0.000 A 
ATOM      7  C   UNL     1       1.473   2.729  21.040  0.00  0.00    +0.000 A 
ATOM      8  C   UNL     1       0.591   2.948  19.973  0.00  0.00    +0.000 A 
ATOM      9  C   UNL     1       1.027   3.524  18.772  0.00  0.00    +0.000 A 
ATOM     10  C   UNL     1       2.378   3.841  18.713  0.00  0.00    +0.000 A 
ATOM     11  O   UNL     1       3.055   4.405  17.672  0.00  0.00    +0.000 OA
ATOM     12  H   UNL     1       4.894   5.189  16.315  0.00  0.00    +0.000 HD
ENDBRANCH   1   2
BRANCH   1  13
ATOM     13  C   UNL     1       7.555   5.321  17.956  0.00  0.00    +0.000 C 
ATOM     14  O   UNL     1       7.967   5.181  19.100  0.00  0.00    +0.000 OA
BRANCH  13  16
ATOM     15  C   UNL     1       7.626   7.684  17.646  0.00  0.00    +0.000 C 
ATOM     16  O   UNL     1       7.858   6.367  17.133  0.00  0.00    +0.000 OA
ENDBRANCH  13  16
ENDBRANCH   1  13
BRANCH   1  17
ATOM     17  C   UNL     1       7.026   4.107  15.766  0.00  0.00    +0.000 C 
BRANCH  17  18
ATOM     18  C   UNL     1       6.261   4.915  14.691  0.00  0.00    +0.000 C 
ATOM     19  C   UNL     1       7.171   5.798  13.824  0.00  0.00    +0.000 C 
ATOM     20  C   UNL     1       7.968   5.007  12.790  0.00  0.00    +0.000 C 
ATOM     21  C   UNL     1       7.044   4.188  11.895  0.00  0.00    +0.000 C 
ATOM     22  C   UNL     1       6.173   3.249  12.720  0.00  0.00    +0.000 C 
ATOM     23  C   UNL     1       5.393   3.999  13.801  0.00  0.00    +0.000 C 
ENDBRANCH  17  18
ENDBRANCH   1  17
TORSDOF 5
ENDMDL
MODEL 9
REMARK VINA RESULT:      -7.3      3.095      6.197
REMARK  Name = 
REMARK  6 active torsions:
REMARK  status: ('A' for Active; 'I' for Inactive)
REMARK    1  A    between atoms: C_1  and  O_2
REMARK    2  A    between atoms: O_2  and  C_3
REMARK    3  A    between atoms: C_3  and  C_5
REMARK    4  A    between atoms: C_5  and  C_6
REMARK    5  A    between atoms: C_5  and  N_13
REMARK    6  A    between atoms: C_6  and  C_7
REMARK                            x       y       z     vdW  Elec       q    Type
REMARK                         _______ _______ _______ _____ _____    ______ ____
ROOT
ATOM      1  C   UNL     1       4.092   5.138  18.216  0.00  0.00    +0.000 C 
ENDROOT
BRANCH   1   2
ATOM      2  N   UNL     1       3.965   6.544  17.802  0.00  0.00    +0.000 N 
ATOM      3  C   UNL     1       3.059   7.314  18.418  0.00  0.00    +0.000 A 
ATOM      4  N   UNL     1       2.633   7.267  19.660  0.00  0.00    +0.000 NA
ATOM      5  C   UNL     1       1.684   8.254  19.714  0.00  0.00    +0.000 A 
ATOM      6  C   UNL     1       0.876   8.704  20.767  0.00  0.00    +0.000 A 
ATOM      7  C   UNL     1      -0.057   9.716  20.498  0.00  0.00    +0.000 A 
ATOM      8  C   UNL     1      -0.175  10.270  19.215  0.00  0.00    +0.000 A 
ATOM      9  C   UNL     1       0.643   9.847  18.160  0.00  0.00    +0.000 A 
ATOM     10  C   UNL     1       1.553   8.845  18.469  0.00  0.00    +0.000 A 
ATOM     11  O   UNL     1       2.458   8.257  17.634  0.00  0.00    +0.000 OA
ATOM     12  H   UNL     1       4.124   6.712  16.814  0.00  0.00    +0.000 HD
ENDBRANCH   1   2
BRANCH   1  13
ATOM     13  C   UNL     1       5.539   4.872  18.681  0.00  0.00    +0.000 C 
ATOM     14  O   UNL     1       5.985   5.140  19.788  0.00  0.00    +0.000 OA
BRANCH  13  16
ATOM     15  C   UNL     1       7.650   4.614  17.601  0.00  0.00    +0.000 C 
ATOM     16  O   UNL     1       6.252   4.309  17.661  0.00  0.00    +0.000 OA
ENDBRANCH  13  16
ENDBRANCH   1  13
BRANCH   1  17
ATOM     17  C   UNL     1       3.698   4.239  17.020  0.00  0.00    +0.000 C 
BRANCH  17  18
ATOM     18  C   UNL     1       2.533   3.252  17.270  0.00  0.00    +0.000 C 
ATOM     19  C   UNL     1       2.976   1.932  17.919  0.00  0.00    +0.000 C 
ATOM     20  C   UNL     1       3.296   2.071  19.406  0.00  0.00    +0.000 C 
ATOM     21  C   UNL     1       2.108   2.644  20.169  0.00  0.00    +0.000 C 
ATOM     22  C   UNL     1       1.684   3.990  19.594  0.00  0.00    +0.000 C 
ATOM     23  C   UNL     1       1.401   3.903  18.093  0.00  0.00    +0.000 C 
ENDBRANCH  17  18
ENDBRANCH   1  17
TORSDOF 5
ENDMDL
