MODEL 1
REMARK VINA RESULT:      -8.1      0.000      0.000
REMARK  Name = 
REMARK  7 active torsions:
REMARK  status: ('A' for Active; 'I' for Inactive)
REMARK    1  A    between atoms: C_1  and  C_2
REMARK    2  A    between atoms: C_2  and  O_3
REMARK    3  A    between atoms: O_3  and  C_4
REMARK    4  A    between atoms: C_7  and  C_8
REMARK    5  A    between atoms: C_8  and  N_9
REMARK    6  A    between atoms: C_10  and  C_12
REMARK    7  A    between atoms: C_12  and  N_13
REMARK                            x       y       z     vdW  Elec       q    Type
REMARK                         _______ _______ _______ _____ _____    ______ ____
ROOT
ATOM      1  C   UNL     1       2.790   7.672  17.431  0.00  0.00    +0.000 C 
ENDROOT
BRANCH   1   2
ATOM      2  N   UNL     1       3.371   6.439  17.978  0.00  0.00    +0.000 N 
ATOM      3  C   UNL     1       2.494   5.349  18.084  0.00  0.00    +0.000 A 
ATOM      4  O   UNL     1       1.357   5.349  17.615  0.00  0.00    +0.000 OA
ATOM      5  C   UNL     1       3.011   4.229  18.806  0.00  0.00    +0.000 A 
ATOM      6  C   UNL     1       2.358   3.255  19.529  0.00  0.00    +0.000 A 
ATOM      7  C   UNL     1       3.351   2.414  20.081  0.00  0.00    +0.000 A 
ATOM      8  C   UNL     1       4.571   2.865  19.622  0.00  0.00    +0.000 A 
ATOM      9  N   UNL     1       4.352   3.994  18.873  0.00  0.00    +0.000 N 
ATOM     10  C   UNL     1       5.279   4.878  18.297  0.00  0.00    +0.000 A 
ATOM     11  C   UNL     1       6.612   4.479  18.122  0.00  0.00    +0.000 A 
ATOM     12  C   UNL     1       7.539   5.414  17.689  0.00  0.00    +0.000 A 
ATOM     13  C   UNL     1       7.125   6.725  17.486  0.00  0.00    +0.000 A 
ATOM     14  F   UNL     1       8.044   7.641  17.151  0.00  0.00    +0.000 F 
ATOM     15  C   UNL     1       5.779   7.111  17.611  0.00  0.00    +0.000 A 
ATOM     16  C   UNL     1       4.804   6.174  17.965  0.00  0.00    +0.000 A 
ENDBRANCH   1   2
BRANCH   1  18
ATOM     17  N   UNL     1       1.237   9.590  17.797  0.00  0.00    +0.000 N 
ATOM     18  C   UNL     1       1.899   8.531  18.392  0.00  0.00    +0.000 C 
ATOM     19  O   UNL     1       1.854   8.310  19.605  0.00  0.00    +0.000 OA
ATOM     20  H   UNL     1       1.043   9.493  16.800  0.00  0.00    +0.000 HD
BRANCH  17  21
ATOM     21  C   UNL     1       0.518  10.639  18.502  0.00  0.00    +0.000 C 
BRANCH  21  25
ATOM     22  C   UNL     1      -3.753  10.902  17.716  0.00  0.00    +0.000 A 
ATOM     23  C   UNL     1      -3.147  11.701  18.687  0.00  0.00    +0.000 A 
ATOM     24  C   UNL     1      -1.777  11.594  18.963  0.00  0.00    +0.000 A 
ATOM     25  C   UNL     1      -0.981  10.667  18.284  0.00  0.00    +0.000 A 
ATOM     26  C   UNL     1      -1.604   9.846  17.323  0.00  0.00    +0.000 A 
ATOM     27  C   UNL     1      -2.980   9.956  17.048  0.00  0.00    +0.000 A 
BRANCH  22  28
ATOM     28  O   UNL     1      -5.088  11.140  17.523  0.00  0.00    +0.000 OA
BRANCH  28  30
ATOM     29  C   UNL     1      -6.858  10.331  18.907  0.00  0.00    +0.000 C 
ATOM     30  C   UNL     1      -5.873  11.467  18.670  0.00  0.00    +0.000 C 
ENDBRANCH  28  30
ENDBRANCH  22  28
ENDBRANCH  21  25
ENDBRANCH  17  21
ENDBRANCH   1  18
TORSDOF 6
ENDMDL
MODEL 2
REMARK VINA RESULT:      -8.1      3.311      9.643
REMARK  Name = 
REMARK  7 active torsions:
REMARK  status: ('A' for Active; 'I' for Inactive)
REMARK    1  A    between atoms: C_1  and  C_2
REMARK    2  A    between atoms: C_2  and  O_3
REMARK    3  A    between atoms: O_3  and  C_4
REMARK    4  A    between atoms: C_7  and  C_8
REMARK    5  A    between atoms: C_8  and  N_9
REMARK    6  A    between atoms: C_10  and  C_12
REMARK    7  A    between atoms: C_12  and  N_13
REMARK                            x       y       z     vdW  Elec       q    Type
REMARK                         _______ _______ _______ _____ _____    ______ ____
ROOT
ATOM      1  C   UNL     1       1.381  10.053  19.201  0.00  0.00    +0.000 C 
ENDROOT
BRANCH   1   2
ATOM      2  N   UNL     1       0.163  10.694  19.713  0.00  0.00    +0.000 N 
ATOM      3  C   UNL     1       0.354  11.621  20.749  0.00  0.00    +0.000 A 
ATOM      4  O   UNL     1       1.463  12.005  21.116  0.00  0.00    +0.000 OA
ATOM      5  C   UNL     1      -0.847  12.078  21.377  0.00  0.00    +0.000 A 
ATOM      6  C   UNL     1      -1.065  12.537  22.657  0.00  0.00    +0.000 A 
ATOM      7  C   UNL     1      -2.448  12.811  22.767  0.00  0.00    +0.000 A 
ATOM      8  C   UNL     1      -3.013  12.572  21.531  0.00  0.00    +0.000 A 
ATOM      9  N   UNL     1      -2.031  12.091  20.701  0.00  0.00    +0.000 N 
ATOM     10  C   UNL     1      -2.132  11.594  19.392  0.00  0.00    +0.000 A 
ATOM     11  C   UNL     1      -3.267  11.879  18.619  0.00  0.00    +0.000 A 
ATOM     12  C   UNL     1      -3.412  11.259  17.388  0.00  0.00    +0.000 A 
ATOM     13  C   UNL     1      -2.451  10.343  16.982  0.00  0.00    +0.000 A 
ATOM     14  F   UNL     1      -2.642   9.684  15.830  0.00  0.00    +0.000 F 
ATOM     15  C   UNL     1      -1.287  10.097  17.732  0.00  0.00    +0.000 A 
ATOM     16  C   UNL     1      -1.069  10.769  18.939  0.00  0.00    +0.000 A 
ENDBRANCH   1   2
BRANCH   1  18
ATOM     17  N   UNL     1       2.318   7.790  18.725  0.00  0.00    +0.000 N 
ATOM     18  C   UNL     1       1.656   8.578  19.650  0.00  0.00    +0.000 C 
ATOM     19  O   UNL     1       1.245   8.141  20.728  0.00  0.00    +0.000 OA
ATOM     20  H   UNL     1       2.909   8.285  18.057  0.00  0.00    +0.000 HD
BRANCH  17  21
ATOM     21  C   UNL     1       2.509   6.352  18.823  0.00  0.00    +0.000 C 
BRANCH  21  25
ATOM     22  C   UNL     1       5.616   4.650  16.299  0.00  0.00    +0.000 A 
ATOM     23  C   UNL     1       5.510   6.030  16.482  0.00  0.00    +0.000 A 
ATOM     24  C   UNL     1       4.490   6.581  17.269  0.00  0.00    +0.000 A 
ATOM     25  C   UNL     1       3.536   5.761  17.879  0.00  0.00    +0.000 A 
ATOM     26  C   UNL     1       3.634   4.371  17.670  0.00  0.00    +0.000 A 
ATOM     27  C   UNL     1       4.661   3.821  16.879  0.00  0.00    +0.000 A 
BRANCH  22  28
ATOM     28  O   UNL     1       6.684   4.248  15.539  0.00  0.00    +0.000 OA
BRANCH  28  30
ATOM     29  C   UNL     1       6.046   3.750  13.292  0.00  0.00    +0.000 C 
ATOM     30  C   UNL     1       6.763   4.739  14.201  0.00  0.00    +0.000 C 
ENDBRANCH  28  30
ENDBRANCH  22  28
ENDBRANCH  21  25
ENDBRANCH  17  21
ENDBRANCH   1  18
TORSDOF 6
ENDMDL
MODEL 3
REMARK VINA RESULT:      -8.1      3.317      9.758
REMARK  Name = 
REMARK  7 active torsions:
REMARK  status: ('A' for Active; 'I' for Inactive)
REMARK    1  A    between atoms: C_1  and  C_2
REMARK    2  A    between atoms: C_2  and  O_3
REMARK    3  A    between atoms: O_3  and  C_4
REMARK    4  A    between atoms: C_7  and  C_8
REMARK    5  A    between atoms: C_8  and  N_9
REMARK    6  A    between atoms: C_10  and  C_12
REMARK    7  A    between atoms: C_12  and  N_13
REMARK                            x       y       z     vdW  Elec       q    Type
REMARK                         _______ _______ _______ _____ _____    ______ ____
ROOT
ATOM      1  C   UNL     1       1.171  10.086  18.391  0.00  0.00    +0.000 C 
ENDROOT
BRANCH   1   2
ATOM      2  N   UNL     1       0.026  10.745  19.033  0.00  0.00    +0.000 N 
ATOM      3  C   UNL     1       0.343  11.743  19.966  0.00  0.00    +0.000 A 
ATOM      4  O   UNL     1       1.485  12.167  20.140  0.00  0.00    +0.000 OA
ATOM      5  C   UNL     1      -0.764  12.225  20.732  0.00  0.00    +0.000 A 
ATOM      6  C   UNL     1      -0.805  12.769  21.997  0.00  0.00    +0.000 A 
ATOM      7  C   UNL     1      -2.163  13.030  22.290  0.00  0.00    +0.000 A 
ATOM      8  C   UNL     1      -2.896  12.699  21.170  0.00  0.00    +0.000 A 
ATOM      9  N   UNL     1      -2.034  12.175  20.238  0.00  0.00    +0.000 N 
ATOM     10  C   UNL     1      -2.313  11.587  18.994  0.00  0.00    +0.000 A 
ATOM     11  C   UNL     1      -3.555  11.803  18.380  0.00  0.00    +0.000 A 
ATOM     12  C   UNL     1      -3.863  11.097  17.227  0.00  0.00    +0.000 A 
ATOM     13  C   UNL     1      -2.949  10.169  16.745  0.00  0.00    +0.000 A 
ATOM     14  F   UNL     1      -3.290   9.429  15.680  0.00  0.00    +0.000 F 
ATOM     15  C   UNL     1      -1.683   9.992  17.331  0.00  0.00    +0.000 A 
ATOM     16  C   UNL     1      -1.308  10.748  18.445  0.00  0.00    +0.000 A 
ENDBRANCH   1   2
BRANCH   1  18
ATOM     17  N   UNL     1       2.243   7.850  18.118  0.00  0.00    +0.000 N 
ATOM     18  C   UNL     1       1.656   8.731  19.009  0.00  0.00    +0.000 C 
ATOM     19  O   UNL     1       1.458   8.451  20.194  0.00  0.00    +0.000 OA
ATOM     20  H   UNL     1       2.674   8.269  17.294  0.00  0.00    +0.000 HD
BRANCH  17  21
ATOM     21  C   UNL     1       2.588   6.467  18.402  0.00  0.00    +0.000 C 
BRANCH  21  25
ATOM     22  C   UNL     1       5.855   4.862  16.020  0.00  0.00    +0.000 A 
ATOM     23  C   UNL     1       5.005   4.020  16.738  0.00  0.00    +0.000 A 
ATOM     24  C   UNL     1       3.972   4.538  17.531  0.00  0.00    +0.000 A 
ATOM     25  C   UNL     1       3.778   5.918  17.640  0.00  0.00    +0.000 A 
ATOM     26  C   UNL     1       4.655   6.763  16.932  0.00  0.00    +0.000 A 
ATOM     27  C   UNL     1       5.692   6.239  16.135  0.00  0.00    +0.000 A 
BRANCH  22  28
ATOM     28  O   UNL     1       6.794   4.219  15.256  0.00  0.00    +0.000 OA
BRANCH  28  30
ATOM     29  C   UNL     1       5.901   3.647  13.116  0.00  0.00    +0.000 C 
ATOM     30  C   UNL     1       6.860   4.557  13.870  0.00  0.00    +0.000 C 
ENDBRANCH  28  30
ENDBRANCH  22  28
ENDBRANCH  21  25
ENDBRANCH  17  21
ENDBRANCH   1  18
TORSDOF 6
ENDMDL
MODEL 4
REMARK VINA RESULT:      -8.0      2.406      3.628
REMARK  Name = 
REMARK  7 active torsions:
REMARK  status: ('A' for Active; 'I' for Inactive)
REMARK    1  A    between atoms: C_1  and  C_2
REMARK    2  A    between atoms: C_2  and  O_3
REMARK    3  A    between atoms: O_3  and  C_4
REMARK    4  A    between atoms: C_7  and  C_8
REMARK    5  A    between atoms: C_8  and  N_9
REMARK    6  A    between atoms: C_10  and  C_12
REMARK    7  A    between atoms: C_12  and  N_13
REMARK                            x       y       z     vdW  Elec       q    Type
REMARK                         _______ _______ _______ _____ _____    ______ ____
ROOT
ATOM      1  C   UNL     1       2.381   7.301  18.935  0.00  0.00    +0.000 C 
ENDROOT
BRANCH   1   2
ATOM      2  N   UNL     1       3.028   6.299  18.078  0.00  0.00    +0.000 N 
ATOM      3  C   UNL     1       4.319   6.622  17.633  0.00  0.00    +0.000 A 
ATOM      4  O   UNL     1       4.950   7.595  18.042  0.00  0.00    +0.000 OA
ATOM      5  C   UNL     1       4.851   5.744  16.638  0.00  0.00    +0.000 A 
ATOM      6  C   UNL     1       5.775   5.977  15.644  0.00  0.00    +0.000 A 
ATOM      7  C   UNL     1       5.903   4.776  14.909  0.00  0.00    +0.000 A 
ATOM      8  C   UNL     1       5.103   3.834  15.521  0.00  0.00    +0.000 A 
ATOM      9  N   UNL     1       4.438   4.447  16.554  0.00  0.00    +0.000 N 
ATOM     10  C   UNL     1       3.430   3.944  17.392  0.00  0.00    +0.000 A 
ATOM     11  C   UNL     1       3.228   2.559  17.492  0.00  0.00    +0.000 A 
ATOM     12  C   UNL     1       2.137   2.092  18.208  0.00  0.00    +0.000 A 
ATOM     13  C   UNL     1       1.256   3.011  18.763  0.00  0.00    +0.000 A 
ATOM     14  F   UNL     1       0.157   2.553  19.379  0.00  0.00    +0.000 F 
ATOM     15  C   UNL     1       1.488   4.398  18.707  0.00  0.00    +0.000 A 
ATOM     16  C   UNL     1       2.624   4.899  18.065  0.00  0.00    +0.000 A 
ENDBRANCH   1   2
BRANCH   1  18
ATOM     17  N   UNL     1       1.294   9.541  19.082  0.00  0.00    +0.000 N 
ATOM     18  C   UNL     1       1.998   8.668  18.273  0.00  0.00    +0.000 C 
ATOM     19  O   UNL     1       2.251   8.909  17.090  0.00  0.00    +0.000 OA
ATOM     20  H   UNL     1       1.434   9.432  20.087  0.00  0.00    +0.000 HD
BRANCH  17  21
ATOM     21  C   UNL     1       0.658  10.774  18.644  0.00  0.00    +0.000 C 
BRANCH  21  25
ATOM     22  C   UNL     1      -3.585  10.696  17.690  0.00  0.00    +0.000 A 
ATOM     23  C   UNL     1      -3.083  11.546  18.677  0.00  0.00    +0.000 A 
ATOM     24  C   UNL     1      -1.721  11.548  19.007  0.00  0.00    +0.000 A 
ATOM     25  C   UNL     1      -0.829  10.682  18.368  0.00  0.00    +0.000 A 
ATOM     26  C   UNL     1      -1.347   9.810  17.390  0.00  0.00    +0.000 A 
ATOM     27  C   UNL     1      -2.716   9.810  17.060  0.00  0.00    +0.000 A 
BRANCH  22  28
ATOM     28  O   UNL     1      -4.927  10.827  17.443  0.00  0.00    +0.000 OA
BRANCH  28  30
ATOM     29  C   UNL     1      -6.945  11.506  18.524  0.00  0.00    +0.000 C 
ATOM     30  C   UNL     1      -5.592  11.962  17.998  0.00  0.00    +0.000 C 
ENDBRANCH  28  30
ENDBRANCH  22  28
ENDBRANCH  21  25
ENDBRANCH  17  21
ENDBRANCH   1  18
TORSDOF 6
ENDMDL
MODEL 5
REMARK VINA RESULT:      -7.9      3.506      9.653
REMARK  Name = 
REMARK  7 active torsions:
REMARK  status: ('A' for Active; 'I' for Inactive)
REMARK    1  A    between atoms: C_1  and  C_2
REMARK    2  A    between atoms: C_2  and  O_3
REMARK    3  A    between atoms: O_3  and  C_4
REMARK    4  A    between atoms: C_7  and  C_8
REMARK    5  A    between atoms: C_8  and  N_9
REMARK    6  A    between atoms: C_10  and  C_12
REMARK    7  A    between atoms: C_12  and  N_13
REMARK                            x       y       z     vdW  Elec       q    Type
REMARK                         _______ _______ _______ _____ _____    ______ ____
ROOT
ATOM      1  C   UNL     1      -0.214  12.008  19.645  0.00  0.00    +0.000 C 
ENDROOT
BRANCH   1   2
ATOM      2  N   UNL     1      -1.682  12.027  19.666  0.00  0.00    +0.000 N 
ATOM      3  C   UNL     1      -2.266  12.902  20.594  0.00  0.00    +0.000 A 
ATOM      4  O   UNL     1      -1.622  13.722  21.247  0.00  0.00    +0.000 OA
ATOM      5  C   UNL     1      -3.680  12.759  20.751  0.00  0.00    +0.000 A 
ATOM      6  C   UNL     1      -4.489  13.026  21.832  0.00  0.00    +0.000 A 
ATOM      7  C   UNL     1      -5.804  12.657  21.465  0.00  0.00    +0.000 A 
ATOM      8  C   UNL     1      -5.761  12.240  20.151  0.00  0.00    +0.000 A 
ATOM      9  N   UNL     1      -4.453  12.274  19.738  0.00  0.00    +0.000 N 
ATOM     10  C   UNL     1      -3.886  11.833  18.531  0.00  0.00    +0.000 A 
ATOM     11  C   UNL     1      -4.701  11.617  17.411  0.00  0.00    +0.000 A 
ATOM     12  C   UNL     1      -4.144  11.043  16.278  0.00  0.00    +0.000 A 
ATOM     13  C   UNL     1      -2.810  10.661  16.307  0.00  0.00    +0.000 A 
ATOM     14  F   UNL     1      -2.302  10.029  15.240  0.00  0.00    +0.000 F 
ATOM     15  C   UNL     1      -1.980  10.926  17.412  0.00  0.00    +0.000 A 
ATOM     16  C   UNL     1      -2.489  11.579  18.538  0.00  0.00    +0.000 A 
ENDBRANCH   1   2
BRANCH   1  18
ATOM     17  N   UNL     1       0.711   9.738  20.108  0.00  0.00    +0.000 N 
ATOM     18  C   UNL     1       0.503  11.008  20.615  0.00  0.00    +0.000 C 
ATOM     19  O   UNL     1       0.793  11.323  21.772  0.00  0.00    +0.000 OA
ATOM     20  H   UNL     1       0.775   9.666  19.093  0.00  0.00    +0.000 HD
BRANCH  17  21
ATOM     21  C   UNL     1       1.170   8.589  20.872  0.00  0.00    +0.000 C 
BRANCH  21  25
ATOM     22  C   UNL     1       2.811   5.359  18.465  0.00  0.00    +0.000 A 
ATOM     23  C   UNL     1       2.284   5.116  19.734  0.00  0.00    +0.000 A 
ATOM     24  C   UNL     1       1.784   6.161  20.523  0.00  0.00    +0.000 A 
ATOM     25  C   UNL     1       1.818   7.482  20.067  0.00  0.00    +0.000 A 
ATOM     26  C   UNL     1       2.375   7.723  18.795  0.00  0.00    +0.000 A 
ATOM     27  C   UNL     1       2.876   6.671  18.004  0.00  0.00    +0.000 A 
BRANCH  22  28
ATOM     28  O   UNL     1       3.227   4.242  17.788  0.00  0.00    +0.000 OA
BRANCH  28  30
ATOM     29  C   UNL     1       3.318   1.867  18.023  0.00  0.00    +0.000 C 
ATOM     30  C   UNL     1       2.406   3.077  17.874  0.00  0.00    +0.000 C 
ENDBRANCH  28  30
ENDBRANCH  22  28
ENDBRANCH  21  25
ENDBRANCH  17  21
ENDBRANCH   1  18
TORSDOF 6
ENDMDL
MODEL 6
REMARK VINA RESULT:      -7.8      4.848      8.248
REMARK  Name = 
REMARK  7 active torsions:
REMARK  status: ('A' for Active; 'I' for Inactive)
REMARK    1  A    between atoms: C_1  and  C_2
REMARK    2  A    between atoms: C_2  and  O_3
REMARK    3  A    between atoms: O_3  and  C_4
REMARK    4  A    between atoms: C_7  and  C_8
REMARK    5  A    between atoms: C_8  and  N_9
REMARK    6  A    between atoms: C_10  and  C_12
REMARK    7  A    between atoms: C_12  and  N_13
REMARK                            x       y       z     vdW  Elec       q    Type
REMARK                         _______ _______ _______ _____ _____    ______ ____
ROOT
ATOM      1  C   UNL     1       6.464   5.213  18.603  0.00  0.00    +0.000 C 
ENDROOT
BRANCH   1   2
ATOM      2  N   UNL     1       5.056   4.815  18.478  0.00  0.00    +0.000 N 
ATOM      3  C   UNL     1       4.717   3.589  19.070  0.00  0.00    +0.000 A 
ATOM      4  O   UNL     1       5.486   2.947  19.783  0.00  0.00    +0.000 OA
ATOM      5  C   UNL     1       3.403   3.115  18.763  0.00  0.00    +0.000 A 
ATOM      6  C   UNL     1       2.907   1.831  18.708  0.00  0.00    +0.000 A 
ATOM      7  C   UNL     1       1.555   1.927  18.307  0.00  0.00    +0.000 A 
ATOM      8  C   UNL     1       1.255   3.269  18.194  0.00  0.00    +0.000 A 
ATOM      9  N   UNL     1       2.401   3.983  18.441  0.00  0.00    +0.000 N 
ATOM     10  C   UNL     1       2.635   5.363  18.331  0.00  0.00    +0.000 A 
ATOM     11  C   UNL     1       1.555   6.256  18.291  0.00  0.00    +0.000 A 
ATOM     12  C   UNL     1       1.803   7.596  18.035  0.00  0.00    +0.000 A 
ATOM     13  C   UNL     1       3.108   8.000  17.783  0.00  0.00    +0.000 A 
ATOM     14  F   UNL     1       3.329   9.279  17.452  0.00  0.00    +0.000 F 
ATOM     15  C   UNL     1       4.196   7.113  17.876  0.00  0.00    +0.000 A 
ATOM     16  C   UNL     1       3.989   5.773  18.215  0.00  0.00    +0.000 A 
ENDBRANCH   1   2
BRANCH   1  18
ATOM     17  N   UNL     1       7.110   5.884  16.289  0.00  0.00    +0.000 N 
ATOM     18  C   UNL     1       7.375   5.028  17.342  0.00  0.00    +0.000 C 
ATOM     19  O   UNL     1       8.219   4.131  17.279  0.00  0.00    +0.000 OA
ATOM     20  H   UNL     1       6.678   6.776  16.535  0.00  0.00    +0.000 HD
BRANCH  17  21
ATOM     21  C   UNL     1       7.675   5.780  14.953  0.00  0.00    +0.000 C 
BRANCH  21  25
ATOM     22  C   UNL     1       5.493   3.273  12.147  0.00  0.00    +0.000 A 
ATOM     23  C   UNL     1       4.955   3.598  13.393  0.00  0.00    +0.000 A 
ATOM     24  C   UNL     1       5.671   4.379  14.310  0.00  0.00    +0.000 A 
ATOM     25  C   UNL     1       6.956   4.839  14.008  0.00  0.00    +0.000 A 
ATOM     26  C   UNL     1       7.503   4.487  12.758  0.00  0.00    +0.000 A 
ATOM     27  C   UNL     1       6.781   3.702  11.839  0.00  0.00    +0.000 A 
BRANCH  22  28
ATOM     28  O   UNL     1       4.668   2.538  11.336  0.00  0.00    +0.000 OA
BRANCH  28  30
ATOM     29  C   UNL     1       3.361   4.011   9.985  0.00  0.00    +0.000 C 
ATOM     30  C   UNL     1       3.338   3.019  11.139  0.00  0.00    +0.000 C 
ENDBRANCH  28  30
ENDBRANCH  22  28
ENDBRANCH  21  25
ENDBRANCH  17  21
ENDBRANCH   1  18
TORSDOF 6
ENDMDL
MODEL 7
REMARK VINA RESULT:      -7.8      3.569      4.693
REMARK  Name = 
REMARK  7 active torsions:
REMARK  status: ('A' for Active; 'I' for Inactive)
REMARK    1  A    between atoms: C_1  and  C_2
REMARK    2  A    between atoms: C_2  and  O_3
REMARK    3  A    between atoms: O_3  and  C_4
REMARK    4  A    between atoms: C_7  and  C_8
REMARK    5  A    between atoms: C_8  and  N_9
REMARK    6  A    between atoms: C_10  and  C_12
REMARK    7  A    between atoms: C_12  and  N_13
REMARK                            x       y       z     vdW  Elec       q    Type
REMARK                         _______ _______ _______ _____ _____    ______ ____
ROOT
ATOM      1  C   UNL     1       2.445   7.211  18.071  0.00  0.00    +0.000 C 
ENDROOT
BRANCH   1   2
ATOM      2  N   UNL     1       3.247   6.121  17.501  0.00  0.00    +0.000 N 
ATOM      3  C   UNL     1       4.587   6.431  17.228  0.00  0.00    +0.000 A 
ATOM      4  O   UNL     1       5.122   7.483  17.575  0.00  0.00    +0.000 OA
ATOM      5  C   UNL     1       5.296   5.436  16.485  0.00  0.00    +0.000 A 
ATOM      6  C   UNL     1       6.370   5.556  15.631  0.00  0.00    +0.000 A 
ATOM      7  C   UNL     1       6.643   4.264  15.126  0.00  0.00    +0.000 A 
ATOM      8  C   UNL     1       5.770   3.391  15.741  0.00  0.00    +0.000 A 
ATOM      9  N   UNL     1       4.930   4.124  16.541  0.00  0.00    +0.000 N 
ATOM     10  C   UNL     1       3.805   3.709  17.272  0.00  0.00    +0.000 A 
ATOM     11  C   UNL     1       3.616   2.349  17.557  0.00  0.00    +0.000 A 
ATOM     12  C   UNL     1       2.429   1.947  18.150  0.00  0.00    +0.000 A 
ATOM     13  C   UNL     1       1.450   2.899  18.401  0.00  0.00    +0.000 A 
ATOM     14  F   UNL     1       0.272   2.491  18.894  0.00  0.00    +0.000 F 
ATOM     15  C   UNL     1       1.660   4.269  18.164  0.00  0.00    +0.000 A 
ATOM     16  C   UNL     1       2.878   4.718  17.645  0.00  0.00    +0.000 A 
ENDBRANCH   1   2
BRANCH   1  18
ATOM     17  N   UNL     1       1.478   8.255  20.121  0.00  0.00    +0.000 N 
ATOM     18  C   UNL     1       2.271   7.234  19.628  0.00  0.00    +0.000 C 
ATOM     19  O   UNL     1       2.861   6.434  20.358  0.00  0.00    +0.000 OA
ATOM     20  H   UNL     1       0.777   8.626  19.479  0.00  0.00    +0.000 HD
BRANCH  17  21
ATOM     21  C   UNL     1       1.327   8.605  21.524  0.00  0.00    +0.000 C 
BRANCH  21  25
ATOM     22  C   UNL     1      -1.314  11.913  22.524  0.00  0.00    +0.000 A 
ATOM     23  C   UNL     1      -1.286  10.753  23.300  0.00  0.00    +0.000 A 
ATOM     24  C   UNL     1      -0.458   9.674  22.959  0.00  0.00    +0.000 A 
ATOM     25  C   UNL     1       0.349   9.723  21.819  0.00  0.00    +0.000 A 
ATOM     26  C   UNL     1       0.297  10.888  21.028  0.00  0.00    +0.000 A 
ATOM     27  C   UNL     1      -0.535  11.971  21.373  0.00  0.00    +0.000 A 
BRANCH  22  28
ATOM     28  O   UNL     1      -2.138  12.902  22.995  0.00  0.00    +0.000 OA
BRANCH  28  30
ATOM     29  C   UNL     1      -4.459  13.429  23.190  0.00  0.00    +0.000 C 
ATOM     30  C   UNL     1      -3.342  12.502  23.649  0.00  0.00    +0.000 C 
ENDBRANCH  28  30
ENDBRANCH  22  28
ENDBRANCH  21  25
ENDBRANCH  17  21
ENDBRANCH   1  18
TORSDOF 6
ENDMDL
MODEL 8
REMARK VINA RESULT:      -7.8      3.500      9.621
REMARK  Name = 
REMARK  7 active torsions:
REMARK  status: ('A' for Active; 'I' for Inactive)
REMARK    1  A    between atoms: C_1  and  C_2
REMARK    2  A    between atoms: C_2  and  O_3
REMARK    3  A    between atoms: O_3  and  C_4
REMARK    4  A    between atoms: C_7  and  C_8
REMARK    5  A    between atoms: C_8  and  N_9
REMARK    6  A    between atoms: C_10  and  C_12
REMARK    7  A    between atoms: C_12  and  N_13
REMARK                            x       y       z     vdW  Elec       q    Type
REMARK                         _______ _______ _______ _____ _____    ______ ____
ROOT
ATOM      1  C   UNL     1      -0.126  11.946  19.366  0.00  0.00    +0.000 C 
ENDROOT
BRANCH   1   2
ATOM      2  N   UNL     1      -1.592  11.976  19.454  0.00  0.00    +0.000 N 
ATOM      3  C   UNL     1      -2.125  12.856  20.408  0.00  0.00    +0.000 A 
ATOM      4  O   UNL     1      -1.445  13.670  21.031  0.00  0.00    +0.000 OA
ATOM      5  C   UNL     1      -3.532  12.723  20.630  0.00  0.00    +0.000 A 
ATOM      6  C   UNL     1      -4.289  12.997  21.747  0.00  0.00    +0.000 A 
ATOM      7  C   UNL     1      -5.621  12.639  21.441  0.00  0.00    +0.000 A 
ATOM      8  C   UNL     1      -5.643  12.222  20.126  0.00  0.00    +0.000 A 
ATOM      9  N   UNL     1      -4.354  12.245  19.653  0.00  0.00    +0.000 N 
ATOM     10  C   UNL     1      -3.847  11.800  18.422  0.00  0.00    +0.000 A 
ATOM     11  C   UNL     1      -4.715  11.592  17.340  0.00  0.00    +0.000 A 
ATOM     12  C   UNL     1      -4.215  11.015  16.183  0.00  0.00    +0.000 A 
ATOM     13  C   UNL     1      -2.884  10.621  16.150  0.00  0.00    +0.000 A 
ATOM     14  F   UNL     1      -2.430   9.986  15.060  0.00  0.00    +0.000 F 
ATOM     15  C   UNL     1      -2.002  10.879  17.215  0.00  0.00    +0.000 A 
ATOM     16  C   UNL     1      -2.453  11.535  18.364  0.00  0.00    +0.000 A 
ENDBRANCH   1   2
BRANCH   1  18
ATOM     17  N   UNL     1       0.502   9.633  20.058  0.00  0.00    +0.000 N 
ATOM     18  C   UNL     1       0.629  10.981  20.342  0.00  0.00    +0.000 C 
ATOM     19  O   UNL     1       1.234  11.402  21.330  0.00  0.00    +0.000 OA
ATOM     20  H   UNL     1       0.309   9.397  19.085  0.00  0.00    +0.000 HD
BRANCH  17  21
ATOM     21  C   UNL     1       0.937   8.544  20.919  0.00  0.00    +0.000 C 
BRANCH  21  25
ATOM     22  C   UNL     1       3.292   5.405  19.042  0.00  0.00    +0.000 A 
ATOM     23  C   UNL     1       3.141   6.654  18.436  0.00  0.00    +0.000 A 
ATOM     24  C   UNL     1       2.356   7.654  19.025  0.00  0.00    +0.000 A 
ATOM     25  C   UNL     1       1.685   7.422  20.229  0.00  0.00    +0.000 A 
ATOM     26  C   UNL     1       1.823   6.152  20.823  0.00  0.00    +0.000 A 
ATOM     27  C   UNL     1       2.613   5.148  20.230  0.00  0.00    +0.000 A 
BRANCH  22  28
ATOM     28  O   UNL     1       4.119   4.537  18.378  0.00  0.00    +0.000 OA
BRANCH  28  30
ATOM     29  C   UNL     1       2.517   3.180  17.241  0.00  0.00    +0.000 C 
ATOM     30  C   UNL     1       3.715   4.105  17.079  0.00  0.00    +0.000 C 
ENDBRANCH  28  30
ENDBRANCH  22  28
ENDBRANCH  21  25
ENDBRANCH  17  21
ENDBRANCH   1  18
TORSDOF 6
ENDMDL
MODEL 9
REMARK VINA RESULT:      -7.8      3.245      9.715
REMARK  Name = 
REMARK  7 active torsions:
REMARK  status: ('A' for Active; 'I' for Inactive)
REMARK    1  A    between atoms: C_1  and  C_2
REMARK    2  A    between atoms: C_2  and  O_3
REMARK    3  A    between atoms: O_3  and  C_4
REMARK    4  A    between atoms: C_7  and  C_8
REMARK    5  A    between atoms: C_8  and  N_9
REMARK    6  A    between atoms: C_10  and  C_12
REMARK    7  A    between atoms: C_12  and  N_13
REMARK                            x       y       z     vdW  Elec       q    Type
REMARK                         _______ _______ _______ _____ _____    ______ ____
ROOT
ATOM      1  C   UNL     1       0.088  11.638  19.655  0.00  0.00    +0.000 C 
ENDROOT
BRANCH   1   2
ATOM      2  N   UNL     1      -1.371  11.794  19.707  0.00  0.00    +0.000 N 
ATOM      3  C   UNL     1      -1.847  12.765  20.601  0.00  0.00    +0.000 A 
ATOM      4  O   UNL     1      -1.114  13.553  21.196  0.00  0.00    +0.000 OA
ATOM      5  C   UNL     1      -3.264  12.762  20.796  0.00  0.00    +0.000 A 
ATOM      6  C   UNL     1      -4.016  13.156  21.879  0.00  0.00    +0.000 A 
ATOM      7  C   UNL     1      -5.368  12.893  21.561  0.00  0.00    +0.000 A 
ATOM      8  C   UNL     1      -5.399  12.409  20.270  0.00  0.00    +0.000 A 
ATOM      9  N   UNL     1      -4.104  12.300  19.826  0.00  0.00    +0.000 N 
ATOM     10  C   UNL     1      -3.613  11.749  18.632  0.00  0.00    +0.000 A 
ATOM     11  C   UNL     1      -4.474  11.555  17.543  0.00  0.00    +0.000 A 
ATOM     12  C   UNL     1      -4.003  10.877  16.430  0.00  0.00    +0.000 A 
ATOM     13  C   UNL     1      -2.708  10.374  16.449  0.00  0.00    +0.000 A 
ATOM     14  F   UNL     1      -2.289   9.645  15.405  0.00  0.00    +0.000 F 
ATOM     15  C   UNL     1      -1.828  10.615  17.519  0.00  0.00    +0.000 A 
ATOM     16  C   UNL     1      -2.245  11.368  18.621  0.00  0.00    +0.000 A 
ENDBRANCH   1   2
BRANCH   1  18
ATOM     17  N   UNL     1       0.996   9.332  19.940  0.00  0.00    +0.000 N 
ATOM     18  C   UNL     1       0.723  10.534  20.567  0.00  0.00    +0.000 C 
ATOM     19  O   UNL     1       0.898  10.713  21.775  0.00  0.00    +0.000 OA
ATOM     20  H   UNL     1       1.156   9.379  18.933  0.00  0.00    +0.000 HD
BRANCH  17  21
ATOM     21  C   UNL     1       1.395   8.103  20.607  0.00  0.00    +0.000 C 
BRANCH  21  25
ATOM     22  C   UNL     1       3.410   5.202  18.068  0.00  0.00    +0.000 A 
ATOM     23  C   UNL     1       2.908   4.840  19.319  0.00  0.00    +0.000 A 
ATOM     24  C   UNL     1       2.287   5.782  20.151  0.00  0.00    +0.000 A 
ATOM     25  C   UNL     1       2.171   7.118  19.757  0.00  0.00    +0.000 A 
ATOM     26  C   UNL     1       2.702   7.481  18.503  0.00  0.00    +0.000 A 
ATOM     27  C   UNL     1       3.324   6.533  17.669  0.00  0.00    +0.000 A 
BRANCH  22  28
ATOM     28  O   UNL     1       3.955   4.173  17.345  0.00  0.00    +0.000 OA
BRANCH  28  30
ATOM     29  C   UNL     1       5.478   4.233  15.506  0.00  0.00    +0.000 C 
ATOM     30  C   UNL     1       5.343   4.257  17.022  0.00  0.00    +0.000 C 
ENDBRANCH  28  30
ENDBRANCH  22  28
ENDBRANCH  21  25
ENDBRANCH  17  21
ENDBRANCH   1  18
TORSDOF 6
ENDMDL
