MODEL 1
REMARK VINA RESULT:      -9.0      0.000      0.000
REMARK  Name = 
REMARK  5 active torsions:
REMARK  status: ('A' for Active; 'I' for Inactive)
REMARK    1  A    between atoms: C_1  and  S_2
REMARK    2  A    between atoms: S_2  and  C_5
REMARK    3  A    between atoms: C_8  and  C_9
REMARK    4  A    between atoms: C_11  and  C_12
REMARK    5  A    between atoms: C_12  and  O_14
REMARK                            x       y       z     vdW  Elec       q    Type
REMARK                         _______ _______ _______ _____ _____    ______ ____
ROOT
ATOM      1  C   UNL     1       1.920   6.682  20.049  0.00  0.00    +0.000 A 
ATOM      2  C   UNL     1       1.185   5.587  20.432  0.00  0.00    +0.000 A 
ATOM      3  C   UNL     1       1.731   4.346  20.158  0.00  0.00    +0.000 A 
ATOM      4  C   UNL     1       2.684   4.173  19.161  0.00  0.00    +0.000 A 
ATOM      5  C   UNL     1       2.939   2.931  18.540  0.00  0.00    +0.000 A 
ATOM      6  C   UNL     1       3.842   2.860  17.487  0.00  0.00    +0.000 A 
ATOM      7  C   UNL     1       4.586   3.989  17.121  0.00  0.00    +0.000 A 
ATOM      8  C   UNL     1       4.384   5.196  17.806  0.00  0.00    +0.000 A 
ATOM      9  C   UNL     1       3.362   5.323  18.767  0.00  0.00    +0.000 A 
ATOM     10  N   UNL     1       3.042   6.532  19.296  0.00  0.00    +0.000 NA
ATOM     11  C   UNL     1       5.252   6.395  17.556  0.00  0.00    +0.000 C 
ATOM     12  C   UNL     1       6.297   6.318  16.454  0.00  0.00    +0.000 C 
ATOM     13  C   UNL     1       6.421   5.047  15.635  0.00  0.00    +0.000 C 
ATOM     14  C   UNL     1       5.506   3.871  15.944  0.00  0.00    +0.000 C 
ENDROOT
BRANCH   1  18
ATOM     15  C   UNL     1       0.457  10.563  21.119  0.00  0.00    +0.000 A 
ATOM     16  C   UNL     1       0.699   9.633  22.123  0.00  0.00    +0.000 A 
ATOM     17  C   UNL     1       1.250   8.394  21.786  0.00  0.00    +0.000 A 
ATOM     18  C   UNL     1       1.543   8.054  20.446  0.00  0.00    +0.000 A 
ATOM     19  C   UNL     1       1.385   9.059  19.477  0.00  0.00    +0.000 A 
ATOM     20  C   UNL     1       0.829  10.299  19.801  0.00  0.00    +0.000 A 
BRANCH  15  22
ATOM     21  C   UNL     1      -1.379  11.662  22.943  0.00  0.00    +0.000 C 
ATOM     22  S   UNL     1      -0.443  12.047  21.492  0.00  0.00    +0.000 S 
ATOM     23  O   UNL     1      -1.386  12.270  20.411  0.00  0.00    +0.000 OA
ATOM     24  O   UNL     1       0.546  13.050  21.839  0.00  0.00    +0.000 OA
ENDBRANCH  15  22
ENDBRANCH   1  18
BRANCH   3  25
ATOM     25  C   UNL     1       1.770   3.439  21.321  0.00  0.00    +0.000 C 
ATOM     26  O   UNL     1       2.625   3.475  22.191  0.00  0.00    +0.000 OA
BRANCH  25  27
ATOM     27  O   UNL     1       0.701   2.604  21.320  0.00  0.00    +0.000 OA
ATOM     28  H   UNL     1       0.347   2.377  22.205  0.00  0.00    +0.000 HD
ENDBRANCH  25  27
ENDBRANCH   3  25
TORSDOF 4
ENDMDL
MODEL 2
REMARK VINA RESULT:      -8.6      0.714      1.049
REMARK  Name = 
REMARK  5 active torsions:
REMARK  status: ('A' for Active; 'I' for Inactive)
REMARK    1  A    between atoms: C_1  and  S_2
REMARK    2  A    between atoms: S_2  and  C_5
REMARK    3  A    between atoms: C_8  and  C_9
REMARK    4  A    between atoms: C_11  and  C_12
REMARK    5  A    between atoms: C_12  and  O_14
REMARK                            x       y       z     vdW  Elec       q    Type
REMARK                         _______ _______ _______ _____ _____    ______ ____
ROOT
ATOM      1  C   UNL     1       1.810   6.743  20.107  0.00  0.00    +0.000 A 
ATOM      2  C   UNL     1       1.077   5.639  20.468  0.00  0.00    +0.000 A 
ATOM      3  C   UNL     1       1.596   4.407  20.111  0.00  0.00    +0.000 A 
ATOM      4  C   UNL     1       2.505   4.272  19.068  0.00  0.00    +0.000 A 
ATOM      5  C   UNL     1       2.719   3.059  18.379  0.00  0.00    +0.000 A 
ATOM      6  C   UNL     1       3.576   3.029  17.287  0.00  0.00    +0.000 A 
ATOM      7  C   UNL     1       4.319   4.167  16.945  0.00  0.00    +0.000 A 
ATOM      8  C   UNL     1       4.162   5.341  17.695  0.00  0.00    +0.000 A 
ATOM      9  C   UNL     1       3.181   5.432  18.702  0.00  0.00    +0.000 A 
ATOM     10  N   UNL     1       2.899   6.617  19.302  0.00  0.00    +0.000 NA
ATOM     11  C   UNL     1       5.034   6.541  17.467  0.00  0.00    +0.000 C 
ATOM     12  C   UNL     1       6.031   6.506  16.320  0.00  0.00    +0.000 C 
ATOM     13  C   UNL     1       6.105   5.275  15.436  0.00  0.00    +0.000 C 
ATOM     14  C   UNL     1       5.189   4.095  15.726  0.00  0.00    +0.000 C 
ENDROOT
BRANCH   1  18
ATOM     15  C   UNL     1       0.442  10.578  21.436  0.00  0.00    +0.000 A 
ATOM     16  C   UNL     1       0.759   9.610  22.381  0.00  0.00    +0.000 A 
ATOM     17  C   UNL     1       1.279   8.386  21.955  0.00  0.00    +0.000 A 
ATOM     18  C   UNL     1       1.468   8.099  20.584  0.00  0.00    +0.000 A 
ATOM     19  C   UNL     1       1.238   9.140  19.670  0.00  0.00    +0.000 A 
ATOM     20  C   UNL     1       0.711  10.366  20.084  0.00  0.00    +0.000 A 
BRANCH  15  22
ATOM     21  C   UNL     1      -1.704  12.253  20.731  0.00  0.00    +0.000 C 
ATOM     22  S   UNL     1      -0.424  12.046  21.934  0.00  0.00    +0.000 S 
ATOM     23  O   UNL     1       0.492  13.163  21.792  0.00  0.00    +0.000 OA
ATOM     24  O   UNL     1      -1.041  11.744  23.212  0.00  0.00    +0.000 OA
ENDBRANCH  15  22
ENDBRANCH   1  18
BRANCH   3  25
ATOM     25  C   UNL     1       1.671   3.445  21.227  0.00  0.00    +0.000 C 
ATOM     26  O   UNL     1       1.059   2.390  21.267  0.00  0.00    +0.000 OA
BRANCH  25  27
ATOM     27  O   UNL     1       2.550   3.865  22.171  0.00  0.00    +0.000 OA
ATOM     28  H   UNL     1       2.174   4.451  22.861  0.00  0.00    +0.000 HD
ENDBRANCH  25  27
ENDBRANCH   3  25
TORSDOF 4
ENDMDL
MODEL 3
REMARK VINA RESULT:      -8.5      0.695      1.035
REMARK  Name = 
REMARK  5 active torsions:
REMARK  status: ('A' for Active; 'I' for Inactive)
REMARK    1  A    between atoms: C_1  and  S_2
REMARK    2  A    between atoms: S_2  and  C_5
REMARK    3  A    between atoms: C_8  and  C_9
REMARK    4  A    between atoms: C_11  and  C_12
REMARK    5  A    between atoms: C_12  and  O_14
REMARK                            x       y       z     vdW  Elec       q    Type
REMARK                         _______ _______ _______ _____ _____    ______ ____
ROOT
ATOM      1  C   UNL     1       1.974   6.770  19.976  0.00  0.00    +0.000 A 
ATOM      2  C   UNL     1       1.206   5.669  20.264  0.00  0.00    +0.000 A 
ATOM      3  C   UNL     1       1.777   4.433  20.018  0.00  0.00    +0.000 A 
ATOM      4  C   UNL     1       2.822   4.278  19.115  0.00  0.00    +0.000 A 
ATOM      5  C   UNL     1       3.137   3.049  18.497  0.00  0.00    +0.000 A 
ATOM      6  C   UNL     1       4.137   2.998  17.535  0.00  0.00    +0.000 A 
ATOM      7  C   UNL     1       4.913   4.133  17.267  0.00  0.00    +0.000 A 
ATOM      8  C   UNL     1       4.646   5.326  17.953  0.00  0.00    +0.000 A 
ATOM      9  C   UNL     1       3.535   5.435  18.813  0.00  0.00    +0.000 A 
ATOM     10  N   UNL     1       3.165   6.633  19.334  0.00  0.00    +0.000 NA
ATOM     11  C   UNL     1       5.533   6.529  17.814  0.00  0.00    +0.000 C 
ATOM     12  C   UNL     1       6.680   6.472  16.817  0.00  0.00    +0.000 C 
ATOM     13  C   UNL     1       6.884   5.218  15.988  0.00  0.00    +0.000 C 
ATOM     14  C   UNL     1       5.944   4.037  16.183  0.00  0.00    +0.000 C 
ENDROOT
BRANCH   1  18
ATOM     15  C   UNL     1       0.415  10.632  20.975  0.00  0.00    +0.000 A 
ATOM     16  C   UNL     1       0.546   9.678  21.977  0.00  0.00    +0.000 A 
ATOM     17  C   UNL     1       1.127   8.445  21.671  0.00  0.00    +0.000 A 
ATOM     18  C   UNL     1       1.561   8.135  20.363  0.00  0.00    +0.000 A 
ATOM     19  C   UNL     1       1.509   9.163  19.406  0.00  0.00    +0.000 A 
ATOM     20  C   UNL     1       0.925  10.397  19.699  0.00  0.00    +0.000 A 
BRANCH  15  22
ATOM     21  C   UNL     1       0.347  13.386  20.413  0.00  0.00    +0.000 C 
ATOM     22  S   UNL     1      -0.516  12.112  21.284  0.00  0.00    +0.000 S 
ATOM     23  O   UNL     1      -0.413  12.406  22.702  0.00  0.00    +0.000 OA
ATOM     24  O   UNL     1      -1.810  11.922  20.654  0.00  0.00    +0.000 OA
ENDBRANCH  15  22
ENDBRANCH   1  18
BRANCH   3  25
ATOM     25  C   UNL     1       1.702   3.503  21.161  0.00  0.00    +0.000 C 
ATOM     26  O   UNL     1       2.549   3.420  22.036  0.00  0.00    +0.000 OA
BRANCH  25  27
ATOM     27  O   UNL     1       0.544   2.796  21.136  0.00  0.00    +0.000 OA
ATOM     28  H   UNL     1       0.388   2.223  21.915  0.00  0.00    +0.000 HD
ENDBRANCH  25  27
ENDBRANCH   3  25
TORSDOF 4
ENDMDL
MODEL 4
REMARK VINA RESULT:      -8.4      0.857      1.451
REMARK  Name = 
REMARK  5 active torsions:
REMARK  status: ('A' for Active; 'I' for Inactive)
REMARK    1  A    between atoms: C_1  and  S_2
REMARK    2  A    between atoms: S_2  and  C_5
REMARK    3  A    between atoms: C_8  and  C_9
REMARK    4  A    between atoms: C_11  and  C_12
REMARK    5  A    between atoms: C_12  and  O_14
REMARK                            x       y       z     vdW  Elec       q    Type
REMARK                         _______ _______ _______ _____ _____    ______ ____
ROOT
ATOM      1  C   UNL     1       1.859   6.690  19.834  0.00  0.00    +0.000 A 
ATOM      2  C   UNL     1       1.171   5.591  20.285  0.00  0.00    +0.000 A 
ATOM      3  C   UNL     1       1.787   4.363  20.121  0.00  0.00    +0.000 A 
ATOM      4  C   UNL     1       2.773   4.164  19.163  0.00  0.00    +0.000 A 
ATOM      5  C   UNL     1       3.108   2.893  18.647  0.00  0.00    +0.000 A 
ATOM      6  C   UNL     1       4.040   2.788  17.624  0.00  0.00    +0.000 A 
ATOM      7  C   UNL     1       4.736   3.924  17.188  0.00  0.00    +0.000 A 
ATOM      8  C   UNL     1       4.455   5.168  17.771  0.00  0.00    +0.000 A 
ATOM      9  C   UNL     1       3.403   5.314  18.696  0.00  0.00    +0.000 A 
ATOM     10  N   UNL     1       3.008   6.542  19.121  0.00  0.00    +0.000 NA
ATOM     11  C   UNL     1       5.267   6.388  17.448  0.00  0.00    +0.000 C 
ATOM     12  C   UNL     1       6.344   6.281  16.379  0.00  0.00    +0.000 C 
ATOM     13  C   UNL     1       6.554   4.959  15.665  0.00  0.00    +0.000 C 
ATOM     14  C   UNL     1       5.692   3.763  16.044  0.00  0.00    +0.000 C 
ENDROOT
BRANCH   1  18
ATOM     15  C   UNL     1       0.912  10.772  20.722  0.00  0.00    +0.000 A 
ATOM     16  C   UNL     1       1.068  10.389  19.396  0.00  0.00    +0.000 A 
ATOM     17  C   UNL     1       1.300   9.044  19.097  0.00  0.00    +0.000 A 
ATOM     18  C   UNL     1       1.403   8.068  20.113  0.00  0.00    +0.000 A 
ATOM     19  C   UNL     1       1.132   8.476  21.429  0.00  0.00    +0.000 A 
ATOM     20  C   UNL     1       0.907   9.819  21.741  0.00  0.00    +0.000 A 
BRANCH  15  22
ATOM     21  C   UNL     1       0.089  13.274  19.740  0.00  0.00    +0.000 C 
ATOM     22  S   UNL     1       0.840  12.496  21.139  0.00  0.00    +0.000 S 
ATOM     23  O   UNL     1       2.205  12.982  21.228  0.00  0.00    +0.000 OA
ATOM     24  O   UNL     1      -0.067  12.608  22.267  0.00  0.00    +0.000 OA
ENDBRANCH  15  22
ENDBRANCH   1  18
BRANCH   3  25
ATOM     25  C   UNL     1       1.840   3.552  21.353  0.00  0.00    +0.000 C 
ATOM     26  O   UNL     1       2.678   3.689  22.229  0.00  0.00    +0.000 OA
BRANCH  25  27
ATOM     27  O   UNL     1       0.804   2.678  21.402  0.00  0.00    +0.000 OA
ATOM     28  H   UNL     1       0.262   2.626  20.587  0.00  0.00    +0.000 HD
ENDBRANCH  25  27
ENDBRANCH   3  25
TORSDOF 4
ENDMDL
MODEL 5
REMARK VINA RESULT:      -7.9      3.980      8.633
REMARK  Name = 
REMARK  5 active torsions:
REMARK  status: ('A' for Active; 'I' for Inactive)
REMARK    1  A    between atoms: C_1  and  S_2
REMARK    2  A    between atoms: S_2  and  C_5
REMARK    3  A    between atoms: C_8  and  C_9
REMARK    4  A    between atoms: C_11  and  C_12
REMARK    5  A    between atoms: C_12  and  O_14
REMARK                            x       y       z     vdW  Elec       q    Type
REMARK                         _______ _______ _______ _____ _____    ______ ____
ROOT
ATOM      1  C   UNL     1       0.867  10.472  18.986  0.00  0.00    +0.000 A 
ATOM      2  C   UNL     1      -0.484  10.622  19.184  0.00  0.00    +0.000 A 
ATOM      3  C   UNL     1      -1.026  11.852  18.857  0.00  0.00    +0.000 A 
ATOM      4  C   UNL     1      -0.247  13.001  18.799  0.00  0.00    +0.000 A 
ATOM      5  C   UNL     1      -0.776  14.304  18.918  0.00  0.00    +0.000 A 
ATOM      6  C   UNL     1       0.080  15.396  18.943  0.00  0.00    +0.000 A 
ATOM      7  C   UNL     1       1.454  15.218  18.728  0.00  0.00    +0.000 A 
ATOM      8  C   UNL     1       1.955  13.924  18.524  0.00  0.00    +0.000 A 
ATOM      9  C   UNL     1       1.122  12.795  18.654  0.00  0.00    +0.000 A 
ATOM     10  N   UNL     1       1.637  11.538  18.640  0.00  0.00    +0.000 NA
ATOM     11  C   UNL     1       3.388  13.687  18.146  0.00  0.00    +0.000 C 
ATOM     12  C   UNL     1       4.331  14.879  18.098  0.00  0.00    +0.000 C 
ATOM     13  C   UNL     1       3.805  16.259  18.444  0.00  0.00    +0.000 C 
ATOM     14  C   UNL     1       2.339  16.424  18.819  0.00  0.00    +0.000 C 
ENDROOT
BRANCH   1  18
ATOM     15  C   UNL     1       2.461   6.507  19.279  0.00  0.00    +0.000 A 
ATOM     16  C   UNL     1       2.638   7.220  18.099  0.00  0.00    +0.000 A 
ATOM     17  C   UNL     1       2.189   8.541  18.027  0.00  0.00    +0.000 A 
ATOM     18  C   UNL     1       1.536   9.161  19.116  0.00  0.00    +0.000 A 
ATOM     19  C   UNL     1       1.473   8.445  20.323  0.00  0.00    +0.000 A 
ATOM     20  C   UNL     1       1.912   7.122  20.405  0.00  0.00    +0.000 A 
BRANCH  15  22
ATOM     21  C   UNL     1       2.081   4.185  20.818  0.00  0.00    +0.000 C 
ATOM     22  S   UNL     1       2.819   4.769  19.320  0.00  0.00    +0.000 S 
ATOM     23  O   UNL     1       4.257   4.622  19.457  0.00  0.00    +0.000 OA
ATOM     24  O   UNL     1       2.111   4.177  18.200  0.00  0.00    +0.000 OA
ENDBRANCH  15  22
ENDBRANCH   1  18
BRANCH   3  25
ATOM     25  C   UNL     1      -2.209  11.769  17.979  0.00  0.00    +0.000 C 
ATOM     26  O   UNL     1      -3.359  11.703  18.380  0.00  0.00    +0.000 OA
BRANCH  25  27
ATOM     27  O   UNL     1      -1.847  11.832  16.673  0.00  0.00    +0.000 OA
ATOM     28  H   UNL     1      -1.857  12.730  16.279  0.00  0.00    +0.000 HD
ENDBRANCH  25  27
ENDBRANCH   3  25
TORSDOF 4
ENDMDL
MODEL 6
REMARK VINA RESULT:      -7.6      3.942      8.566
REMARK  Name = 
REMARK  5 active torsions:
REMARK  status: ('A' for Active; 'I' for Inactive)
REMARK    1  A    between atoms: C_1  and  S_2
REMARK    2  A    between atoms: S_2  and  C_5
REMARK    3  A    between atoms: C_8  and  C_9
REMARK    4  A    between atoms: C_11  and  C_12
REMARK    5  A    between atoms: C_12  and  O_14
REMARK                            x       y       z     vdW  Elec       q    Type
REMARK                         _______ _______ _______ _____ _____    ______ ____
ROOT
ATOM      1  C   UNL     1       0.917  10.313  18.832  0.00  0.00    +0.000 A 
ATOM      2  C   UNL     1      -0.414  10.506  19.115  0.00  0.00    +0.000 A 
ATOM      3  C   UNL     1      -0.914  11.779  18.908  0.00  0.00    +0.000 A 
ATOM      4  C   UNL     1      -0.085  12.895  18.889  0.00  0.00    +0.000 A 
ATOM      5  C   UNL     1      -0.546  14.207  19.130  0.00  0.00    +0.000 A 
ATOM      6  C   UNL     1       0.361  15.256  19.186  0.00  0.00    +0.000 A 
ATOM      7  C   UNL     1       1.711  15.035  18.884  0.00  0.00    +0.000 A 
ATOM      8  C   UNL     1       2.140  13.740  18.560  0.00  0.00    +0.000 A 
ATOM      9  C   UNL     1       1.263  12.641  18.654  0.00  0.00    +0.000 A 
ATOM     10  N   UNL     1       1.717  11.368  18.522  0.00  0.00    +0.000 NA
ATOM     11  C   UNL     1       3.539  13.470  18.088  0.00  0.00    +0.000 C 
ATOM     12  C   UNL     1       4.534  14.621  18.073  0.00  0.00    +0.000 C 
ATOM     13  C   UNL     1       4.091  15.992  18.545  0.00  0.00    +0.000 C 
ATOM     14  C   UNL     1       2.656  16.192  19.011  0.00  0.00    +0.000 C 
ENDROOT
BRANCH   1  18
ATOM     15  C   UNL     1       3.027   6.588  18.942  0.00  0.00    +0.000 A 
ATOM     16  C   UNL     1       2.240   6.949  20.028  0.00  0.00    +0.000 A 
ATOM     17  C   UNL     1       1.489   8.125  19.964  0.00  0.00    +0.000 A 
ATOM     18  C   UNL     1       1.529   8.969  18.831  0.00  0.00    +0.000 A 
ATOM     19  C   UNL     1       2.251   8.515  17.715  0.00  0.00    +0.000 A 
ATOM     20  C   UNL     1       3.011   7.344  17.770  0.00  0.00    +0.000 A 
BRANCH  15  22
ATOM     21  C   UNL     1       4.260   4.543  17.457  0.00  0.00    +0.000 C 
ATOM     22  S   UNL     1       4.156   5.225  19.086  0.00  0.00    +0.000 S 
ATOM     23  O   UNL     1       3.531   4.228  19.936  0.00  0.00    +0.000 OA
ATOM     24  O   UNL     1       5.446   5.794  19.427  0.00  0.00    +0.000 OA
ENDBRANCH  15  22
ENDBRANCH   1  18
BRANCH   3  25
ATOM     25  C   UNL     1      -2.143  11.812  18.092  0.00  0.00    +0.000 C 
ATOM     26  O   UNL     1      -3.273  11.803  18.551  0.00  0.00    +0.000 OA
BRANCH  25  27
ATOM     27  O   UNL     1      -1.845  11.910  16.772  0.00  0.00    +0.000 OA
ATOM     28  H   UNL     1      -0.908  11.740  16.541  0.00  0.00    +0.000 HD
ENDBRANCH  25  27
ENDBRANCH   3  25
TORSDOF 4
ENDMDL
MODEL 7
REMARK VINA RESULT:      -7.6      3.936      8.642
REMARK  Name = 
REMARK  5 active torsions:
REMARK  status: ('A' for Active; 'I' for Inactive)
REMARK    1  A    between atoms: C_1  and  S_2
REMARK    2  A    between atoms: S_2  and  C_5
REMARK    3  A    between atoms: C_8  and  C_9
REMARK    4  A    between atoms: C_11  and  C_12
REMARK    5  A    between atoms: C_12  and  O_14
REMARK                            x       y       z     vdW  Elec       q    Type
REMARK                         _______ _______ _______ _____ _____    ______ ____
ROOT
ATOM      1  C   UNL     1       0.952  10.362  18.899  0.00  0.00    +0.000 A 
ATOM      2  C   UNL     1      -0.400  10.453  19.128  0.00  0.00    +0.000 A 
ATOM      3  C   UNL     1      -0.997  11.667  18.841  0.00  0.00    +0.000 A 
ATOM      4  C   UNL     1      -0.265  12.848  18.794  0.00  0.00    +0.000 A 
ATOM      5  C   UNL     1      -0.843  14.125  18.955  0.00  0.00    +0.000 A 
ATOM      6  C   UNL     1      -0.031  15.250  18.989  0.00  0.00    +0.000 A 
ATOM      7  C   UNL     1       1.344  15.132  18.743  0.00  0.00    +0.000 A 
ATOM      8  C   UNL     1       1.892  13.865  18.498  0.00  0.00    +0.000 A 
ATOM      9  C   UNL     1       1.108  12.700  18.617  0.00  0.00    +0.000 A 
ATOM     10  N   UNL     1       1.671  11.466  18.564  0.00  0.00    +0.000 NA
ATOM     11  C   UNL     1       3.325  13.695  18.086  0.00  0.00    +0.000 C 
ATOM     12  C   UNL     1       4.219  14.924  18.047  0.00  0.00    +0.000 C 
ATOM     13  C   UNL     1       3.646  16.273  18.436  0.00  0.00    +0.000 C 
ATOM     14  C   UNL     1       2.183  16.370  18.844  0.00  0.00    +0.000 C 
ENDROOT
BRANCH   1  18
ATOM     15  C   UNL     1       2.715   6.461  19.037  0.00  0.00    +0.000 A 
ATOM     16  C   UNL     1       2.915   7.253  17.912  0.00  0.00    +0.000 A 
ATOM     17  C   UNL     1       2.408   8.554  17.896  0.00  0.00    +0.000 A 
ATOM     18  C   UNL     1       1.675   9.077  18.985  0.00  0.00    +0.000 A 
ATOM     19  C   UNL     1       1.588   8.285  20.142  0.00  0.00    +0.000 A 
ATOM     20  C   UNL     1       2.085   6.980  20.168  0.00  0.00    +0.000 A 
BRANCH  15  22
ATOM     21  C   UNL     1       3.330   4.358  17.275  0.00  0.00    +0.000 C 
ATOM     22  S   UNL     1       3.153   4.741  18.993  0.00  0.00    +0.000 S 
ATOM     23  O   UNL     1       2.018   3.988  19.493  0.00  0.00    +0.000 OA
ATOM     24  O   UNL     1       4.457   4.634  19.622  0.00  0.00    +0.000 OA
ENDBRANCH  15  22
ENDBRANCH   1  18
BRANCH   3  25
ATOM     25  C   UNL     1      -2.193  11.557  17.984  0.00  0.00    +0.000 C 
ATOM     26  O   UNL     1      -3.333  11.766  18.366  0.00  0.00    +0.000 OA
BRANCH  25  27
ATOM     27  O   UNL     1      -1.849  11.247  16.709  0.00  0.00    +0.000 OA
ATOM     28  H   UNL     1      -1.021  11.662  16.388  0.00  0.00    +0.000 HD
ENDBRANCH  25  27
ENDBRANCH   3  25
TORSDOF 4
ENDMDL
MODEL 8
REMARK VINA RESULT:      -7.5      7.721     10.959
REMARK  Name = 
REMARK  5 active torsions:
REMARK  status: ('A' for Active; 'I' for Inactive)
REMARK    1  A    between atoms: C_1  and  S_2
REMARK    2  A    between atoms: S_2  and  C_5
REMARK    3  A    between atoms: C_8  and  C_9
REMARK    4  A    between atoms: C_11  and  C_12
REMARK    5  A    between atoms: C_12  and  O_14
REMARK                            x       y       z     vdW  Elec       q    Type
REMARK                         _______ _______ _______ _____ _____    ______ ____
ROOT
ATOM      1  C   UNL     1       8.925  10.376  18.816  0.00  0.00    +0.000 A 
ATOM      2  C   UNL     1       9.468  11.154  17.823  0.00  0.00    +0.000 A 
ATOM      3  C   UNL     1      10.174  12.273  18.228  0.00  0.00    +0.000 A 
ATOM      4  C   UNL     1       9.964  12.858  19.471  0.00  0.00    +0.000 A 
ATOM      5  C   UNL     1      10.294  14.199  19.762  0.00  0.00    +0.000 A 
ATOM      6  C   UNL     1       9.967  14.736  21.000  0.00  0.00    +0.000 A 
ATOM      7  C   UNL     1       9.423  13.918  22.000  0.00  0.00    +0.000 A 
ATOM      8  C   UNL     1       9.182  12.565  21.724  0.00  0.00    +0.000 A 
ATOM      9  C   UNL     1       9.361  12.046  20.427  0.00  0.00    +0.000 A 
ATOM     10  N   UNL     1       8.954  10.789  20.112  0.00  0.00    +0.000 NA
ATOM     11  C   UNL     1       8.739  11.612  22.796  0.00  0.00    +0.000 C 
ATOM     12  C   UNL     1       8.442  12.165  24.181  0.00  0.00    +0.000 C 
ATOM     13  C   UNL     1       8.586  13.653  24.434  0.00  0.00    +0.000 C 
ATOM     14  C   UNL     1       9.040  14.560  23.299  0.00  0.00    +0.000 C 
ENDROOT
BRANCH   1  18
ATOM     15  C   UNL     1       7.424   6.516  17.723  0.00  0.00    +0.000 A 
ATOM     16  C   UNL     1       8.244   6.630  18.840  0.00  0.00    +0.000 A 
ATOM     17  C   UNL     1       8.671   7.896  19.245  0.00  0.00    +0.000 A 
ATOM     18  C   UNL     1       8.311   9.062  18.533  0.00  0.00    +0.000 A 
ATOM     19  C   UNL     1       7.397   8.915  17.477  0.00  0.00    +0.000 A 
ATOM     20  C   UNL     1       6.968   7.654  17.058  0.00  0.00    +0.000 A 
BRANCH  15  22
ATOM     21  C   UNL     1       6.924   5.154  15.315  0.00  0.00    +0.000 C 
ATOM     22  S   UNL     1       7.054   4.910  17.062  0.00  0.00    +0.000 S 
ATOM     23  O   UNL     1       5.741   4.529  17.549  0.00  0.00    +0.000 OA
ATOM     24  O   UNL     1       8.216   4.081  17.323  0.00  0.00    +0.000 OA
ENDBRANCH  15  22
ENDBRANCH   1  18
BRANCH   3  25
ATOM     25  C   UNL     1      11.517  12.382  17.626  0.00  0.00    +0.000 C 
ATOM     26  O   UNL     1      11.856  13.268  16.860  0.00  0.00    +0.000 OA
BRANCH  25  27
ATOM     27  O   UNL     1      12.333  11.399  18.083  0.00  0.00    +0.000 OA
ATOM     28  H   UNL     1      12.311  10.565  17.569  0.00  0.00    +0.000 HD
ENDBRANCH  25  27
ENDBRANCH   3  25
TORSDOF 4
ENDMDL
