MODEL 1
REMARK VINA RESULT:      -7.4      0.000      0.000
REMARK  Name = 
REMARK  11 active torsions:
REMARK  status: ('A' for Active; 'I' for Inactive)
REMARK    1  A    between atoms: C_1  and  O_2
REMARK    2  A    between atoms: O_2  and  C_3
REMARK    3  A    between atoms: C_8  and  O_9
REMARK    4  A    between atoms: O_9  and  C_10
REMARK    5  A    between atoms: C_12  and  C_13
REMARK    6  A    between atoms: C_13  and  C_14
REMARK    7  A    between atoms: C_14  and  C_15
REMARK    8  A    between atoms: C_15  and  N_16
REMARK    9  A    between atoms: N_16  and  C_17
REMARK   10  A    between atoms: N_16  and  C_18
REMARK   11  A    between atoms: C_18  and  C_19
REMARK                            x       y       z     vdW  Elec       q    Type
REMARK                         _______ _______ _______ _____ _____    ______ ____
ROOT
ATOM      1  C   UNL     1       5.318   4.716  16.574  0.00  0.00    +0.000 A 
ATOM      2  C   UNL     1       4.263   4.023  17.173  0.00  0.00    +0.000 A 
ATOM      3  C   UNL     1       3.432   4.711  18.034  0.00  0.00    +0.000 A 
ATOM      4  C   UNL     1       3.585   6.045  18.338  0.00  0.00    +0.000 A 
ATOM      5  C   UNL     1       4.618   6.756  17.753  0.00  0.00    +0.000 A 
ATOM      6  C   UNL     1       5.501   6.093  16.867  0.00  0.00    +0.000 A 
ATOM      7  C   UNL     1       2.523   6.314  19.274  0.00  0.00    +0.000 C 
ATOM      8  C   UNL     1       2.211   7.455  19.897  0.00  0.00    +0.000 C 
ATOM      9  O   UNL     1       1.775   5.150  19.520  0.00  0.00    +0.000 OA
ATOM     10  C   UNL     1       2.311   4.147  18.767  0.00  0.00    +0.000 C 
ATOM     11  O   UNL     1       1.932   2.996  18.710  0.00  0.00    +0.000 OA
ENDROOT
BRANCH   1  13
ATOM     12  C   UNL     1       5.905   4.100  14.357  0.00  0.00    +0.000 C 
ATOM     13  O   UNL     1       6.197   4.069  15.751  0.00  0.00    +0.000 OA
ENDBRANCH   1  13
BRANCH   6  14
ATOM     14  O   UNL     1       6.474   6.928  16.373  0.00  0.00    +0.000 OA
ATOM     15  C   UNL     1       7.536   7.315  17.238  0.00  0.00    +0.000 C 
ENDBRANCH   6  14
BRANCH   8  16
ATOM     16  C   UNL     1       1.051   7.517  20.858  0.00  0.00    +0.000 C 
BRANCH  16  17
ATOM     17  C   UNL     1       0.893   8.914  21.438  0.00  0.00    +0.000 C 
BRANCH  17  18
ATOM     18  C   UNL     1      -0.392   9.582  20.936  0.00  0.00    +0.000 C 
BRANCH  18  19
ATOM     19  N   UNL     1      -0.115  10.837  20.208  0.00  0.00    +0.000 NA
ATOM     20  C   UNL     1       1.165  11.414  20.627  0.00  0.00    +0.000 C 
BRANCH  19  21
ATOM     21  C   UNL     1      -0.124  10.624  18.742  0.00  0.00    +0.000 C 
BRANCH  21  22
ATOM     22  C   UNL     1      -1.527  10.600  18.161  0.00  0.00    +0.000 A 
ATOM     23  C   UNL     1      -1.825   9.797  17.049  0.00  0.00    +0.000 A 
ATOM     24  C   UNL     1      -3.049   9.930  16.390  0.00  0.00    +0.000 A 
ATOM     25  C   UNL     1      -3.990  10.853  16.843  0.00  0.00    +0.000 A 
ATOM     26  C   UNL     1      -3.731  11.608  17.984  0.00  0.00    +0.000 A 
ATOM     27  C   UNL     1      -2.512  11.470  18.651  0.00  0.00    +0.000 A 
ENDBRANCH  21  22
ENDBRANCH  19  21
ENDBRANCH  18  19
ENDBRANCH  17  18
ENDBRANCH  16  17
ENDBRANCH   8  16
TORSDOF 8
ENDMDL
MODEL 2
REMARK VINA RESULT:      -7.4      3.135      8.144
REMARK  Name = 
REMARK  11 active torsions:
REMARK  status: ('A' for Active; 'I' for Inactive)
REMARK    1  A    between atoms: C_1  and  O_2
REMARK    2  A    between atoms: O_2  and  C_3
REMARK    3  A    between atoms: C_8  and  O_9
REMARK    4  A    between atoms: O_9  and  C_10
REMARK    5  A    between atoms: C_12  and  C_13
REMARK    6  A    between atoms: C_13  and  C_14
REMARK    7  A    between atoms: C_14  and  C_15
REMARK    8  A    between atoms: C_15  and  N_16
REMARK    9  A    between atoms: N_16  and  C_17
REMARK   10  A    between atoms: N_16  and  C_18
REMARK   11  A    between atoms: C_18  and  C_19
REMARK                            x       y       z     vdW  Elec       q    Type
REMARK                         _______ _______ _______ _____ _____    ______ ____
ROOT
ATOM      1  C   UNL     1       0.196  11.464  19.758  0.00  0.00    +0.000 A 
ATOM      2  C   UNL     1       0.970  10.777  18.820  0.00  0.00    +0.000 A 
ATOM      3  C   UNL     1       1.322   9.470  19.090  0.00  0.00    +0.000 A 
ATOM      4  C   UNL     1       0.954   8.804  20.238  0.00  0.00    +0.000 A 
ATOM      5  C   UNL     1       0.182   9.460  21.180  0.00  0.00    +0.000 A 
ATOM      6  C   UNL     1      -0.200  10.803  20.951  0.00  0.00    +0.000 A 
ATOM      7  C   UNL     1       1.556   7.502  20.094  0.00  0.00    +0.000 C 
ATOM      8  C   UNL     1       1.523   6.457  20.926  0.00  0.00    +0.000 C 
ATOM      9  O   UNL     1       2.274   7.422  18.889  0.00  0.00    +0.000 OA
ATOM     10  C   UNL     1       2.145   8.619  18.249  0.00  0.00    +0.000 C 
ATOM     11  O   UNL     1       2.622   8.927  17.176  0.00  0.00    +0.000 OA
ENDROOT
BRANCH   1  13
ATOM     12  C   UNL     1      -0.748  13.094  18.311  0.00  0.00    +0.000 C 
ATOM     13  O   UNL     1      -0.138  12.775  19.559  0.00  0.00    +0.000 OA
ENDBRANCH   1  13
BRANCH   6  14
ATOM     14  O   UNL     1      -0.957  11.317  21.976  0.00  0.00    +0.000 OA
ATOM     15  C   UNL     1      -1.026  10.589  23.197  0.00  0.00    +0.000 C 
ENDBRANCH   6  14
BRANCH   8  16
ATOM     16  C   UNL     1       2.239   5.175  20.583  0.00  0.00    +0.000 C 
BRANCH  16  17
ATOM     17  C   UNL     1       1.251   4.060  20.280  0.00  0.00    +0.000 C 
BRANCH  17  18
ATOM     18  C   UNL     1       1.963   2.824  19.716  0.00  0.00    +0.000 C 
BRANCH  18  19
ATOM     19  N   UNL     1       3.316   3.145  19.219  0.00  0.00    +0.000 NA
ATOM     20  C   UNL     1       4.332   2.357  19.920  0.00  0.00    +0.000 C 
BRANCH  19  21
ATOM     21  C   UNL     1       3.420   2.930  17.756  0.00  0.00    +0.000 C 
BRANCH  21  22
ATOM     22  C   UNL     1       4.295   3.964  17.072  0.00  0.00    +0.000 A 
ATOM     23  C   UNL     1       4.139   5.330  17.353  0.00  0.00    +0.000 A 
ATOM     24  C   UNL     1       4.792   6.291  16.578  0.00  0.00    +0.000 A 
ATOM     25  C   UNL     1       5.617   5.896  15.525  0.00  0.00    +0.000 A 
ATOM     26  C   UNL     1       5.830   4.542  15.279  0.00  0.00    +0.000 A 
ATOM     27  C   UNL     1       5.187   3.580  16.059  0.00  0.00    +0.000 A 
ENDBRANCH  21  22
ENDBRANCH  19  21
ENDBRANCH  18  19
ENDBRANCH  17  18
ENDBRANCH  16  17
ENDBRANCH   8  16
TORSDOF 8
ENDMDL
MODEL 3
REMARK VINA RESULT:      -7.3      3.162      8.286
REMARK  Name = 
REMARK  11 active torsions:
REMARK  status: ('A' for Active; 'I' for Inactive)
REMARK    1  A    between atoms: C_1  and  O_2
REMARK    2  A    between atoms: O_2  and  C_3
REMARK    3  A    between atoms: C_8  and  O_9
REMARK    4  A    between atoms: O_9  and  C_10
REMARK    5  A    between atoms: C_12  and  C_13
REMARK    6  A    between atoms: C_13  and  C_14
REMARK    7  A    between atoms: C_14  and  C_15
REMARK    8  A    between atoms: C_15  and  N_16
REMARK    9  A    between atoms: N_16  and  C_17
REMARK   10  A    between atoms: N_16  and  C_18
REMARK   11  A    between atoms: C_18  and  C_19
REMARK                            x       y       z     vdW  Elec       q    Type
REMARK                         _______ _______ _______ _____ _____    ______ ____
ROOT
ATOM      1  C   UNL     1       0.564  11.256  19.632  0.00  0.00    +0.000 A 
ATOM      2  C   UNL     1       1.291  10.497  18.712  0.00  0.00    +0.000 A 
ATOM      3  C   UNL     1       1.572   9.182  19.025  0.00  0.00    +0.000 A 
ATOM      4  C   UNL     1       1.177   8.575  20.196  0.00  0.00    +0.000 A 
ATOM      5  C   UNL     1       0.451   9.304  21.121  0.00  0.00    +0.000 A 
ATOM      6  C   UNL     1       0.142  10.658  20.849  0.00  0.00    +0.000 A 
ATOM      7  C   UNL     1       1.705   7.238  20.093  0.00  0.00    +0.000 C 
ATOM      8  C   UNL     1       1.620   6.224  20.959  0.00  0.00    +0.000 C 
ATOM      9  O   UNL     1       2.407   7.078  18.886  0.00  0.00    +0.000 OA
ATOM     10  C   UNL     1       2.339   8.258  18.207  0.00  0.00    +0.000 C 
ATOM     11  O   UNL     1       2.824   8.503  17.122  0.00  0.00    +0.000 OA
ENDROOT
BRANCH   1  13
ATOM     12  C   UNL     1      -0.697  12.858  18.414  0.00  0.00    +0.000 C 
ATOM     13  O   UNL     1       0.301  12.576  19.391  0.00  0.00    +0.000 OA
ENDBRANCH   1  13
BRANCH   6  14
ATOM     14  O   UNL     1      -0.577  11.247  21.862  0.00  0.00    +0.000 OA
ATOM     15  C   UNL     1      -0.798  10.504  23.055  0.00  0.00    +0.000 C 
ENDBRANCH   6  14
BRANCH   8  16
ATOM     16  C   UNL     1       2.261   4.894  20.655  0.00  0.00    +0.000 C 
BRANCH  16  17
ATOM     17  C   UNL     1       1.378   4.056  19.744  0.00  0.00    +0.000 C 
BRANCH  17  18
ATOM     18  C   UNL     1       1.928   2.632  19.593  0.00  0.00    +0.000 C 
BRANCH  18  19
ATOM     19  N   UNL     1       3.231   2.614  18.898  0.00  0.00    +0.000 NA
ATOM     20  C   UNL     1       3.571   1.258  18.458  0.00  0.00    +0.000 C 
BRANCH  19  21
ATOM     21  C   UNL     1       3.242   3.544  17.744  0.00  0.00    +0.000 C 
BRANCH  21  22
ATOM     22  C   UNL     1       4.613   4.141  17.484  0.00  0.00    +0.000 A 
ATOM     23  C   UNL     1       5.226   4.002  16.229  0.00  0.00    +0.000 A 
ATOM     24  C   UNL     1       6.563   4.364  16.051  0.00  0.00    +0.000 A 
ATOM     25  C   UNL     1       7.294   4.881  17.119  0.00  0.00    +0.000 A 
ATOM     26  C   UNL     1       6.677   5.084  18.352  0.00  0.00    +0.000 A 
ATOM     27  C   UNL     1       5.339   4.732  18.529  0.00  0.00    +0.000 A 
ENDBRANCH  21  22
ENDBRANCH  19  21
ENDBRANCH  18  19
ENDBRANCH  17  18
ENDBRANCH  16  17
ENDBRANCH   8  16
TORSDOF 8
ENDMDL
MODEL 4
REMARK VINA RESULT:      -7.2      3.494      9.165
REMARK  Name = 
REMARK  11 active torsions:
REMARK  status: ('A' for Active; 'I' for Inactive)
REMARK    1  A    between atoms: C_1  and  O_2
REMARK    2  A    between atoms: O_2  and  C_3
REMARK    3  A    between atoms: C_8  and  O_9
REMARK    4  A    between atoms: O_9  and  C_10
REMARK    5  A    between atoms: C_12  and  C_13
REMARK    6  A    between atoms: C_13  and  C_14
REMARK    7  A    between atoms: C_14  and  C_15
REMARK    8  A    between atoms: C_15  and  N_16
REMARK    9  A    between atoms: N_16  and  C_17
REMARK   10  A    between atoms: N_16  and  C_18
REMARK   11  A    between atoms: C_18  and  C_19
REMARK                            x       y       z     vdW  Elec       q    Type
REMARK                         _______ _______ _______ _____ _____    ______ ____
ROOT
ATOM      1  C   UNL     1      -3.297  11.690  18.538  0.00  0.00    +0.000 A 
ATOM      2  C   UNL     1      -2.308  11.811  19.516  0.00  0.00    +0.000 A 
ATOM      3  C   UNL     1      -1.110  11.153  19.324  0.00  0.00    +0.000 A 
ATOM      4  C   UNL     1      -0.835  10.379  18.218  0.00  0.00    +0.000 A 
ATOM      5  C   UNL     1      -1.796  10.248  17.231  0.00  0.00    +0.000 A 
ATOM      6  C   UNL     1      -3.042  10.900  17.386  0.00  0.00    +0.000 A 
ATOM      7  C   UNL     1       0.497   9.885  18.460  0.00  0.00    +0.000 C 
ATOM      8  C   UNL     1       1.253   9.080  17.707  0.00  0.00    +0.000 C 
ATOM      9  O   UNL     1       0.980  10.355  19.693  0.00  0.00    +0.000 OA
ATOM     10  C   UNL     1       0.012  11.140  20.246  0.00  0.00    +0.000 C 
ATOM     11  O   UNL     1       0.066  11.724  21.308  0.00  0.00    +0.000 OA
ENDROOT
BRANCH   1  13
ATOM     12  C   UNL     1      -5.553  11.469  19.248  0.00  0.00    +0.000 C 
ATOM     13  O   UNL     1      -4.517  12.283  18.703  0.00  0.00    +0.000 OA
ENDBRANCH   1  13
BRANCH   6  14
ATOM     14  O   UNL     1      -3.890  10.670  16.328  0.00  0.00    +0.000 OA
ATOM     15  C   UNL     1      -3.322  10.365  15.060  0.00  0.00    +0.000 C 
ENDBRANCH   6  14
BRANCH   8  16
ATOM     16  C   UNL     1       2.633   8.673  18.157  0.00  0.00    +0.000 C 
BRANCH  16  17
ATOM     17  C   UNL     1       2.850   7.179  17.975  0.00  0.00    +0.000 C 
BRANCH  17  18
ATOM     18  C   UNL     1       2.358   6.394  19.196  0.00  0.00    +0.000 C 
BRANCH  18  19
ATOM     19  N   UNL     1       3.207   5.218  19.475  0.00  0.00    +0.000 NA
ATOM     20  C   UNL     1       2.714   4.480  20.641  0.00  0.00    +0.000 C 
BRANCH  19  21
ATOM     21  C   UNL     1       3.290   4.319  18.300  0.00  0.00    +0.000 C 
BRANCH  21  22
ATOM     22  C   UNL     1       4.681   4.272  17.694  0.00  0.00    +0.000 A 
ATOM     23  C   UNL     1       5.809   4.580  18.471  0.00  0.00    +0.000 A 
ATOM     24  C   UNL     1       7.059   4.740  17.870  0.00  0.00    +0.000 A 
ATOM     25  C   UNL     1       7.197   4.582  16.491  0.00  0.00    +0.000 A 
ATOM     26  C   UNL     1       6.097   4.213  15.720  0.00  0.00    +0.000 A 
ATOM     27  C   UNL     1       4.849   4.041  16.320  0.00  0.00    +0.000 A 
ENDBRANCH  21  22
ENDBRANCH  19  21
ENDBRANCH  18  19
ENDBRANCH  17  18
ENDBRANCH  16  17
ENDBRANCH   8  16
TORSDOF 8
ENDMDL
MODEL 5
REMARK VINA RESULT:      -7.2      3.534      8.710
REMARK  Name = 
REMARK  11 active torsions:
REMARK  status: ('A' for Active; 'I' for Inactive)
REMARK    1  A    between atoms: C_1  and  O_2
REMARK    2  A    between atoms: O_2  and  C_3
REMARK    3  A    between atoms: C_8  and  O_9
REMARK    4  A    between atoms: O_9  and  C_10
REMARK    5  A    between atoms: C_12  and  C_13
REMARK    6  A    between atoms: C_13  and  C_14
REMARK    7  A    between atoms: C_14  and  C_15
REMARK    8  A    between atoms: C_15  and  N_16
REMARK    9  A    between atoms: N_16  and  C_17
REMARK   10  A    between atoms: N_16  and  C_18
REMARK   11  A    between atoms: C_18  and  C_19
REMARK                            x       y       z     vdW  Elec       q    Type
REMARK                         _______ _______ _______ _____ _____    ______ ____
ROOT
ATOM      1  C   UNL     1      -1.482  11.857  21.360  0.00  0.00    +0.000 A 
ATOM      2  C   UNL     1      -0.615  11.164  22.209  0.00  0.00    +0.000 A 
ATOM      3  C   UNL     1       0.210  10.203  21.661  0.00  0.00    +0.000 A 
ATOM      4  C   UNL     1       0.226   9.886  20.322  0.00  0.00    +0.000 A 
ATOM      5  C   UNL     1      -0.617  10.563  19.458  0.00  0.00    +0.000 A 
ATOM      6  C   UNL     1      -1.487  11.554  19.973  0.00  0.00    +0.000 A 
ATOM      7  C   UNL     1       1.207   8.835  20.223  0.00  0.00    +0.000 C 
ATOM      8  C   UNL     1       1.617   8.156  19.148  0.00  0.00    +0.000 C 
ATOM      9  O   UNL     1       1.740   8.538  21.489  0.00  0.00    +0.000 OA
ATOM     10  C   UNL     1       1.145   9.367  22.394  0.00  0.00    +0.000 C 
ATOM     11  O   UNL     1       1.352   9.409  23.589  0.00  0.00    +0.000 OA
ENDROOT
BRANCH   1  13
ATOM     12  C   UNL     1      -2.023  13.350  23.126  0.00  0.00    +0.000 C 
ATOM     13  O   UNL     1      -2.352  12.785  21.860  0.00  0.00    +0.000 OA
ENDBRANCH   1  13
BRANCH   6  14
ATOM     14  O   UNL     1      -2.263  12.130  18.996  0.00  0.00    +0.000 OA
ATOM     15  C   UNL     1      -2.013  11.782  17.640  0.00  0.00    +0.000 C 
ENDBRANCH   6  14
BRANCH   8  16
ATOM     16  C   UNL     1       2.660   7.074  19.269  0.00  0.00    +0.000 C 
BRANCH  16  17
ATOM     17  C   UNL     1       3.228   6.705  17.908  0.00  0.00    +0.000 C 
BRANCH  17  18
ATOM     18  C   UNL     1       4.364   5.684  18.037  0.00  0.00    +0.000 C 
BRANCH  18  19
ATOM     19  N   UNL     1       4.167   4.520  17.150  0.00  0.00    +0.000 NA
ATOM     20  C   UNL     1       5.225   4.447  16.139  0.00  0.00    +0.000 C 
BRANCH  19  21
ATOM     21  C   UNL     1       4.107   3.256  17.920  0.00  0.00    +0.000 C 
BRANCH  21  22
ATOM     22  C   UNL     1       3.055   3.285  19.015  0.00  0.00    +0.000 A 
ATOM     23  C   UNL     1       3.421   3.131  20.361  0.00  0.00    +0.000 A 
ATOM     24  C   UNL     1       2.445   2.949  21.342  0.00  0.00    +0.000 A 
ATOM     25  C   UNL     1       1.096   2.934  20.992  0.00  0.00    +0.000 A 
ATOM     26  C   UNL     1       0.719   3.151  19.668  0.00  0.00    +0.000 A 
ATOM     27  C   UNL     1       1.692   3.343  18.687  0.00  0.00    +0.000 A 
ENDBRANCH  21  22
ENDBRANCH  19  21
ENDBRANCH  18  19
ENDBRANCH  17  18
ENDBRANCH  16  17
ENDBRANCH   8  16
TORSDOF 8
ENDMDL
MODEL 6
REMARK VINA RESULT:      -7.1      3.352      8.785
REMARK  Name = 
REMARK  11 active torsions:
REMARK  status: ('A' for Active; 'I' for Inactive)
REMARK    1  A    between atoms: C_1  and  O_2
REMARK    2  A    between atoms: O_2  and  C_3
REMARK    3  A    between atoms: C_8  and  O_9
REMARK    4  A    between atoms: O_9  and  C_10
REMARK    5  A    between atoms: C_12  and  C_13
REMARK    6  A    between atoms: C_13  and  C_14
REMARK    7  A    between atoms: C_14  and  C_15
REMARK    8  A    between atoms: C_15  and  N_16
REMARK    9  A    between atoms: N_16  and  C_17
REMARK   10  A    between atoms: N_16  and  C_18
REMARK   11  A    between atoms: C_18  and  C_19
REMARK                            x       y       z     vdW  Elec       q    Type
REMARK                         _______ _______ _______ _____ _____    ______ ____
ROOT
ATOM      1  C   UNL     1      -1.520  12.027  20.000  0.00  0.00    +0.000 A 
ATOM      2  C   UNL     1      -0.909  11.444  21.112  0.00  0.00    +0.000 A 
ATOM      3  C   UNL     1      -0.034  10.397  20.906  0.00  0.00    +0.000 A 
ATOM      4  C   UNL     1       0.270   9.892  19.662  0.00  0.00    +0.000 A 
ATOM      5  C   UNL     1      -0.318  10.455  18.543  0.00  0.00    +0.000 A 
ATOM      6  C   UNL     1      -1.226  11.528  18.703  0.00  0.00    +0.000 A 
ATOM      7  C   UNL     1       1.189   8.816  19.936  0.00  0.00    +0.000 C 
ATOM      8  C   UNL     1       1.795   7.981  19.087  0.00  0.00    +0.000 C 
ATOM      9  O   UNL     1       1.403   8.691  21.320  0.00  0.00    +0.000 OA
ATOM     10  C   UNL     1       0.664   9.655  21.941  0.00  0.00    +0.000 C 
ATOM     11  O   UNL     1       0.595   9.863  23.135  0.00  0.00    +0.000 OA
ENDROOT
BRANCH   1  13
ATOM     12  C   UNL     1      -3.801  12.651  20.222  0.00  0.00    +0.000 C 
ATOM     13  O   UNL     1      -2.430  13.036  20.154  0.00  0.00    +0.000 OA
ENDBRANCH   1  13
BRANCH   6  14
ATOM     14  O   UNL     1      -1.728  11.975  17.504  0.00  0.00    +0.000 OA
ATOM     15  C   UNL     1      -2.615  11.127  16.784  0.00  0.00    +0.000 C 
ENDBRANCH   6  14
BRANCH   8  16
ATOM     16  C   UNL     1       2.723   6.905  19.592  0.00  0.00    +0.000 C 
BRANCH  16  17
ATOM     17  C   UNL     1       2.274   5.530  19.124  0.00  0.00    +0.000 C 
BRANCH  17  18
ATOM     18  C   UNL     1       3.384   4.489  19.310  0.00  0.00    +0.000 C 
BRANCH  18  19
ATOM     19  N   UNL     1       3.621   3.706  18.081  0.00  0.00    +0.000 NA
ATOM     20  C   UNL     1       2.441   2.911  17.731  0.00  0.00    +0.000 C 
BRANCH  19  21
ATOM     21  C   UNL     1       4.002   4.581  16.947  0.00  0.00    +0.000 C 
BRANCH  21  22
ATOM     22  C   UNL     1       5.329   5.284  17.169  0.00  0.00    +0.000 A 
ATOM     23  C   UNL     1       6.442   4.574  17.644  0.00  0.00    +0.000 A 
ATOM     24  C   UNL     1       7.595   5.252  18.044  0.00  0.00    +0.000 A 
ATOM     25  C   UNL     1       7.652   6.643  17.961  0.00  0.00    +0.000 A 
ATOM     26  C   UNL     1       6.577   7.352  17.430  0.00  0.00    +0.000 A 
ATOM     27  C   UNL     1       5.428   6.676  17.019  0.00  0.00    +0.000 A 
ENDBRANCH  21  22
ENDBRANCH  19  21
ENDBRANCH  18  19
ENDBRANCH  17  18
ENDBRANCH  16  17
ENDBRANCH   8  16
TORSDOF 8
ENDMDL
MODEL 7
REMARK VINA RESULT:      -7.1      2.233      3.486
REMARK  Name = 
REMARK  11 active torsions:
REMARK  status: ('A' for Active; 'I' for Inactive)
REMARK    1  A    between atoms: C_1  and  O_2
REMARK    2  A    between atoms: O_2  and  C_3
REMARK    3  A    between atoms: C_8  and  O_9
REMARK    4  A    between atoms: O_9  and  C_10
REMARK    5  A    between atoms: C_12  and  C_13
REMARK    6  A    between atoms: C_13  and  C_14
REMARK    7  A    between atoms: C_14  and  C_15
REMARK    8  A    between atoms: C_15  and  N_16
REMARK    9  A    between atoms: N_16  and  C_17
REMARK   10  A    between atoms: N_16  and  C_18
REMARK   11  A    between atoms: C_18  and  C_19
REMARK                            x       y       z     vdW  Elec       q    Type
REMARK                         _______ _______ _______ _____ _____    ______ ____
ROOT
ATOM      1  C   UNL     1       2.837   4.561  18.326  0.00  0.00    +0.000 A 
ATOM      2  C   UNL     1       2.743   5.862  17.825  0.00  0.00    +0.000 A 
ATOM      3  C   UNL     1       2.327   6.865  18.677  0.00  0.00    +0.000 A 
ATOM      4  C   UNL     1       1.997   6.655  19.997  0.00  0.00    +0.000 A 
ATOM      5  C   UNL     1       2.087   5.377  20.520  0.00  0.00    +0.000 A 
ATOM      6  C   UNL     1       2.504   4.314  19.684  0.00  0.00    +0.000 A 
ATOM      7  C   UNL     1       1.608   7.959  20.472  0.00  0.00    +0.000 C 
ATOM      8  C   UNL     1       1.187   8.329  21.685  0.00  0.00    +0.000 C 
ATOM      9  O   UNL     1       1.698   8.907  19.438  0.00  0.00    +0.000 OA
ATOM     10  C   UNL     1       2.141   8.261  18.321  0.00  0.00    +0.000 C 
ATOM     11  O   UNL     1       2.346   8.750  17.230  0.00  0.00    +0.000 OA
ENDROOT
BRANCH   1  13
ATOM     12  C   UNL     1       2.604   2.260  17.788  0.00  0.00    +0.000 C 
ATOM     13  O   UNL     1       3.198   3.525  17.511  0.00  0.00    +0.000 OA
ENDBRANCH   1  13
BRANCH   6  14
ATOM     14  O   UNL     1       2.538   3.109  20.345  0.00  0.00    +0.000 OA
ATOM     15  C   UNL     1       1.659   2.915  21.446  0.00  0.00    +0.000 C 
ENDBRANCH   6  14
BRANCH   8  16
ATOM     16  C   UNL     1       0.817   9.762  21.970  0.00  0.00    +0.000 C 
BRANCH  16  17
ATOM     17  C   UNL     1      -0.544  10.103  21.384  0.00  0.00    +0.000 C 
BRANCH  17  18
ATOM     18  C   UNL     1      -0.607  11.570  20.940  0.00  0.00    +0.000 C 
BRANCH  18  19
ATOM     19  N   UNL     1      -1.189  11.714  19.591  0.00  0.00    +0.000 NA
ATOM     20  C   UNL     1      -0.400  12.642  18.776  0.00  0.00    +0.000 C 
BRANCH  19  21
ATOM     21  C   UNL     1      -1.304  10.404  18.908  0.00  0.00    +0.000 C 
BRANCH  21  22
ATOM     22  C   UNL     1      -2.327  10.414  17.787  0.00  0.00    +0.000 A 
ATOM     23  C   UNL     1      -2.039   9.813  16.552  0.00  0.00    +0.000 A 
ATOM     24  C   UNL     1      -2.887  10.001  15.459  0.00  0.00    +0.000 A 
ATOM     25  C   UNL     1      -4.037  10.778  15.593  0.00  0.00    +0.000 A 
ATOM     26  C   UNL     1      -4.367  11.325  16.830  0.00  0.00    +0.000 A 
ATOM     27  C   UNL     1      -3.526  11.130  17.927  0.00  0.00    +0.000 A 
ENDBRANCH  21  22
ENDBRANCH  19  21
ENDBRANCH  18  19
ENDBRANCH  17  18
ENDBRANCH  16  17
ENDBRANCH   8  16
TORSDOF 8
ENDMDL
MODEL 8
REMARK VINA RESULT:      -7.1      0.614      1.109
REMARK  Name = 
REMARK  11 active torsions:
REMARK  status: ('A' for Active; 'I' for Inactive)
REMARK    1  A    between atoms: C_1  and  O_2
REMARK    2  A    between atoms: O_2  and  C_3
REMARK    3  A    between atoms: C_8  and  O_9
REMARK    4  A    between atoms: O_9  and  C_10
REMARK    5  A    between atoms: C_12  and  C_13
REMARK    6  A    between atoms: C_13  and  C_14
REMARK    7  A    between atoms: C_14  and  C_15
REMARK    8  A    between atoms: C_15  and  N_16
REMARK    9  A    between atoms: N_16  and  C_17
REMARK   10  A    between atoms: N_16  and  C_18
REMARK   11  A    between atoms: C_18  and  C_19
REMARK                            x       y       z     vdW  Elec       q    Type
REMARK                         _______ _______ _______ _____ _____    ______ ____
ROOT
ATOM      1  C   UNL     1       4.941   4.700  16.692  0.00  0.00    +0.000 A 
ATOM      2  C   UNL     1       3.910   4.033  17.356  0.00  0.00    +0.000 A 
ATOM      3  C   UNL     1       3.147   4.742  18.263  0.00  0.00    +0.000 A 
ATOM      4  C   UNL     1       3.349   6.073  18.552  0.00  0.00    +0.000 A 
ATOM      5  C   UNL     1       4.360   6.758  17.903  0.00  0.00    +0.000 A 
ATOM      6  C   UNL     1       5.172   6.074  16.968  0.00  0.00    +0.000 A 
ATOM      7  C   UNL     1       2.352   6.368  19.551  0.00  0.00    +0.000 C 
ATOM      8  C   UNL     1       2.104   7.517  20.187  0.00  0.00    +0.000 C 
ATOM      9  O   UNL     1       1.595   5.221  19.845  0.00  0.00    +0.000 OA
ATOM     10  C   UNL     1       2.062   4.205  19.065  0.00  0.00    +0.000 C 
ATOM     11  O   UNL     1       1.653   3.062  19.036  0.00  0.00    +0.000 OA
ENDROOT
BRANCH   1  13
ATOM     12  C   UNL     1       5.531   4.268  14.432  0.00  0.00    +0.000 C 
ATOM     13  O   UNL     1       5.754   4.032  15.819  0.00  0.00    +0.000 OA
ENDBRANCH   1  13
BRANCH   6  14
ATOM     14  O   UNL     1       6.133   6.886  16.413  0.00  0.00    +0.000 OA
ATOM     15  C   UNL     1       7.278   7.208  17.192  0.00  0.00    +0.000 C 
ENDBRANCH   6  14
BRANCH   8  16
ATOM     16  C   UNL     1       1.006   7.607  21.216  0.00  0.00    +0.000 C 
BRANCH  16  17
ATOM     17  C   UNL     1       0.105   8.804  20.953  0.00  0.00    +0.000 C 
BRANCH  17  18
ATOM     18  C   UNL     1       0.748   9.774  19.955  0.00  0.00    +0.000 C 
BRANCH  18  19
ATOM     19  N   UNL     1       0.164  11.127  20.046  0.00  0.00    +0.000 NA
ATOM     20  C   UNL     1       1.058  12.036  20.768  0.00  0.00    +0.000 C 
BRANCH  19  21
ATOM     21  C   UNL     1      -0.145  11.674  18.703  0.00  0.00    +0.000 C 
BRANCH  21  22
ATOM     22  C   UNL     1      -1.552  11.339  18.243  0.00  0.00    +0.000 A 
ATOM     23  C   UNL     1      -2.652  12.071  18.718  0.00  0.00    +0.000 A 
ATOM     24  C   UNL     1      -3.954  11.637  18.463  0.00  0.00    +0.000 A 
ATOM     25  C   UNL     1      -4.170  10.477  17.720  0.00  0.00    +0.000 A 
ATOM     26  C   UNL     1      -3.088   9.779  17.189  0.00  0.00    +0.000 A 
ATOM     27  C   UNL     1      -1.786  10.217  17.434  0.00  0.00    +0.000 A 
ENDBRANCH  21  22
ENDBRANCH  19  21
ENDBRANCH  18  19
ENDBRANCH  17  18
ENDBRANCH  16  17
ENDBRANCH   8  16
TORSDOF 8
ENDMDL
MODEL 9
REMARK VINA RESULT:      -7.0      0.783      1.302
REMARK  Name = 
REMARK  11 active torsions:
REMARK  status: ('A' for Active; 'I' for Inactive)
REMARK    1  A    between atoms: C_1  and  O_2
REMARK    2  A    between atoms: O_2  and  C_3
REMARK    3  A    between atoms: C_8  and  O_9
REMARK    4  A    between atoms: O_9  and  C_10
REMARK    5  A    between atoms: C_12  and  C_13
REMARK    6  A    between atoms: C_13  and  C_14
REMARK    7  A    between atoms: C_14  and  C_15
REMARK    8  A    between atoms: C_15  and  N_16
REMARK    9  A    between atoms: N_16  and  C_17
REMARK   10  A    between atoms: N_16  and  C_18
REMARK   11  A    between atoms: C_18  and  C_19
REMARK                            x       y       z     vdW  Elec       q    Type
REMARK                         _______ _______ _______ _____ _____    ______ ____
ROOT
ATOM      1  C   UNL     1       5.741   4.761  16.006  0.00  0.00    +0.000 A 
ATOM      2  C   UNL     1       4.574   4.077  16.353  0.00  0.00    +0.000 A 
ATOM      3  C   UNL     1       3.731   4.647  17.286  0.00  0.00    +0.000 A 
ATOM      4  C   UNL     1       3.978   5.856  17.897  0.00  0.00    +0.000 A 
ATOM      5  C   UNL     1       5.124   6.558  17.566  0.00  0.00    +0.000 A 
ATOM      6  C   UNL     1       6.022   6.011  16.619  0.00  0.00    +0.000 A 
ATOM      7  C   UNL     1       2.861   6.030  18.792  0.00  0.00    +0.000 C 
ATOM      8  C   UNL     1       2.598   7.033  19.634  0.00  0.00    +0.000 C 
ATOM      9  O   UNL     1       1.988   4.932  18.709  0.00  0.00    +0.000 OA
ATOM     10  C   UNL     1       2.499   4.065  17.788  0.00  0.00    +0.000 C 
ATOM     11  O   UNL     1       2.021   3.004  17.443  0.00  0.00    +0.000 OA
ENDROOT
BRANCH   1  13
ATOM     12  C   UNL     1       6.122   3.870  13.838  0.00  0.00    +0.000 C 
ATOM     13  O   UNL     1       6.631   4.217  15.123  0.00  0.00    +0.000 OA
ENDBRANCH   1  13
BRANCH   6  14
ATOM     14  O   UNL     1       7.112   6.820  16.401  0.00  0.00    +0.000 OA
ATOM     15  C   UNL     1       7.681   7.502  17.512  0.00  0.00    +0.000 C 
ENDBRANCH   6  14
BRANCH   8  16
ATOM     16  C   UNL     1       1.363   7.012  20.498  0.00  0.00    +0.000 C 
BRANCH  16  17
ATOM     17  C   UNL     1       1.274   8.263  21.358  0.00  0.00    +0.000 C 
BRANCH  17  18
ATOM     18  C   UNL     1       1.144   9.523  20.495  0.00  0.00    +0.000 C 
BRANCH  18  19
ATOM     19  N   UNL     1      -0.254   9.774  20.090  0.00  0.00    +0.000 NA
ATOM     20  C   UNL     1      -1.128   9.880  21.262  0.00  0.00    +0.000 C 
BRANCH  19  21
ATOM     21  C   UNL     1      -0.365  10.995  19.257  0.00  0.00    +0.000 C 
BRANCH  21  22
ATOM     22  C   UNL     1      -1.617  11.007  18.398  0.00  0.00    +0.000 A 
ATOM     23  C   UNL     1      -2.646  11.928  18.649  0.00  0.00    +0.000 A 
ATOM     24  C   UNL     1      -3.876  11.807  18.001  0.00  0.00    +0.000 A 
ATOM     25  C   UNL     1      -4.087  10.774  17.088  0.00  0.00    +0.000 A 
ATOM     26  C   UNL     1      -3.051   9.894  16.784  0.00  0.00    +0.000 A 
ATOM     27  C   UNL     1      -1.817  10.020  17.422  0.00  0.00    +0.000 A 
ENDBRANCH  21  22
ENDBRANCH  19  21
ENDBRANCH  18  19
ENDBRANCH  17  18
ENDBRANCH  16  17
ENDBRANCH   8  16
TORSDOF 8
ENDMDL
