MODEL 1
REMARK VINA RESULT:      -6.5      0.000      0.000
REMARK  Name = 
REMARK  3 active torsions:
REMARK  status: ('A' for Active; 'I' for Inactive)
REMARK    1  A    between atoms: C_2  and  C_12
REMARK    2  A    between atoms: N_3  and  C_4
REMARK    3  A    between atoms: C_4  and  C_5
REMARK                            x       y       z     vdW  Elec       q    Type
REMARK                         _______ _______ _______ _____ _____    ______ ____
ROOT
ATOM      1  O   UNL     1       5.935   6.228  16.131  0.00  0.00    +0.000 OA
ATOM      2  C   UNL     1       5.967   5.055  15.778  0.00  0.00    +0.000 C 
ATOM      3  N   UNL     1       5.658   3.997  16.603  0.00  0.00    +0.000 N 
ATOM      4  H   UNL     1       5.785   3.046  16.292  0.00  0.00    +0.000 HD
ENDROOT
BRANCH   2   5
ATOM      5  C   UNL     1       6.413   4.710  14.401  0.00  0.00    +0.000 A 
ATOM      6  C   UNL     1       5.709   3.727  13.708  0.00  0.00    +0.000 A 
ATOM      7  C   UNL     1       6.106   3.430  12.417  0.00  0.00    +0.000 A 
ATOM      8  N   UNL     1       7.142   4.035  11.797  0.00  0.00    +0.000 NA
ATOM      9  C   UNL     1       7.823   4.964  12.501  0.00  0.00    +0.000 A 
ATOM     10  C   UNL     1       7.504   5.333  13.795  0.00  0.00    +0.000 A 
ENDBRANCH   2   5
BRANCH   3  11
ATOM     11  C   UNL     1       5.275   4.192  17.982  0.00  0.00    +0.000 C 
BRANCH  11  12
ATOM     12  C   UNL     1       3.851   3.767  18.239  0.00  0.00    +0.000 A 
ATOM     13  C   UNL     1       3.590   2.393  18.401  0.00  0.00    +0.000 A 
ATOM     14  C   UNL     1       2.293   1.925  18.618  0.00  0.00    +0.000 A 
ATOM     15  C   UNL     1       1.233   2.822  18.680  0.00  0.00    +0.000 A 
ATOM     16  C   UNL     1       1.473   4.190  18.547  0.00  0.00    +0.000 A 
ATOM     17  C   UNL     1       2.775   4.662  18.341  0.00  0.00    +0.000 A 
ATOM     18 BR   UNL     1       3.006   6.545  18.229  0.00  0.00    +0.000 Br
ENDBRANCH  11  12
ENDBRANCH   3  11
TORSDOF 3
ENDMDL
MODEL 2
REMARK VINA RESULT:      -6.5      4.817      7.620
REMARK  Name = 
REMARK  3 active torsions:
REMARK  status: ('A' for Active; 'I' for Inactive)
REMARK    1  A    between atoms: C_2  and  C_12
REMARK    2  A    between atoms: N_3  and  C_4
REMARK    3  A    between atoms: C_4  and  C_5
REMARK                            x       y       z     vdW  Elec       q    Type
REMARK                         _______ _______ _______ _____ _____    ______ ____
ROOT
ATOM      1  O   UNL     1       2.275   8.344  18.506  0.00  0.00    +0.000 OA
ATOM      2  C   UNL     1       2.032   7.989  19.654  0.00  0.00    +0.000 C 
ATOM      3  N   UNL     1       2.479   6.807  20.201  0.00  0.00    +0.000 N 
ATOM      4  H   UNL     1       2.179   6.517  21.119  0.00  0.00    +0.000 HD
ENDROOT
BRANCH   2   5
ATOM      5  C   UNL     1       1.163   8.830  20.520  0.00  0.00    +0.000 A 
ATOM      6  C   UNL     1       0.322   9.757  19.906  0.00  0.00    +0.000 A 
ATOM      7  C   UNL     1      -0.508  10.516  20.711  0.00  0.00    +0.000 A 
ATOM      8  N   UNL     1      -0.540  10.413  22.057  0.00  0.00    +0.000 NA
ATOM      9  C   UNL     1       0.305   9.527  22.627  0.00  0.00    +0.000 A 
ATOM     10  C   UNL     1       1.171   8.721  21.910  0.00  0.00    +0.000 A 
ENDBRANCH   2   5
BRANCH   3  11
ATOM     11  C   UNL     1       3.276   5.869  19.444  0.00  0.00    +0.000 C 
BRANCH  11  12
ATOM     12  C   UNL     1       2.538   4.581  19.183  0.00  0.00    +0.000 A 
ATOM     13  C   UNL     1       1.450   4.261  20.017  0.00  0.00    +0.000 A 
ATOM     14  C   UNL     1       0.735   3.074  19.849  0.00  0.00    +0.000 A 
ATOM     15  C   UNL     1       1.093   2.185  18.841  0.00  0.00    +0.000 A 
ATOM     16  C   UNL     1       2.151   2.494  17.987  0.00  0.00    +0.000 A 
ATOM     17  C   UNL     1       2.862   3.691  18.147  0.00  0.00    +0.000 A 
ATOM     18 BR   UNL     1       4.250   4.047  16.899  0.00  0.00    +0.000 Br
ENDBRANCH  11  12
ENDBRANCH   3  11
TORSDOF 3
ENDMDL
MODEL 3
REMARK VINA RESULT:      -6.4      0.633      1.306
REMARK  Name = 
REMARK  3 active torsions:
REMARK  status: ('A' for Active; 'I' for Inactive)
REMARK    1  A    between atoms: C_2  and  C_12
REMARK    2  A    between atoms: N_3  and  C_4
REMARK    3  A    between atoms: C_4  and  C_5
REMARK                            x       y       z     vdW  Elec       q    Type
REMARK                         _______ _______ _______ _____ _____    ______ ____
ROOT
ATOM      1  O   UNL     1       7.558   4.926  16.672  0.00  0.00    +0.000 OA
ATOM      2  C   UNL     1       6.577   4.676  15.981  0.00  0.00    +0.000 C 
ATOM      3  N   UNL     1       5.312   4.478  16.488  0.00  0.00    +0.000 N 
ATOM      4  H   UNL     1       4.555   4.187  15.888  0.00  0.00    +0.000 HD
ENDROOT
BRANCH   2   5
ATOM      5  C   UNL     1       6.732   4.513  14.510  0.00  0.00    +0.000 A 
ATOM      6  C   UNL     1       7.665   5.314  13.853  0.00  0.00    +0.000 A 
ATOM      7  C   UNL     1       7.829   5.139  12.491  0.00  0.00    +0.000 A 
ATOM      8  N   UNL     1       7.128   4.242  11.765  0.00  0.00    +0.000 NA
ATOM      9  C   UNL     1       6.212   3.499  12.421  0.00  0.00    +0.000 A 
ATOM     10  C   UNL     1       5.975   3.596  13.781  0.00  0.00    +0.000 A 
ENDBRANCH   2   5
BRANCH   3  11
ATOM     11  C   UNL     1       5.040   4.543  17.905  0.00  0.00    +0.000 C 
BRANCH  11  12
ATOM     12  C   UNL     1       3.722   3.903  18.258  0.00  0.00    +0.000 A 
ATOM     13  C   UNL     1       3.682   2.502  18.393  0.00  0.00    +0.000 A 
ATOM     14  C   UNL     1       2.491   1.839  18.695  0.00  0.00    +0.000 A 
ATOM     15  C   UNL     1       1.318   2.564  18.870  0.00  0.00    +0.000 A 
ATOM     16  C   UNL     1       1.340   3.955  18.766  0.00  0.00    +0.000 A 
ATOM     17  C   UNL     1       2.536   4.623  18.475  0.00  0.00    +0.000 A 
ATOM     18 BR   UNL     1       2.475   6.521  18.410  0.00  0.00    +0.000 Br
ENDBRANCH  11  12
ENDBRANCH   3  11
TORSDOF 3
ENDMDL
MODEL 4
REMARK VINA RESULT:      -6.4      3.228      3.965
REMARK  Name = 
REMARK  3 active torsions:
REMARK  status: ('A' for Active; 'I' for Inactive)
REMARK    1  A    between atoms: C_2  and  C_12
REMARK    2  A    between atoms: N_3  and  C_4
REMARK    3  A    between atoms: C_4  and  C_5
REMARK                            x       y       z     vdW  Elec       q    Type
REMARK                         _______ _______ _______ _____ _____    ______ ____
ROOT
ATOM      1  O   UNL     1       5.020   4.479  16.504  0.00  0.00    +0.000 OA
ATOM      2  C   UNL     1       5.549   4.579  17.606  0.00  0.00    +0.000 C 
ATOM      3  N   UNL     1       5.268   3.750  18.669  0.00  0.00    +0.000 N 
ATOM      4  H   UNL     1       5.663   3.927  19.580  0.00  0.00    +0.000 HD
ENDROOT
BRANCH   2   5
ATOM      5  C   UNL     1       6.514   5.681  17.865  0.00  0.00    +0.000 A 
ATOM      6  C   UNL     1       6.436   6.824  17.072  0.00  0.00    +0.000 A 
ATOM      7  C   UNL     1       7.315   7.860  17.334  0.00  0.00    +0.000 A 
ATOM      8  N   UNL     1       8.246   7.818  18.311  0.00  0.00    +0.000 NA
ATOM      9  C   UNL     1       8.317   6.688  19.046  0.00  0.00    +0.000 A 
ATOM     10  C   UNL     1       7.484   5.599  18.864  0.00  0.00    +0.000 A 
ENDBRANCH   2   5
BRANCH   3  11
ATOM     11  C   UNL     1       4.300   2.682  18.568  0.00  0.00    +0.000 C 
BRANCH  11  12
ATOM     12  C   UNL     1       3.178   2.840  19.563  0.00  0.00    +0.000 A 
ATOM     13  C   UNL     1       3.376   2.346  20.866  0.00  0.00    +0.000 A 
ATOM     14  C   UNL     1       2.372   2.437  21.833  0.00  0.00    +0.000 A 
ATOM     15  C   UNL     1       1.154   3.026  21.515  0.00  0.00    +0.000 A 
ATOM     16  C   UNL     1       0.947   3.545  20.237  0.00  0.00    +0.000 A 
ATOM     17  C   UNL     1       1.956   3.465  19.269  0.00  0.00    +0.000 A 
ATOM     18 BR   UNL     1       1.598   4.251  17.577  0.00  0.00    +0.000 Br
ENDBRANCH  11  12
ENDBRANCH   3  11
TORSDOF 3
ENDMDL
MODEL 5
REMARK VINA RESULT:      -6.4      4.704      6.908
REMARK  Name = 
REMARK  3 active torsions:
REMARK  status: ('A' for Active; 'I' for Inactive)
REMARK    1  A    between atoms: C_2  and  C_12
REMARK    2  A    between atoms: N_3  and  C_4
REMARK    3  A    between atoms: C_4  and  C_5
REMARK                            x       y       z     vdW  Elec       q    Type
REMARK                         _______ _______ _______ _____ _____    ______ ____
ROOT
ATOM      1  O   UNL     1       2.846   7.710  17.798  0.00  0.00    +0.000 OA
ATOM      2  C   UNL     1       2.357   7.765  18.921  0.00  0.00    +0.000 C 
ATOM      3  N   UNL     1       2.594   6.833  19.907  0.00  0.00    +0.000 N 
ATOM      4  H   UNL     1       2.099   6.873  20.785  0.00  0.00    +0.000 HD
ENDROOT
BRANCH   2   5
ATOM      5  C   UNL     1       1.405   8.856  19.260  0.00  0.00    +0.000 A 
ATOM      6  C   UNL     1       0.964   9.688  18.231  0.00  0.00    +0.000 A 
ATOM      7  C   UNL     1       0.055  10.683  18.543  0.00  0.00    +0.000 A 
ATOM      8  N   UNL     1      -0.421  10.895  19.789  0.00  0.00    +0.000 NA
ATOM      9  C   UNL     1       0.043  10.091  20.770  0.00  0.00    +0.000 A 
ATOM     10  C   UNL     1       0.950   9.068  20.561  0.00  0.00    +0.000 A 
ENDBRANCH   2   5
BRANCH   3  11
ATOM     11  C   UNL     1       3.447   5.688  19.685  0.00  0.00    +0.000 C 
BRANCH  11  12
ATOM     12  C   UNL     1       2.659   4.459  19.312  0.00  0.00    +0.000 A 
ATOM     13  C   UNL     1       1.565   4.103  20.124  0.00  0.00    +0.000 A 
ATOM     14  C   UNL     1       0.804   2.964  19.852  0.00  0.00    +0.000 A 
ATOM     15  C   UNL     1       1.120   2.162  18.762  0.00  0.00    +0.000 A 
ATOM     16  C   UNL     1       2.184   2.511  17.929  0.00  0.00    +0.000 A 
ATOM     17  C   UNL     1       2.941   3.659  18.193  0.00  0.00    +0.000 A 
ATOM     18 BR   UNL     1       4.332   4.079  16.970  0.00  0.00    +0.000 Br
ENDBRANCH  11  12
ENDBRANCH   3  11
TORSDOF 3
ENDMDL
MODEL 6
REMARK VINA RESULT:      -6.4      4.728      6.806
REMARK  Name = 
REMARK  3 active torsions:
REMARK  status: ('A' for Active; 'I' for Inactive)
REMARK    1  A    between atoms: C_2  and  C_12
REMARK    2  A    between atoms: N_3  and  C_4
REMARK    3  A    between atoms: C_4  and  C_5
REMARK                            x       y       z     vdW  Elec       q    Type
REMARK                         _______ _______ _______ _____ _____    ______ ____
ROOT
ATOM      1  O   UNL     1       2.812   7.436  17.738  0.00  0.00    +0.000 OA
ATOM      2  C   UNL     1       2.418   7.606  18.886  0.00  0.00    +0.000 C 
ATOM      3  N   UNL     1       2.702   6.753  19.929  0.00  0.00    +0.000 N 
ATOM      4  H   UNL     1       2.281   6.887  20.835  0.00  0.00    +0.000 HD
ENDROOT
BRANCH   2   5
ATOM      5  C   UNL     1       1.532   8.759  19.199  0.00  0.00    +0.000 A 
ATOM      6  C   UNL     1       1.052   8.886  20.502  0.00  0.00    +0.000 A 
ATOM      7  C   UNL     1       0.254   9.975  20.799  0.00  0.00    +0.000 A 
ATOM      8  N   UNL     1      -0.091  10.916  19.894  0.00  0.00    +0.000 NA
ATOM      9  C   UNL     1       0.366  10.754  18.634  0.00  0.00    +0.000 A 
ATOM     10  C   UNL     1       1.171   9.702  18.237  0.00  0.00    +0.000 A 
ENDBRANCH   2   5
BRANCH   3  11
ATOM     11  C   UNL     1       3.497   5.560  19.744  0.00  0.00    +0.000 C 
BRANCH  11  12
ATOM     12  C   UNL     1       2.652   4.370  19.367  0.00  0.00    +0.000 A 
ATOM     13  C   UNL     1       1.558   4.049  20.191  0.00  0.00    +0.000 A 
ATOM     14  C   UNL     1       0.745   2.947  19.916  0.00  0.00    +0.000 A 
ATOM     15  C   UNL     1       1.011   2.148  18.810  0.00  0.00    +0.000 A 
ATOM     16  C   UNL     1       2.075   2.463  17.966  0.00  0.00    +0.000 A 
ATOM     17  C   UNL     1       2.884   3.575  18.233  0.00  0.00    +0.000 A 
ATOM     18 BR   UNL     1       4.273   3.954  16.993  0.00  0.00    +0.000 Br
ENDBRANCH  11  12
ENDBRANCH   3  11
TORSDOF 3
ENDMDL
MODEL 7
REMARK VINA RESULT:      -6.4      2.099      3.028
REMARK  Name = 
REMARK  3 active torsions:
REMARK  status: ('A' for Active; 'I' for Inactive)
REMARK    1  A    between atoms: C_2  and  C_12
REMARK    2  A    between atoms: N_3  and  C_4
REMARK    3  A    between atoms: C_4  and  C_5
REMARK                            x       y       z     vdW  Elec       q    Type
REMARK                         _______ _______ _______ _____ _____    ______ ____
ROOT
ATOM      1  O   UNL     1       4.119   2.617  17.356  0.00  0.00    +0.000 OA
ATOM      2  C   UNL     1       4.086   3.786  16.992  0.00  0.00    +0.000 C 
ATOM      3  N   UNL     1       2.970   4.587  17.084  0.00  0.00    +0.000 N 
ATOM      4  H   UNL     1       2.967   5.515  16.689  0.00  0.00    +0.000 HD
ENDROOT
BRANCH   2   5
ATOM      5  C   UNL     1       5.286   4.396  16.357  0.00  0.00    +0.000 A 
ATOM      6  C   UNL     1       6.065   5.264  17.121  0.00  0.00    +0.000 A 
ATOM      7  C   UNL     1       7.197   5.806  16.539  0.00  0.00    +0.000 A 
ATOM      8  N   UNL     1       7.581   5.546  15.271  0.00  0.00    +0.000 NA
ATOM      9  C   UNL     1       6.794   4.723  14.546  0.00  0.00    +0.000 A 
ATOM     10  C   UNL     1       5.645   4.129  15.036  0.00  0.00    +0.000 A 
ENDBRANCH   2   5
BRANCH   3  11
ATOM     11  C   UNL     1       1.721   4.096  17.619  0.00  0.00    +0.000 C 
BRANCH  11  12
ATOM     12  C   UNL     1       1.798   3.859  19.106  0.00  0.00    +0.000 A 
ATOM     13  C   UNL     1       1.555   2.557  19.581  0.00  0.00    +0.000 A 
ATOM     14  C   UNL     1       1.585   2.268  20.947  0.00  0.00    +0.000 A 
ATOM     15  C   UNL     1       1.863   3.276  21.863  0.00  0.00    +0.000 A 
ATOM     16  C   UNL     1       2.132   4.568  21.412  0.00  0.00    +0.000 A 
ATOM     17  C   UNL     1       2.113   4.857  20.041  0.00  0.00    +0.000 A 
ATOM     18 BR   UNL     1       2.548   6.632  19.524  0.00  0.00    +0.000 Br
ENDBRANCH  11  12
ENDBRANCH   3  11
TORSDOF 3
ENDMDL
MODEL 8
REMARK VINA RESULT:      -6.3      1.378      1.694
REMARK  Name = 
REMARK  3 active torsions:
REMARK  status: ('A' for Active; 'I' for Inactive)
REMARK    1  A    between atoms: C_2  and  C_12
REMARK    2  A    between atoms: N_3  and  C_4
REMARK    3  A    between atoms: C_4  and  C_5
REMARK                            x       y       z     vdW  Elec       q    Type
REMARK                         _______ _______ _______ _____ _____    ______ ____
ROOT
ATOM      1  O   UNL     1       5.844   6.258  16.158  0.00  0.00    +0.000 OA
ATOM      2  C   UNL     1       5.903   5.079  15.831  0.00  0.00    +0.000 C 
ATOM      3  N   UNL     1       5.624   4.032  16.682  0.00  0.00    +0.000 N 
ATOM      4  H   UNL     1       5.773   3.078  16.392  0.00  0.00    +0.000 HD
ENDROOT
BRANCH   2   5
ATOM      5  C   UNL     1       6.352   4.713  14.461  0.00  0.00    +0.000 A 
ATOM      6  C   UNL     1       5.629   3.744  13.768  0.00  0.00    +0.000 A 
ATOM      7  C   UNL     1       6.029   3.428  12.482  0.00  0.00    +0.000 A 
ATOM      8  N   UNL     1       7.086   4.002  11.868  0.00  0.00    +0.000 NA
ATOM      9  C   UNL     1       7.784   4.918  12.572  0.00  0.00    +0.000 A 
ATOM     10  C   UNL     1       7.464   5.304  13.861  0.00  0.00    +0.000 A 
ENDBRANCH   2   5
BRANCH   3  11
ATOM     11  C   UNL     1       5.241   4.249  18.058  0.00  0.00    +0.000 C 
BRANCH  11  12
ATOM     12  C   UNL     1       3.807   3.862  18.314  0.00  0.00    +0.000 A 
ATOM     13  C   UNL     1       2.808   4.472  17.534  0.00  0.00    +0.000 A 
ATOM     14  C   UNL     1       1.457   4.180  17.731  0.00  0.00    +0.000 A 
ATOM     15  C   UNL     1       1.080   3.267  18.711  0.00  0.00    +0.000 A 
ATOM     16  C   UNL     1       2.056   2.632  19.478  0.00  0.00    +0.000 A 
ATOM     17  C   UNL     1       3.413   2.915  19.273  0.00  0.00    +0.000 A 
ATOM     18 BR   UNL     1       4.667   1.956  20.329  0.00  0.00    +0.000 Br
ENDBRANCH  11  12
ENDBRANCH   3  11
TORSDOF 3
ENDMDL
MODEL 9
REMARK VINA RESULT:      -6.3      2.508      3.356
REMARK  Name = 
REMARK  3 active torsions:
REMARK  status: ('A' for Active; 'I' for Inactive)
REMARK    1  A    between atoms: C_2  and  C_12
REMARK    2  A    between atoms: N_3  and  C_4
REMARK    3  A    between atoms: C_4  and  C_5
REMARK                            x       y       z     vdW  Elec       q    Type
REMARK                         _______ _______ _______ _____ _____    ______ ____
ROOT
ATOM      1  O   UNL     1       3.041   4.073  16.669  0.00  0.00    +0.000 OA
ATOM      2  C   UNL     1       4.159   3.623  16.892  0.00  0.00    +0.000 C 
ATOM      3  N   UNL     1       4.391   2.430  17.538  0.00  0.00    +0.000 N 
ATOM      4  H   UNL     1       5.329   2.145  17.776  0.00  0.00    +0.000 HD
ENDROOT
BRANCH   2   5
ATOM      5  C   UNL     1       5.362   4.409  16.505  0.00  0.00    +0.000 A 
ATOM      6  C   UNL     1       5.942   4.156  15.263  0.00  0.00    +0.000 A 
ATOM      7  C   UNL     1       7.042   4.909  14.893  0.00  0.00    +0.000 A 
ATOM      8  N   UNL     1       7.587   5.868  15.674  0.00  0.00    +0.000 NA
ATOM      9  C   UNL     1       7.021   6.072  16.882  0.00  0.00    +0.000 A 
ATOM     10  C   UNL     1       5.919   5.375  17.343  0.00  0.00    +0.000 A 
ENDBRANCH   2   5
BRANCH   3  11
ATOM     11  C   UNL     1       3.309   1.603  18.023  0.00  0.00    +0.000 C 
BRANCH  11  12
ATOM     12  C   UNL     1       2.654   2.189  19.247  0.00  0.00    +0.000 A 
ATOM     13  C   UNL     1       1.338   2.671  19.126  0.00  0.00    +0.000 A 
ATOM     14  C   UNL     1       0.677   3.249  20.212  0.00  0.00    +0.000 A 
ATOM     15  C   UNL     1       1.319   3.352  21.440  0.00  0.00    +0.000 A 
ATOM     16  C   UNL     1       2.614   2.857  21.589  0.00  0.00    +0.000 A 
ATOM     17  C   UNL     1       3.275   2.267  20.504  0.00  0.00    +0.000 A 
ATOM     18 BR   UNL     1       5.014   1.573  20.822  0.00  0.00    +0.000 Br
ENDBRANCH  11  12
ENDBRANCH   3  11
TORSDOF 3
ENDMDL
