MODEL 1
REMARK VINA RESULT:      -7.4      0.000      0.000
REMARK  Name = 
REMARK  4 active torsions:
REMARK  status: ('A' for Active; 'I' for Inactive)
REMARK    1  A    between atoms: C_1  and  C_2
REMARK    2  A    between atoms: C_4  and  C_5
REMARK    3  A    between atoms: C_6  and  C_7
REMARK    4  A    between atoms: C_11  and  N_12
REMARK                            x       y       z     vdW  Elec       q    Type
REMARK                         _______ _______ _______ _____ _____    ______ ____
ROOT
ATOM      1  C   UNL     1       5.451   4.709  18.340  0.00  0.00    +0.000 C 
ATOM      2  O   UNL     1       5.730   3.831  19.155  0.00  0.00    +0.000 OA
ATOM      3  N   UNL     1       4.420   5.608  18.588  0.00  0.00    +0.000 N 
ATOM      4  C   UNL     1       3.653   5.652  19.830  0.00  0.00    +0.000 C 
ATOM      5  C   UNL     1       2.357   5.628  19.005  0.00  0.00    +0.000 C 
ATOM      6  C   UNL     1       3.226   5.731  17.742  0.00  0.00    +0.000 C 
ENDROOT
BRANCH   1  12
ATOM      7  C   UNL     1       7.132   4.511  13.341  0.00  0.00    +0.000 C 
ATOM      8  C   UNL     1       6.938   4.815  14.785  0.00  0.00    +0.000 A 
ATOM      9  N   UNL     1       7.530   5.799  15.423  0.00  0.00    +0.000 NA
ATOM     10  C   UNL     1       7.082   5.858  16.736  0.00  0.00    +0.000 A 
ATOM     11  C   UNL     1       7.610   6.944  17.605  0.00  0.00    +0.000 C 
ATOM     12  C   UNL     1       6.169   4.873  17.088  0.00  0.00    +0.000 A 
ATOM     13  S   UNL     1       5.871   3.864  15.728  0.00  0.00    +0.000 S 
ENDBRANCH   1  12
BRANCH   5  14
ATOM     14  N   UNL     1       1.653   4.382  19.159  0.00  0.00    +0.000 N 
ATOM     15  C   UNL     1       1.436   3.407  18.227  0.00  0.00    +0.000 A 
ATOM     16  C   UNL     1       0.757   2.421  18.907  0.00  0.00    +0.000 A 
ATOM     17  N   UNL     1       0.560   2.777  20.217  0.00  0.00    +0.000 NA
ATOM     18  C   UNL     1       1.118   3.960  20.342  0.00  0.00    +0.000 A 
ENDBRANCH   5  14
TORSDOF 2
ENDMDL
MODEL 2
REMARK VINA RESULT:      -6.9      0.882      1.226
REMARK  Name = 
REMARK  4 active torsions:
REMARK  status: ('A' for Active; 'I' for Inactive)
REMARK    1  A    between atoms: C_1  and  C_2
REMARK    2  A    between atoms: C_4  and  C_5
REMARK    3  A    between atoms: C_6  and  C_7
REMARK    4  A    between atoms: C_11  and  N_12
REMARK                            x       y       z     vdW  Elec       q    Type
REMARK                         _______ _______ _______ _____ _____    ______ ____
ROOT
ATOM      1  C   UNL     1       5.232   5.499  18.605  0.00  0.00    +0.000 C 
ATOM      2  O   UNL     1       5.773   5.251  19.683  0.00  0.00    +0.000 OA
ATOM      3  N   UNL     1       3.932   5.990  18.559  0.00  0.00    +0.000 N 
ATOM      4  C   UNL     1       3.142   6.328  19.740  0.00  0.00    +0.000 C 
ATOM      5  C   UNL     1       1.987   5.481  19.184  0.00  0.00    +0.000 C 
ATOM      6  C   UNL     1       2.820   5.287  17.906  0.00  0.00    +0.000 C 
ENDROOT
BRANCH   1  12
ATOM      7  C   UNL     1       6.625   4.065  13.721  0.00  0.00    +0.000 C 
ATOM      8  C   UNL     1       6.542   4.681  15.074  0.00  0.00    +0.000 A 
ATOM      9  N   UNL     1       7.280   5.690  15.478  0.00  0.00    +0.000 NA
ATOM     10  C   UNL     1       6.908   6.074  16.759  0.00  0.00    +0.000 A 
ATOM     11  C   UNL     1       7.607   7.238  17.368  0.00  0.00    +0.000 C 
ATOM     12  C   UNL     1       5.901   5.308  17.330  0.00  0.00    +0.000 A 
ATOM     13  S   UNL     1       5.415   4.089  16.220  0.00  0.00    +0.000 S 
ENDBRANCH   1  12
BRANCH   5  14
ATOM     14  N   UNL     1       1.783   4.287  19.962  0.00  0.00    +0.000 N 
ATOM     15  C   UNL     1       2.149   4.041  21.255  0.00  0.00    +0.000 A 
ATOM     16  C   UNL     1       1.675   2.775  21.515  0.00  0.00    +0.000 A 
ATOM     17  N   UNL     1       1.038   2.255  20.417  0.00  0.00    +0.000 NA
ATOM     18  C   UNL     1       1.112   3.192  19.499  0.00  0.00    +0.000 A 
ENDBRANCH   5  14
TORSDOF 2
ENDMDL
MODEL 3
REMARK VINA RESULT:      -6.9      1.617      1.982
REMARK  Name = 
REMARK  4 active torsions:
REMARK  status: ('A' for Active; 'I' for Inactive)
REMARK    1  A    between atoms: C_1  and  C_2
REMARK    2  A    between atoms: C_4  and  C_5
REMARK    3  A    between atoms: C_6  and  C_7
REMARK    4  A    between atoms: C_11  and  N_12
REMARK                            x       y       z     vdW  Elec       q    Type
REMARK                         _______ _______ _______ _____ _____    ______ ____
ROOT
ATOM      1  C   UNL     1       4.390   5.343  17.535  0.00  0.00    +0.000 C 
ATOM      2  O   UNL     1       4.470   6.147  18.463  0.00  0.00    +0.000 OA
ATOM      3  N   UNL     1       3.210   4.647  17.296  0.00  0.00    +0.000 N 
ATOM      4  C   UNL     1       1.971   4.858  18.039  0.00  0.00    +0.000 C 
ATOM      5  C   UNL     1       1.876   3.343  18.269  0.00  0.00    +0.000 C 
ATOM      6  C   UNL     1       3.101   3.185  17.355  0.00  0.00    +0.000 C 
ENDROOT
BRANCH   1  12
ATOM      7  C   UNL     1       7.597   4.829  13.375  0.00  0.00    +0.000 C 
ATOM      8  C   UNL     1       6.996   4.857  14.736  0.00  0.00    +0.000 A 
ATOM      9  N   UNL     1       7.678   4.731  15.852  0.00  0.00    +0.000 NA
ATOM     10  C   UNL     1       6.837   4.875  16.947  0.00  0.00    +0.000 A 
ATOM     11  C   UNL     1       7.443   4.808  18.305  0.00  0.00    +0.000 C 
ATOM     12  C   UNL     1       5.499   5.072  16.636  0.00  0.00    +0.000 A 
ATOM     13  S   UNL     1       5.309   5.083  14.928  0.00  0.00    +0.000 S 
ENDBRANCH   1  12
BRANCH   5  14
ATOM     14  N   UNL     1       2.099   3.000  19.649  0.00  0.00    +0.000 N 
ATOM     15  C   UNL     1       3.272   2.669  20.264  0.00  0.00    +0.000 A 
ATOM     16  C   UNL     1       2.931   2.482  21.585  0.00  0.00    +0.000 A 
ATOM     17  N   UNL     1       1.590   2.691  21.779  0.00  0.00    +0.000 NA
ATOM     18  C   UNL     1       1.115   3.010  20.595  0.00  0.00    +0.000 A 
ENDBRANCH   5  14
TORSDOF 2
ENDMDL
MODEL 4
REMARK VINA RESULT:      -6.5      2.105      3.025
REMARK  Name = 
REMARK  4 active torsions:
REMARK  status: ('A' for Active; 'I' for Inactive)
REMARK    1  A    between atoms: C_1  and  C_2
REMARK    2  A    between atoms: C_4  and  C_5
REMARK    3  A    between atoms: C_6  and  C_7
REMARK    4  A    between atoms: C_11  and  N_12
REMARK                            x       y       z     vdW  Elec       q    Type
REMARK                         _______ _______ _______ _____ _____    ______ ____
ROOT
ATOM      1  C   UNL     1       4.259   4.037  17.046  0.00  0.00    +0.000 C 
ATOM      2  O   UNL     1       3.145   4.146  16.535  0.00  0.00    +0.000 OA
ATOM      3  N   UNL     1       4.572   2.944  17.846  0.00  0.00    +0.000 N 
ATOM      4  C   UNL     1       3.673   1.817  18.079  0.00  0.00    +0.000 C 
ATOM      5  C   UNL     1       3.906   1.972  19.590  0.00  0.00    +0.000 C 
ATOM      6  C   UNL     1       4.949   3.052  19.260  0.00  0.00    +0.000 C 
ENDROOT
BRANCH   1  12
ATOM      7  C   UNL     1       7.775   7.941  17.545  0.00  0.00    +0.000 C 
ATOM      8  C   UNL     1       6.953   6.795  17.072  0.00  0.00    +0.000 A 
ATOM      9  N   UNL     1       7.234   6.064  16.017  0.00  0.00    +0.000 NA
ATOM     10  C   UNL     1       6.316   5.031  15.890  0.00  0.00    +0.000 A 
ATOM     11  C   UNL     1       6.501   4.066  14.772  0.00  0.00    +0.000 C 
ATOM     12  C   UNL     1       5.310   5.020  16.847  0.00  0.00    +0.000 A 
ATOM     13  S   UNL     1       5.542   6.336  17.928  0.00  0.00    +0.000 S 
ENDBRANCH   1  12
BRANCH   5  14
ATOM     14  N   UNL     1       2.727   2.452  20.261  0.00  0.00    +0.000 N 
ATOM     15  C   UNL     1       1.560   2.905  19.714  0.00  0.00    +0.000 A 
ATOM     16  C   UNL     1       0.757   3.192  20.795  0.00  0.00    +0.000 A 
ATOM     17  N   UNL     1       1.408   2.926  21.972  0.00  0.00    +0.000 NA
ATOM     18  C   UNL     1       2.590   2.473  21.620  0.00  0.00    +0.000 A 
ENDBRANCH   5  14
TORSDOF 2
ENDMDL
MODEL 5
REMARK VINA RESULT:      -6.0      2.034      6.170
REMARK  Name = 
REMARK  4 active torsions:
REMARK  status: ('A' for Active; 'I' for Inactive)
REMARK    1  A    between atoms: C_1  and  C_2
REMARK    2  A    between atoms: C_4  and  C_5
REMARK    3  A    between atoms: C_6  and  C_7
REMARK    4  A    between atoms: C_11  and  N_12
REMARK                            x       y       z     vdW  Elec       q    Type
REMARK                         _______ _______ _______ _____ _____    ______ ____
ROOT
ATOM      1  C   UNL     1       4.054   6.075  18.227  0.00  0.00    +0.000 C 
ATOM      2  O   UNL     1       3.693   6.865  17.356  0.00  0.00    +0.000 OA
ATOM      3  N   UNL     1       5.395   5.738  18.371  0.00  0.00    +0.000 N 
ATOM      4  C   UNL     1       6.477   6.332  17.589  0.00  0.00    +0.000 C 
ATOM      5  C   UNL     1       6.986   4.921  17.260  0.00  0.00    +0.000 C 
ATOM      6  C   UNL     1       5.913   4.373  18.214  0.00  0.00    +0.000 C 
ENDROOT
BRANCH   1  12
ATOM      7  C   UNL     1       1.432   2.777  21.406  0.00  0.00    +0.000 C 
ATOM      8  C   UNL     1       1.925   3.956  20.644  0.00  0.00    +0.000 A 
ATOM      9  N   UNL     1       1.551   5.196  20.869  0.00  0.00    +0.000 NA
ATOM     10  C   UNL     1       2.247   6.065  20.040  0.00  0.00    +0.000 A 
ATOM     11  C   UNL     1       1.989   7.524  20.185  0.00  0.00    +0.000 C 
ATOM     12  C   UNL     1       3.124   5.454  19.155  0.00  0.00    +0.000 A 
ATOM     13  S   UNL     1       3.070   3.751  19.387  0.00  0.00    +0.000 S 
ENDBRANCH   1  12
BRANCH   5  14
ATOM     14  N   UNL     1       6.787   4.596  15.872  0.00  0.00    +0.000 N 
ATOM     15  C   UNL     1       5.904   3.709  15.323  0.00  0.00    +0.000 A 
ATOM     16  C   UNL     1       6.098   3.821  13.965  0.00  0.00    +0.000 A 
ATOM     17  N   UNL     1       7.070   4.747  13.683  0.00  0.00    +0.000 NA
ATOM     18  C   UNL     1       7.462   5.203  14.852  0.00  0.00    +0.000 A 
ENDBRANCH   5  14
TORSDOF 2
ENDMDL
MODEL 6
REMARK VINA RESULT:      -5.9      2.156      6.371
REMARK  Name = 
REMARK  4 active torsions:
REMARK  status: ('A' for Active; 'I' for Inactive)
REMARK    1  A    between atoms: C_1  and  C_2
REMARK    2  A    between atoms: C_4  and  C_5
REMARK    3  A    between atoms: C_6  and  C_7
REMARK    4  A    between atoms: C_11  and  N_12
REMARK                            x       y       z     vdW  Elec       q    Type
REMARK                         _______ _______ _______ _____ _____    ______ ____
ROOT
ATOM      1  C   UNL     1       3.628   5.037  18.327  0.00  0.00    +0.000 C 
ATOM      2  O   UNL     1       3.003   5.693  17.495  0.00  0.00    +0.000 OA
ATOM      3  N   UNL     1       5.000   5.203  18.480  0.00  0.00    +0.000 N 
ATOM      4  C   UNL     1       5.790   6.196  17.757  0.00  0.00    +0.000 C 
ATOM      5  C   UNL     1       6.778   5.089  17.360  0.00  0.00    +0.000 C 
ATOM      6  C   UNL     1       5.979   4.132  18.258  0.00  0.00    +0.000 C 
ENDROOT
BRANCH   1  12
ATOM      7  C   UNL     1       1.110   2.552  22.243  0.00  0.00    +0.000 C 
ATOM      8  C   UNL     1       1.806   2.913  20.979  0.00  0.00    +0.000 A 
ATOM      9  N   UNL     1       1.871   2.140  19.919  0.00  0.00    +0.000 NA
ATOM     10  C   UNL     1       2.524   2.796  18.885  0.00  0.00    +0.000 A 
ATOM     11  C   UNL     1       2.654   2.089  17.581  0.00  0.00    +0.000 C 
ATOM     12  C   UNL     1       2.989   4.066  19.198  0.00  0.00    +0.000 A 
ATOM     13  S   UNL     1       2.580   4.433  20.827  0.00  0.00    +0.000 S 
ENDBRANCH   1  12
BRANCH   5  14
ATOM     14  N   UNL     1       6.710   4.799  15.952  0.00  0.00    +0.000 N 
ATOM     15  C   UNL     1       5.930   3.880  15.309  0.00  0.00    +0.000 A 
ATOM     16  C   UNL     1       6.224   4.048  13.974  0.00  0.00    +0.000 A 
ATOM     17  N   UNL     1       7.157   5.037  13.799  0.00  0.00    +0.000 NA
ATOM     18  C   UNL     1       7.426   5.477  15.008  0.00  0.00    +0.000 A 
ENDBRANCH   5  14
TORSDOF 2
ENDMDL
MODEL 7
REMARK VINA RESULT:      -5.8      2.052      3.115
REMARK  Name = 
REMARK  4 active torsions:
REMARK  status: ('A' for Active; 'I' for Inactive)
REMARK    1  A    between atoms: C_1  and  C_2
REMARK    2  A    between atoms: C_4  and  C_5
REMARK    3  A    between atoms: C_6  and  C_7
REMARK    4  A    between atoms: C_11  and  N_12
REMARK                            x       y       z     vdW  Elec       q    Type
REMARK                         _______ _______ _______ _____ _____    ______ ____
ROOT
ATOM      1  C   UNL     1       3.760   5.043  17.268  0.00  0.00    +0.000 C 
ATOM      2  O   UNL     1       2.691   5.644  17.374  0.00  0.00    +0.000 OA
ATOM      3  N   UNL     1       3.806   3.655  17.339  0.00  0.00    +0.000 N 
ATOM      4  C   UNL     1       2.626   2.802  17.455  0.00  0.00    +0.000 C 
ATOM      5  C   UNL     1       3.288   2.084  18.640  0.00  0.00    +0.000 C 
ATOM      6  C   UNL     1       4.550   2.917  18.366  0.00  0.00    +0.000 C 
ENDROOT
BRANCH   1  12
ATOM      7  C   UNL     1       8.067   8.068  17.649  0.00  0.00    +0.000 C 
ATOM      8  C   UNL     1       7.025   7.090  17.233  0.00  0.00    +0.000 A 
ATOM      9  N   UNL     1       7.187   6.188  16.292  0.00  0.00    +0.000 NA
ATOM     10  C   UNL     1       6.059   5.385  16.196  0.00  0.00    +0.000 A 
ATOM     11  C   UNL     1       6.076   4.272  15.210  0.00  0.00    +0.000 C 
ATOM     12  C   UNL     1       5.024   5.726  17.058  0.00  0.00    +0.000 A 
ATOM     13  S   UNL     1       5.497   7.079  18.006  0.00  0.00    +0.000 S 
ENDBRANCH   1  12
BRANCH   5  14
ATOM     14  N   UNL     1       2.621   2.381  19.880  0.00  0.00    +0.000 N 
ATOM     15  C   UNL     1       3.168   2.556  21.120  0.00  0.00    +0.000 A 
ATOM     16  C   UNL     1       2.098   2.863  21.931  0.00  0.00    +0.000 A 
ATOM     17  N   UNL     1       0.929   2.876  21.215  0.00  0.00    +0.000 NA
ATOM     18  C   UNL     1       1.276   2.590  19.980  0.00  0.00    +0.000 A 
ENDBRANCH   5  14
TORSDOF 2
ENDMDL
MODEL 8
REMARK VINA RESULT:      -5.5      2.201      2.724
REMARK  Name = 
REMARK  4 active torsions:
REMARK  status: ('A' for Active; 'I' for Inactive)
REMARK    1  A    between atoms: C_1  and  C_2
REMARK    2  A    between atoms: C_4  and  C_5
REMARK    3  A    between atoms: C_6  and  C_7
REMARK    4  A    between atoms: C_11  and  N_12
REMARK                            x       y       z     vdW  Elec       q    Type
REMARK                         _______ _______ _______ _____ _____    ______ ____
ROOT
ATOM      1  C   UNL     1       3.875   3.512  16.764  0.00  0.00    +0.000 C 
ATOM      2  O   UNL     1       2.678   3.622  16.501  0.00  0.00    +0.000 OA
ATOM      3  N   UNL     1       4.314   2.600  17.717  0.00  0.00    +0.000 N 
ATOM      4  C   UNL     1       3.441   1.658  18.412  0.00  0.00    +0.000 C 
ATOM      5  C   UNL     1       4.037   2.124  19.749  0.00  0.00    +0.000 C 
ATOM      6  C   UNL     1       5.024   2.983  18.944  0.00  0.00    +0.000 C 
ENDROOT
BRANCH   1  12
ATOM      7  C   UNL     1       7.639   5.374  13.567  0.00  0.00    +0.000 C 
ATOM      8  C   UNL     1       6.609   5.189  14.625  0.00  0.00    +0.000 A 
ATOM      9  N   UNL     1       6.134   6.156  15.377  0.00  0.00    +0.000 NA
ATOM     10  C   UNL     1       5.137   5.670  16.212  0.00  0.00    +0.000 A 
ATOM     11  C   UNL     1       4.447   6.635  17.109  0.00  0.00    +0.000 C 
ATOM     12  C   UNL     1       4.897   4.306  16.104  0.00  0.00    +0.000 A 
ATOM     13  S   UNL     1       5.947   3.637  14.919  0.00  0.00    +0.000 S 
ENDBRANCH   1  12
BRANCH   5  14
ATOM     14  N   UNL     1       3.079   2.867  20.526  0.00  0.00    +0.000 N 
ATOM     15  C   UNL     1       2.572   4.113  20.287  0.00  0.00    +0.000 A 
ATOM     16  C   UNL     1       1.670   4.322  21.306  0.00  0.00    +0.000 A 
ATOM     17  N   UNL     1       1.623   3.240  22.148  0.00  0.00    +0.000 NA
ATOM     18  C   UNL     1       2.477   2.375  21.648  0.00  0.00    +0.000 A 
ENDBRANCH   5  14
TORSDOF 2
ENDMDL
MODEL 9
REMARK VINA RESULT:      -5.4      2.116      2.913
REMARK  Name = 
REMARK  4 active torsions:
REMARK  status: ('A' for Active; 'I' for Inactive)
REMARK    1  A    between atoms: C_1  and  C_2
REMARK    2  A    between atoms: C_4  and  C_5
REMARK    3  A    between atoms: C_6  and  C_7
REMARK    4  A    between atoms: C_11  and  N_12
REMARK                            x       y       z     vdW  Elec       q    Type
REMARK                         _______ _______ _______ _____ _____    ______ ____
ROOT
ATOM      1  C   UNL     1       5.729   4.445  17.847  0.00  0.00    +0.000 C 
ATOM      2  O   UNL     1       5.619   3.672  16.896  0.00  0.00    +0.000 OA
ATOM      3  N   UNL     1       5.319   4.068  19.121  0.00  0.00    +0.000 N 
ATOM      4  C   UNL     1       4.819   2.738  19.460  0.00  0.00    +0.000 C 
ATOM      5  C   UNL     1       3.603   3.391  20.134  0.00  0.00    +0.000 C 
ATOM      6  C   UNL     1       4.261   4.755  19.873  0.00  0.00    +0.000 C 
ENDROOT
BRANCH   1  12
ATOM      7  C   UNL     1       8.685   8.807  18.139  0.00  0.00    +0.000 C 
ATOM      8  C   UNL     1       7.654   7.784  17.813  0.00  0.00    +0.000 A 
ATOM      9  N   UNL     1       6.789   7.888  16.830  0.00  0.00    +0.000 NA
ATOM     10  C   UNL     1       6.017   6.738  16.746  0.00  0.00    +0.000 A 
ATOM     11  C   UNL     1       5.007   6.653  15.657  0.00  0.00    +0.000 C 
ATOM     12  C   UNL     1       6.289   5.778  17.712  0.00  0.00    +0.000 A 
ATOM     13  S   UNL     1       7.550   6.344  18.734  0.00  0.00    +0.000 S 
ENDBRANCH   1  12
BRANCH   5  14
ATOM     14  N   UNL     1       2.392   3.149  19.394  0.00  0.00    +0.000 N 
ATOM     15  C   UNL     1       1.288   2.442  19.776  0.00  0.00    +0.000 A 
ATOM     16  C   UNL     1       0.414   2.564  18.720  0.00  0.00    +0.000 A 
ATOM     17  N   UNL     1       0.962   3.321  17.716  0.00  0.00    +0.000 NA
ATOM     18  C   UNL     1       2.152   3.667  18.154  0.00  0.00    +0.000 A 
ENDBRANCH   5  14
TORSDOF 2
ENDMDL
