MODEL 1
REMARK VINA RESULT:      -8.2      0.000      0.000
REMARK  Name = 
REMARK  5 active torsions:
REMARK  status: ('A' for Active; 'I' for Inactive)
REMARK    1  A    between atoms: C_2  and  C_3
REMARK    2  A    between atoms: C_4  and  N_5
REMARK    3  A    between atoms: N_6  and  C_7
REMARK    4  A    between atoms: C_10  and  O_11
REMARK    5  A    between atoms: O_11  and  C_12
REMARK                            x       y       z     vdW  Elec       q    Type
REMARK                         _______ _______ _______ _____ _____    ______ ____
ROOT
ATOM      1  C   UNL     1       4.566   5.144  18.303  0.00  0.00    +0.000 A 
ATOM      2  C   UNL     1       4.263   5.615  17.019  0.00  0.00    +0.000 A 
ATOM      3  C   UNL     1       5.273   5.748  16.059  0.00  0.00    +0.000 A 
ATOM      4  C   UNL     1       6.601   5.459  16.383  0.00  0.00    +0.000 A 
ATOM      5  C   UNL     1       6.905   4.977  17.656  0.00  0.00    +0.000 A 
ATOM      6  C   UNL     1       5.895   4.831  18.612  0.00  0.00    +0.000 A 
ENDROOT
BRANCH   1   9
ATOM      7  C   UNL     1       2.290   3.984  20.827  0.00  0.00    +0.000 C 
ATOM      8  C   UNL     1       3.263   3.738  19.934  0.00  0.00    +0.000 C 
ATOM      9  N   UNL     1       3.537   4.911  19.251  0.00  0.00    +0.000 N 
ATOM     10  C   UNL     1       2.705   5.954  19.692  0.00  0.00    +0.000 C 
ATOM     11  O   UNL     1       2.662   7.116  19.315  0.00  0.00    +0.000 OA
ATOM     12  C   UNL     1       1.857   5.413  20.819  0.00  0.00    +0.000 C 
BRANCH   8  13
ATOM     13  N   UNL     1       3.841   2.522  19.669  0.00  0.00    +0.000 N 
ATOM     14  H   UNL     1       4.663   2.309  20.232  0.00  0.00    +0.000 HD
ATOM     15  H   UNL     1       3.166   1.760  19.685  0.00  0.00    +0.000 HD
ENDBRANCH   8  13
BRANCH   7  17
ATOM     16  N   UNL     1       1.229   2.233  22.382  0.00  0.00    +0.000 NA
ATOM     17  C   UNL     1       1.693   3.023  21.679  0.00  0.00    +0.000 C 
ENDBRANCH   7  17
ENDBRANCH   1   9
BRANCH   4  18
ATOM     18  O   UNL     1       7.516   5.599  15.365  0.00  0.00    +0.000 OA
BRANCH  18  19
ATOM     19  C   UNL     1       7.287   5.009  14.142  0.00  0.00    +0.000 A 
ATOM     20  C   UNL     1       6.351   3.972  14.125  0.00  0.00    +0.000 A 
ATOM     21  C   UNL     1       6.045   3.320  12.928  0.00  0.00    +0.000 A 
ATOM     22  C   UNL     1       6.676   3.703  11.746  0.00  0.00    +0.000 A 
ATOM     23  C   UNL     1       7.587   4.758  11.752  0.00  0.00    +0.000 A 
ATOM     24  C   UNL     1       7.871   5.428  12.944  0.00  0.00    +0.000 A 
ENDBRANCH  18  19
ENDBRANCH   4  18
TORSDOF 5
ENDMDL
MODEL 2
REMARK VINA RESULT:      -8.1      0.132      1.033
REMARK  Name = 
REMARK  5 active torsions:
REMARK  status: ('A' for Active; 'I' for Inactive)
REMARK    1  A    between atoms: C_2  and  C_3
REMARK    2  A    between atoms: C_4  and  N_5
REMARK    3  A    between atoms: N_6  and  C_7
REMARK    4  A    between atoms: C_10  and  O_11
REMARK    5  A    between atoms: O_11  and  C_12
REMARK                            x       y       z     vdW  Elec       q    Type
REMARK                         _______ _______ _______ _____ _____    ______ ____
ROOT
ATOM      1  C   UNL     1       4.535   5.099  18.316  0.00  0.00    +0.000 A 
ATOM      2  C   UNL     1       4.215   5.519  17.019  0.00  0.00    +0.000 A 
ATOM      3  C   UNL     1       5.216   5.646  16.049  0.00  0.00    +0.000 A 
ATOM      4  C   UNL     1       6.553   5.401  16.376  0.00  0.00    +0.000 A 
ATOM      5  C   UNL     1       6.875   4.970  17.663  0.00  0.00    +0.000 A 
ATOM      6  C   UNL     1       5.874   4.831  18.628  0.00  0.00    +0.000 A 
ENDROOT
BRANCH   1   9
ATOM      7  C   UNL     1       2.284   3.952  20.869  0.00  0.00    +0.000 C 
ATOM      8  C   UNL     1       3.245   3.700  19.964  0.00  0.00    +0.000 C 
ATOM      9  N   UNL     1       3.516   4.871  19.277  0.00  0.00    +0.000 N 
ATOM     10  C   UNL     1       2.695   5.919  19.727  0.00  0.00    +0.000 C 
ATOM     11  O   UNL     1       2.654   7.081  19.350  0.00  0.00    +0.000 OA
ATOM     12  C   UNL     1       1.859   5.383  20.865  0.00  0.00    +0.000 C 
BRANCH   8  13
ATOM     13  N   UNL     1       3.814   2.481  19.692  0.00  0.00    +0.000 N 
ATOM     14  H   UNL     1       4.285   2.045  20.484  0.00  0.00    +0.000 HD
ATOM     15  H   UNL     1       3.163   1.841  19.242  0.00  0.00    +0.000 HD
ENDBRANCH   8  13
BRANCH   7  17
ATOM     16  N   UNL     1       1.229   2.197  22.423  0.00  0.00    +0.000 NA
ATOM     17  C   UNL     1       1.693   2.994  21.728  0.00  0.00    +0.000 C 
ENDBRANCH   7  17
ENDBRANCH   1   9
BRANCH   4  18
ATOM     18  O   UNL     1       7.460   5.530  15.349  0.00  0.00    +0.000 OA
BRANCH  18  19
ATOM     19  C   UNL     1       7.206   4.953  14.125  0.00  0.00    +0.000 A 
ATOM     20  C   UNL     1       7.919   5.471  13.041  0.00  0.00    +0.000 A 
ATOM     21  C   UNL     1       7.736   4.942  11.761  0.00  0.00    +0.000 A 
ATOM     22  C   UNL     1       6.840   3.894  11.563  0.00  0.00    +0.000 A 
ATOM     23  C   UNL     1       6.150   3.352  12.647  0.00  0.00    +0.000 A 
ATOM     24  C   UNL     1       6.354   3.863  13.930  0.00  0.00    +0.000 A 
ENDBRANCH  18  19
ENDBRANCH   4  18
TORSDOF 5
ENDMDL
MODEL 3
REMARK VINA RESULT:      -8.1      5.621      8.261
REMARK  Name = 
REMARK  5 active torsions:
REMARK  status: ('A' for Active; 'I' for Inactive)
REMARK    1  A    between atoms: C_2  and  C_3
REMARK    2  A    between atoms: C_4  and  N_5
REMARK    3  A    between atoms: N_6  and  C_7
REMARK    4  A    between atoms: C_10  and  O_11
REMARK    5  A    between atoms: O_11  and  C_12
REMARK                            x       y       z     vdW  Elec       q    Type
REMARK                         _______ _______ _______ _____ _____    ______ ____
ROOT
ATOM      1  C   UNL     1       1.010   9.820  19.068  0.00  0.00    +0.000 A 
ATOM      2  C   UNL     1       1.700   9.231  18.000  0.00  0.00    +0.000 A 
ATOM      3  C   UNL     1       2.347   8.002  18.168  0.00  0.00    +0.000 A 
ATOM      4  C   UNL     1       2.354   7.370  19.415  0.00  0.00    +0.000 A 
ATOM      5  C   UNL     1       1.659   7.947  20.478  0.00  0.00    +0.000 A 
ATOM      6  C   UNL     1       1.001   9.168  20.307  0.00  0.00    +0.000 A 
ENDROOT
BRANCH   1   9
ATOM      7  C   UNL     1      -0.272  13.146  18.636  0.00  0.00    +0.000 C 
ATOM      8  C   UNL     1       0.708  12.318  19.035  0.00  0.00    +0.000 C 
ATOM      9  N   UNL     1       0.268  11.014  18.881  0.00  0.00    +0.000 N 
ATOM     10  C   UNL     1      -1.047  10.984  18.387  0.00  0.00    +0.000 C 
ATOM     11  O   UNL     1      -1.752  10.016  18.136  0.00  0.00    +0.000 OA
ATOM     12  C   UNL     1      -1.471  12.411  18.135  0.00  0.00    +0.000 C 
BRANCH   8  13
ATOM     13  N   UNL     1       1.913  12.681  19.583  0.00  0.00    +0.000 N 
ATOM     14  H   UNL     1       2.287  12.020  20.263  0.00  0.00    +0.000 HD
ATOM     15  H   UNL     1       2.603  12.924  18.875  0.00  0.00    +0.000 HD
ENDBRANCH   8  13
BRANCH   7  17
ATOM     16  N   UNL     1      -0.215  15.715  18.738  0.00  0.00    +0.000 NA
ATOM     17  C   UNL     1      -0.227  14.560  18.693  0.00  0.00    +0.000 C 
ENDBRANCH   7  17
ENDBRANCH   1   9
BRANCH   4  18
ATOM     18  O   UNL     1       2.998   6.155  19.473  0.00  0.00    +0.000 OA
BRANCH  18  19
ATOM     19  C   UNL     1       2.269   4.988  19.524  0.00  0.00    +0.000 A 
ATOM     20  C   UNL     1       2.051   4.345  18.303  0.00  0.00    +0.000 A 
ATOM     21  C   UNL     1       1.332   3.148  18.257  0.00  0.00    +0.000 A 
ATOM     22  C   UNL     1       0.828   2.593  19.432  0.00  0.00    +0.000 A 
ATOM     23  C   UNL     1       1.070   3.214  20.656  0.00  0.00    +0.000 A 
ATOM     24  C   UNL     1       1.814   4.395  20.705  0.00  0.00    +0.000 A 
ENDBRANCH  18  19
ENDBRANCH   4  18
TORSDOF 5
ENDMDL
MODEL 4
REMARK VINA RESULT:      -8.0      5.618      8.204
REMARK  Name = 
REMARK  5 active torsions:
REMARK  status: ('A' for Active; 'I' for Inactive)
REMARK    1  A    between atoms: C_2  and  C_3
REMARK    2  A    between atoms: C_4  and  N_5
REMARK    3  A    between atoms: N_6  and  C_7
REMARK    4  A    between atoms: C_10  and  O_11
REMARK    5  A    between atoms: O_11  and  C_12
REMARK                            x       y       z     vdW  Elec       q    Type
REMARK                         _______ _______ _______ _____ _____    ______ ____
ROOT
ATOM      1  C   UNL     1       0.999   9.775  19.169  0.00  0.00    +0.000 A 
ATOM      2  C   UNL     1       1.722   9.170  18.132  0.00  0.00    +0.000 A 
ATOM      3  C   UNL     1       2.369   7.947  18.340  0.00  0.00    +0.000 A 
ATOM      4  C   UNL     1       2.342   7.337  19.597  0.00  0.00    +0.000 A 
ATOM      5  C   UNL     1       1.613   7.928  20.629  0.00  0.00    +0.000 A 
ATOM      6  C   UNL     1       0.956   9.144  20.418  0.00  0.00    +0.000 A 
ENDROOT
BRANCH   1   9
ATOM      7  C   UNL     1      -0.283  13.089  18.653  0.00  0.00    +0.000 C 
ATOM      8  C   UNL     1       0.684  12.270  19.101  0.00  0.00    +0.000 C 
ATOM      9  N   UNL     1       0.259  10.962  18.940  0.00  0.00    +0.000 N 
ATOM     10  C   UNL     1      -1.033  10.919  18.390  0.00  0.00    +0.000 C 
ATOM     11  O   UNL     1      -1.721   9.945  18.117  0.00  0.00    +0.000 OA
ATOM     12  C   UNL     1      -1.455  12.342  18.108  0.00  0.00    +0.000 C 
BRANCH   8  13
ATOM     13  N   UNL     1       1.862  12.645  19.697  0.00  0.00    +0.000 N 
ATOM     14  H   UNL     1       2.192  12.011  20.424  0.00  0.00    +0.000 HD
ATOM     15  H   UNL     1       2.591  12.852  19.018  0.00  0.00    +0.000 HD
ENDBRANCH   8  13
BRANCH   7  17
ATOM     16  N   UNL     1      -0.236  15.657  18.758  0.00  0.00    +0.000 NA
ATOM     17  C   UNL     1      -0.249  14.503  18.700  0.00  0.00    +0.000 C 
ENDBRANCH   7  17
ENDBRANCH   1   9
BRANCH   4  18
ATOM     18  O   UNL     1       2.987   6.126  19.695  0.00  0.00    +0.000 OA
BRANCH  18  19
ATOM     19  C   UNL     1       2.291   4.953  19.508  0.00  0.00    +0.000 A 
ATOM     20  C   UNL     1       1.791   4.343  20.662  0.00  0.00    +0.000 A 
ATOM     21  C   UNL     1       1.062   3.155  20.570  0.00  0.00    +0.000 A 
ATOM     22  C   UNL     1       0.833   2.573  19.324  0.00  0.00    +0.000 A 
ATOM     23  C   UNL     1       1.303   3.194  18.168  0.00  0.00    +0.000 A 
ATOM     24  C   UNL     1       2.006   4.397  18.258  0.00  0.00    +0.000 A 
ENDBRANCH  18  19
ENDBRANCH   4  18
TORSDOF 5
ENDMDL
MODEL 5
REMARK VINA RESULT:      -8.0      5.593      8.311
REMARK  Name = 
REMARK  5 active torsions:
REMARK  status: ('A' for Active; 'I' for Inactive)
REMARK    1  A    between atoms: C_2  and  C_3
REMARK    2  A    between atoms: C_4  and  N_5
REMARK    3  A    between atoms: N_6  and  C_7
REMARK    4  A    between atoms: C_10  and  O_11
REMARK    5  A    between atoms: O_11  and  C_12
REMARK                            x       y       z     vdW  Elec       q    Type
REMARK                         _______ _______ _______ _____ _____    ______ ____
ROOT
ATOM      1  C   UNL     1       0.848   9.817  19.053  0.00  0.00    +0.000 A 
ATOM      2  C   UNL     1       0.880   9.167  20.294  0.00  0.00    +0.000 A 
ATOM      3  C   UNL     1       1.604   7.980  20.453  0.00  0.00    +0.000 A 
ATOM      4  C   UNL     1       2.264   7.403  19.365  0.00  0.00    +0.000 A 
ATOM      5  C   UNL     1       2.245   8.052  18.130  0.00  0.00    +0.000 A 
ATOM      6  C   UNL     1       1.534   9.244  17.974  0.00  0.00    +0.000 A 
ENDROOT
BRANCH   1   9
ATOM      7  C   UNL     1      -0.169  13.241  18.682  0.00  0.00    +0.000 C 
ATOM      8  C   UNL     1       0.761  12.331  19.021  0.00  0.00    +0.000 C 
ATOM      9  N   UNL     1       0.201  11.070  18.907  0.00  0.00    +0.000 N 
ATOM     10  C   UNL     1      -1.141  11.152  18.502  0.00  0.00    +0.000 C 
ATOM     11  O   UNL     1      -1.943  10.249  18.305  0.00  0.00    +0.000 OA
ATOM     12  C   UNL     1      -1.457  12.611  18.267  0.00  0.00    +0.000 C 
BRANCH   8  13
ATOM     13  N   UNL     1       2.027  12.589  19.485  0.00  0.00    +0.000 N 
ATOM     14  H   UNL     1       2.210  13.569  19.700  0.00  0.00    +0.000 HD
ATOM     15  H   UNL     1       2.289  11.980  20.257  0.00  0.00    +0.000 HD
ENDBRANCH   8  13
BRANCH   7  17
ATOM     16  N   UNL     1       0.128  15.794  18.739  0.00  0.00    +0.000 NA
ATOM     17  C   UNL     1       0.002  14.645  18.725  0.00  0.00    +0.000 C 
ENDBRANCH   7  17
ENDBRANCH   1   9
BRANCH   4  18
ATOM     18  O   UNL     1       2.967   6.249  19.627  0.00  0.00    +0.000 OA
BRANCH  18  19
ATOM     19  C   UNL     1       2.327   5.030  19.608  0.00  0.00    +0.000 A 
ATOM     20  C   UNL     1       2.217   4.411  18.361  0.00  0.00    +0.000 A 
ATOM     21  C   UNL     1       1.594   3.167  18.244  0.00  0.00    +0.000 A 
ATOM     22  C   UNL     1       1.077   2.539  19.376  0.00  0.00    +0.000 A 
ATOM     23  C   UNL     1       1.212   3.137  20.628  0.00  0.00    +0.000 A 
ATOM     24  C   UNL     1       1.861   4.368  20.747  0.00  0.00    +0.000 A 
ENDBRANCH  18  19
ENDBRANCH   4  18
TORSDOF 5
ENDMDL
MODEL 6
REMARK VINA RESULT:      -7.9      5.753      8.338
REMARK  Name = 
REMARK  5 active torsions:
REMARK  status: ('A' for Active; 'I' for Inactive)
REMARK    1  A    between atoms: C_2  and  C_3
REMARK    2  A    between atoms: C_4  and  N_5
REMARK    3  A    between atoms: N_6  and  C_7
REMARK    4  A    between atoms: C_10  and  O_11
REMARK    5  A    between atoms: O_11  and  C_12
REMARK                            x       y       z     vdW  Elec       q    Type
REMARK                         _______ _______ _______ _____ _____    ______ ____
ROOT
ATOM      1  C   UNL     1       0.855   9.767  19.056  0.00  0.00    +0.000 A 
ATOM      2  C   UNL     1       0.900   9.133  20.305  0.00  0.00    +0.000 A 
ATOM      3  C   UNL     1       1.644   7.960  20.475  0.00  0.00    +0.000 A 
ATOM      4  C   UNL     1       2.311   7.380  19.392  0.00  0.00    +0.000 A 
ATOM      5  C   UNL     1       2.279   8.015  18.150  0.00  0.00    +0.000 A 
ATOM      6  C   UNL     1       1.547   9.194  17.982  0.00  0.00    +0.000 A 
ENDROOT
BRANCH   1   9
ATOM      7  C   UNL     1      -0.219  13.172  18.668  0.00  0.00    +0.000 C 
ATOM      8  C   UNL     1       0.719  12.280  19.027  0.00  0.00    +0.000 C 
ATOM      9  N   UNL     1       0.187  11.008  18.897  0.00  0.00    +0.000 N 
ATOM     10  C   UNL     1      -1.147  11.066  18.461  0.00  0.00    +0.000 C 
ATOM     11  O   UNL     1      -1.926  10.147  18.244  0.00  0.00    +0.000 OA
ATOM     12  C   UNL     1      -1.485  12.518  18.222  0.00  0.00    +0.000 C 
BRANCH   8  13
ATOM     13  N   UNL     1       1.969  12.561  19.521  0.00  0.00    +0.000 N 
ATOM     14  H   UNL     1       2.034  12.563  20.538  0.00  0.00    +0.000 HD
ATOM     15  H   UNL     1       2.692  11.984  19.098  0.00  0.00    +0.000 HD
ENDBRANCH   8  13
BRANCH   7  17
ATOM     16  N   UNL     1       0.057  15.725  18.774  0.00  0.00    +0.000 NA
ATOM     17  C   UNL     1      -0.078  14.579  18.718  0.00  0.00    +0.000 C 
ENDBRANCH   7  17
ENDBRANCH   1   9
BRANCH   4  18
ATOM     18  O   UNL     1       3.032   6.241  19.666  0.00  0.00    +0.000 OA
BRANCH  18  19
ATOM     19  C   UNL     1       2.401   5.019  19.727  0.00  0.00    +0.000 A 
ATOM     20  C   UNL     1       2.237   4.474  21.002  0.00  0.00    +0.000 A 
ATOM     21  C   UNL     1       1.598   3.242  21.164  0.00  0.00    +0.000 A 
ATOM     22  C   UNL     1       1.122   2.553  20.051  0.00  0.00    +0.000 A 
ATOM     23  C   UNL     1       1.254   3.109  18.779  0.00  0.00    +0.000 A 
ATOM     24  C   UNL     1       1.867   4.353  18.620  0.00  0.00    +0.000 A 
ENDBRANCH  18  19
ENDBRANCH   4  18
TORSDOF 5
ENDMDL
MODEL 7
REMARK VINA RESULT:      -7.7      5.407      7.746
REMARK  Name = 
REMARK  5 active torsions:
REMARK  status: ('A' for Active; 'I' for Inactive)
REMARK    1  A    between atoms: C_2  and  C_3
REMARK    2  A    between atoms: C_4  and  N_5
REMARK    3  A    between atoms: N_6  and  C_7
REMARK    4  A    between atoms: C_10  and  O_11
REMARK    5  A    between atoms: O_11  and  C_12
REMARK                            x       y       z     vdW  Elec       q    Type
REMARK                         _______ _______ _______ _____ _____    ______ ____
ROOT
ATOM      1  C   UNL     1       0.873   9.704  19.020  0.00  0.00    +0.000 A 
ATOM      2  C   UNL     1       0.934   9.071  20.268  0.00  0.00    +0.000 A 
ATOM      3  C   UNL     1       1.709   7.918  20.440  0.00  0.00    +0.000 A 
ATOM      4  C   UNL     1       2.392   7.357  19.357  0.00  0.00    +0.000 A 
ATOM      5  C   UNL     1       2.344   7.990  18.115  0.00  0.00    +0.000 A 
ATOM      6  C   UNL     1       1.581   9.149  17.947  0.00  0.00    +0.000 A 
ENDROOT
BRANCH   1   9
ATOM      7  C   UNL     1      -0.292  13.079  18.641  0.00  0.00    +0.000 C 
ATOM      8  C   UNL     1       0.666  12.212  19.008  0.00  0.00    +0.000 C 
ATOM      9  N   UNL     1       0.172  10.926  18.860  0.00  0.00    +0.000 N 
ATOM     10  C   UNL     1      -1.156  10.949  18.405  0.00  0.00    +0.000 C 
ATOM     11  O   UNL     1      -1.905  10.011  18.169  0.00  0.00    +0.000 OA
ATOM     12  C   UNL     1      -1.533  12.393  18.172  0.00  0.00    +0.000 C 
BRANCH   8  13
ATOM     13  N   UNL     1       1.899  12.525  19.522  0.00  0.00    +0.000 N 
ATOM     14  H   UNL     1       2.169  13.502  19.416  0.00  0.00    +0.000 HD
ATOM     15  H   UNL     1       2.011  12.205  20.482  0.00  0.00    +0.000 HD
ENDBRANCH   8  13
BRANCH   7  17
ATOM     16  N   UNL     1      -0.111  15.642  18.730  0.00  0.00    +0.000 NA
ATOM     17  C   UNL     1      -0.192  14.490  18.704  0.00  0.00    +0.000 C 
ENDBRANCH   7  17
ENDBRANCH   1   9
BRANCH   4  18
ATOM     18  O   UNL     1       3.143   6.237  19.631  0.00  0.00    +0.000 OA
BRANCH  18  19
ATOM     19  C   UNL     1       2.979   5.093  18.884  0.00  0.00    +0.000 A 
ATOM     20  C   UNL     1       1.777   4.404  19.069  0.00  0.00    +0.000 A 
ATOM     21  C   UNL     1       1.516   3.238  18.346  0.00  0.00    +0.000 A 
ATOM     22  C   UNL     1       2.457   2.756  17.438  0.00  0.00    +0.000 A 
ATOM     23  C   UNL     1       3.643   3.457  17.227  0.00  0.00    +0.000 A 
ATOM     24  C   UNL     1       3.891   4.638  17.928  0.00  0.00    +0.000 A 
ENDBRANCH  18  19
ENDBRANCH   4  18
TORSDOF 5
ENDMDL
MODEL 8
REMARK VINA RESULT:      -7.5      2.505      3.237
REMARK  Name = 
REMARK  5 active torsions:
REMARK  status: ('A' for Active; 'I' for Inactive)
REMARK    1  A    between atoms: C_2  and  C_3
REMARK    2  A    between atoms: C_4  and  N_5
REMARK    3  A    between atoms: N_6  and  C_7
REMARK    4  A    between atoms: C_10  and  O_11
REMARK    5  A    between atoms: O_11  and  C_12
REMARK                            x       y       z     vdW  Elec       q    Type
REMARK                         _______ _______ _______ _____ _____    ______ ____
ROOT
ATOM      1  C   UNL     1       3.196   6.644  18.044  0.00  0.00    +0.000 A 
ATOM      2  C   UNL     1       2.814   5.313  17.829  0.00  0.00    +0.000 A 
ATOM      3  C   UNL     1       3.685   4.420  17.195  0.00  0.00    +0.000 A 
ATOM      4  C   UNL     1       4.927   4.857  16.725  0.00  0.00    +0.000 A 
ATOM      5  C   UNL     1       5.317   6.178  16.947  0.00  0.00    +0.000 A 
ATOM      6  C   UNL     1       4.453   7.066  17.592  0.00  0.00    +0.000 A 
ENDROOT
BRANCH   1   9
ATOM      7  C   UNL     1       1.285   8.535  20.425  0.00  0.00    +0.000 C 
ATOM      8  C   UNL     1       1.962   7.422  20.094  0.00  0.00    +0.000 C 
ATOM      9  N   UNL     1       2.362   7.529  18.773  0.00  0.00    +0.000 N 
ATOM     10  C   UNL     1       1.917   8.738  18.211  0.00  0.00    +0.000 C 
ATOM     11  O   UNL     1       2.078   9.164  17.076  0.00  0.00    +0.000 OA
ATOM     12  C   UNL     1       1.218   9.516  19.301  0.00  0.00    +0.000 C 
BRANCH   8  13
ATOM     13  N   UNL     1       2.162   6.320  20.888  0.00  0.00    +0.000 N 
ATOM     14  H   UNL     1       2.393   6.531  21.858  0.00  0.00    +0.000 HD
ATOM     15  H   UNL     1       1.399   5.650  20.819  0.00  0.00    +0.000 HD
ENDBRANCH   8  13
BRANCH   7  17
ATOM     16  N   UNL     1       0.170   9.003  22.693  0.00  0.00    +0.000 NA
ATOM     17  C   UNL     1       0.666   8.780  21.674  0.00  0.00    +0.000 C 
ENDBRANCH   7  17
ENDBRANCH   1   9
BRANCH   4  18
ATOM     18  O   UNL     1       5.721   3.900  16.136  0.00  0.00    +0.000 OA
BRANCH  18  19
ATOM     19  C   UNL     1       6.186   4.080  14.853  0.00  0.00    +0.000 A 
ATOM     20  C   UNL     1       5.436   3.483  13.837  0.00  0.00    +0.000 A 
ATOM     21  C   UNL     1       5.825   3.620  12.502  0.00  0.00    +0.000 A 
ATOM     22  C   UNL     1       6.966   4.354  12.181  0.00  0.00    +0.000 A 
ATOM     23  C   UNL     1       7.699   4.978  13.189  0.00  0.00    +0.000 A 
ATOM     24  C   UNL     1       7.294   4.864  14.520  0.00  0.00    +0.000 A 
ENDBRANCH  18  19
ENDBRANCH   4  18
TORSDOF 5
ENDMDL
MODEL 9
REMARK VINA RESULT:      -7.5      4.406      8.122
REMARK  Name = 
REMARK  5 active torsions:
REMARK  status: ('A' for Active; 'I' for Inactive)
REMARK    1  A    between atoms: C_2  and  C_3
REMARK    2  A    between atoms: C_4  and  N_5
REMARK    3  A    between atoms: N_6  and  C_7
REMARK    4  A    between atoms: C_10  and  O_11
REMARK    5  A    between atoms: O_11  and  C_12
REMARK                            x       y       z     vdW  Elec       q    Type
REMARK                         _______ _______ _______ _____ _____    ______ ____
ROOT
ATOM      1  C   UNL     1       2.812   7.146  18.322  0.00  0.00    +0.000 A 
ATOM      2  C   UNL     1       2.526   8.251  17.510  0.00  0.00    +0.000 A 
ATOM      3  C   UNL     1       1.785   9.326  18.015  0.00  0.00    +0.000 A 
ATOM      4  C   UNL     1       1.283   9.289  19.319  0.00  0.00    +0.000 A 
ATOM      5  C   UNL     1       1.576   8.196  20.134  0.00  0.00    +0.000 A 
ATOM      6  C   UNL     1       2.326   7.128  19.635  0.00  0.00    +0.000 A 
ENDROOT
BRANCH   1   9
ATOM      7  C   UNL     1       5.423   4.898  17.309  0.00  0.00    +0.000 C 
ATOM      8  C   UNL     1       5.010   6.137  17.625  0.00  0.00    +0.000 C 
ATOM      9  N   UNL     1       3.645   6.098  17.852  0.00  0.00    +0.000 N 
ATOM     10  C   UNL     1       3.141   4.801  17.658  0.00  0.00    +0.000 C 
ATOM     11  O   UNL     1       1.991   4.398  17.763  0.00  0.00    +0.000 OA
ATOM     12  C   UNL     1       4.312   3.902  17.339  0.00  0.00    +0.000 C 
BRANCH   8  13
ATOM     13  N   UNL     1       5.777   7.275  17.644  0.00  0.00    +0.000 N 
ATOM     14  H   UNL     1       6.707   7.169  17.242  0.00  0.00    +0.000 HD
ATOM     15  H   UNL     1       5.288   8.079  17.255  0.00  0.00    +0.000 HD
ENDBRANCH   8  13
BRANCH   7  17
ATOM     16  N   UNL     1       7.827   4.268  16.651  0.00  0.00    +0.000 NA
ATOM     17  C   UNL     1       6.746   4.539  16.952  0.00  0.00    +0.000 C 
ENDBRANCH   7  17
ENDBRANCH   1   9
BRANCH   4  18
ATOM     18  O   UNL     1       0.587  10.403  19.730  0.00  0.00    +0.000 OA
BRANCH  18  19
ATOM     19  C   UNL     1      -0.655  10.677  19.203  0.00  0.00    +0.000 A 
ATOM     20  C   UNL     1      -1.366  11.714  19.811  0.00  0.00    +0.000 A 
ATOM     21  C   UNL     1      -2.631  12.072  19.338  0.00  0.00    +0.000 A 
ATOM     22  C   UNL     1      -3.188  11.392  18.256  0.00  0.00    +0.000 A 
ATOM     23  C   UNL     1      -2.468  10.378  17.626  0.00  0.00    +0.000 A 
ATOM     24  C   UNL     1      -1.192  10.040  18.081  0.00  0.00    +0.000 A 
ENDBRANCH  18  19
ENDBRANCH   4  18
TORSDOF 5
ENDMDL
