MODEL 1
REMARK VINA RESULT:      -6.0      0.000      0.000
REMARK  Name = 
REMARK  8 active torsions:
REMARK  status: ('A' for Active; 'I' for Inactive)
REMARK    1  A    between atoms: C_1  and  C_2
REMARK    2  A    between atoms: C_2  and  C_3
REMARK    3  A    between atoms: C_2  and  N_5
REMARK    4  A    between atoms: C_9  and  O_11
REMARK    5  A    between atoms: O_11  and  C_12
REMARK    6  A    between atoms: C_12  and  C_13
REMARK    7  A    between atoms: C_12  and  C_14
REMARK    8  A    between atoms: C_12  and  C_15
REMARK                            x       y       z     vdW  Elec       q    Type
REMARK                         _______ _______ _______ _____ _____    ______ ____
ROOT
ATOM      1  N   UNL     1       5.293   5.676  16.598  0.00  0.00    +0.000 NA
ATOM      2  C   UNL     1       4.697   4.426  16.081  0.00  0.00    +0.000 C 
ATOM      3  C   UNL     1       4.744   3.243  17.060  0.00  0.00    +0.000 C 
ATOM      4  N   UNL     1       4.163   3.573  18.361  0.00  0.00    +0.000 N 
ATOM      5  C   UNL     1       3.493   2.569  19.036  0.00  0.00    +0.000 C 
ATOM      6  O   UNL     1       3.228   1.499  18.503  0.00  0.00    +0.000 OA
ATOM      7  C   UNL     1       4.592   4.840  18.950  0.00  0.00    +0.000 C 
ATOM      8  C   UNL     1       4.627   5.980  17.901  0.00  0.00    +0.000 C 
ENDROOT
BRANCH   1  10
ATOM      9  C   UNL     1       7.443   5.220  15.346  0.00  0.00    +0.000 C 
ATOM     10  C   UNL     1       6.786   5.649  16.661  0.00  0.00    +0.000 C 
BRANCH  10  11
ATOM     11  C   UNL     1       7.327   7.018  17.039  0.00  0.00    +0.000 C 
ATOM     12  N   UNL     1       7.775   8.154  17.354  0.00  0.00    +0.000 NA
ENDBRANCH  10  11
ENDBRANCH   1  10
BRANCH   5  13
ATOM     13  O   UNL     1       3.146   2.886  20.319  0.00  0.00    +0.000 OA
BRANCH  13  14
ATOM     14  C   UNL     1       1.771   3.294  20.586  0.00  0.00    +0.000 C 
ATOM     15  C   UNL     1       0.812   2.866  19.464  0.00  0.00    +0.000 C 
ATOM     16  C   UNL     1       1.337   2.559  21.868  0.00  0.00    +0.000 C 
ATOM     17  C   UNL     1       1.698   4.804  20.867  0.00  0.00    +0.000 C 
ENDBRANCH  13  14
ENDBRANCH   5  13
TORSDOF 4
ENDMDL
MODEL 2
REMARK VINA RESULT:      -6.0      2.533      6.219
REMARK  Name = 
REMARK  8 active torsions:
REMARK  status: ('A' for Active; 'I' for Inactive)
REMARK    1  A    between atoms: C_1  and  C_2
REMARK    2  A    between atoms: C_2  and  C_3
REMARK    3  A    between atoms: C_2  and  N_5
REMARK    4  A    between atoms: C_9  and  O_11
REMARK    5  A    between atoms: O_11  and  C_12
REMARK    6  A    between atoms: C_12  and  C_13
REMARK    7  A    between atoms: C_12  and  C_14
REMARK    8  A    between atoms: C_12  and  C_15
REMARK                            x       y       z     vdW  Elec       q    Type
REMARK                         _______ _______ _______ _____ _____    ______ ____
ROOT
ATOM      1  N   UNL     1       2.851   4.725  19.146  0.00  0.00    +0.000 NA
ATOM      2  C   UNL     1       4.145   5.362  19.472  0.00  0.00    +0.000 C 
ATOM      3  C   UNL     1       5.379   4.576  19.005  0.00  0.00    +0.000 C 
ATOM      4  N   UNL     1       5.328   4.252  17.580  0.00  0.00    +0.000 N 
ATOM      5  C   UNL     1       6.522   4.232  16.884  0.00  0.00    +0.000 C 
ATOM      6  O   UNL     1       7.564   4.643  17.379  0.00  0.00    +0.000 OA
ATOM      7  C   UNL     1       4.063   3.702  17.095  0.00  0.00    +0.000 C 
ATOM      8  C   UNL     1       2.844   4.463  17.674  0.00  0.00    +0.000 C 
ENDROOT
BRANCH   1  10
ATOM      9  C   UNL     1       2.209   3.876  21.440  0.00  0.00    +0.000 C 
ATOM     10  C   UNL     1       2.541   3.529  19.986  0.00  0.00    +0.000 C 
BRANCH  10  11
ATOM     11  C   UNL     1       1.368   2.758  19.401  0.00  0.00    +0.000 C 
ATOM     12  N   UNL     1       0.395   2.120  18.916  0.00  0.00    +0.000 NA
ENDBRANCH  10  11
ENDBRANCH   1  10
BRANCH   5  13
ATOM     13  O   UNL     1       6.428   3.737  15.614  0.00  0.00    +0.000 OA
BRANCH  13  14
ATOM     14  C   UNL     1       6.245   4.677  14.514  0.00  0.00    +0.000 C 
ATOM     15  C   UNL     1       7.575   5.031  13.828  0.00  0.00    +0.000 C 
ATOM     16  C   UNL     1       5.364   3.966  13.471  0.00  0.00    +0.000 C 
ATOM     17  C   UNL     1       5.488   5.928  14.989  0.00  0.00    +0.000 C 
ENDBRANCH  13  14
ENDBRANCH   5  13
TORSDOF 4
ENDMDL
MODEL 3
REMARK VINA RESULT:      -5.9      2.528      6.249
REMARK  Name = 
REMARK  8 active torsions:
REMARK  status: ('A' for Active; 'I' for Inactive)
REMARK    1  A    between atoms: C_1  and  C_2
REMARK    2  A    between atoms: C_2  and  C_3
REMARK    3  A    between atoms: C_2  and  N_5
REMARK    4  A    between atoms: C_9  and  O_11
REMARK    5  A    between atoms: O_11  and  C_12
REMARK    6  A    between atoms: C_12  and  C_13
REMARK    7  A    between atoms: C_12  and  C_14
REMARK    8  A    between atoms: C_12  and  C_15
REMARK                            x       y       z     vdW  Elec       q    Type
REMARK                         _______ _______ _______ _____ _____    ______ ____
ROOT
ATOM      1  N   UNL     1       2.839   4.717  19.112  0.00  0.00    +0.000 NA
ATOM      2  C   UNL     1       4.122   5.373  19.443  0.00  0.00    +0.000 C 
ATOM      3  C   UNL     1       5.370   4.595  18.997  0.00  0.00    +0.000 C 
ATOM      4  N   UNL     1       5.336   4.255  17.576  0.00  0.00    +0.000 N 
ATOM      5  C   UNL     1       6.537   4.240  16.891  0.00  0.00    +0.000 C 
ATOM      6  O   UNL     1       7.569   4.669  17.392  0.00  0.00    +0.000 OA
ATOM      7  C   UNL     1       4.082   3.686  17.084  0.00  0.00    +0.000 C 
ATOM      8  C   UNL     1       2.849   4.440  17.643  0.00  0.00    +0.000 C 
ENDROOT
BRANCH   1  10
ATOM      9  C   UNL     1       2.198   3.886  21.412  0.00  0.00    +0.000 C 
ATOM     10  C   UNL     1       2.533   3.527  19.962  0.00  0.00    +0.000 C 
BRANCH  10  11
ATOM     11  C   UNL     1       1.366   2.745  19.382  0.00  0.00    +0.000 C 
ATOM     12  N   UNL     1       0.397   2.096  18.903  0.00  0.00    +0.000 NA
ENDBRANCH  10  11
ENDBRANCH   1  10
BRANCH   5  13
ATOM     13  O   UNL     1       6.461   3.730  15.626  0.00  0.00    +0.000 OA
BRANCH  13  14
ATOM     14  C   UNL     1       6.166   4.642  14.526  0.00  0.00    +0.000 C 
ATOM     15  C   UNL     1       5.512   5.945  15.014  0.00  0.00    +0.000 C 
ATOM     16  C   UNL     1       7.518   5.015  13.892  0.00  0.00    +0.000 C 
ATOM     17  C   UNL     1       5.324   3.939  13.449  0.00  0.00    +0.000 C 
ENDBRANCH  13  14
ENDBRANCH   5  13
TORSDOF 4
ENDMDL
MODEL 4
REMARK VINA RESULT:      -5.9      2.490      6.093
REMARK  Name = 
REMARK  8 active torsions:
REMARK  status: ('A' for Active; 'I' for Inactive)
REMARK    1  A    between atoms: C_1  and  C_2
REMARK    2  A    between atoms: C_2  and  C_3
REMARK    3  A    between atoms: C_2  and  N_5
REMARK    4  A    between atoms: C_9  and  O_11
REMARK    5  A    between atoms: O_11  and  C_12
REMARK    6  A    between atoms: C_12  and  C_13
REMARK    7  A    between atoms: C_12  and  C_14
REMARK    8  A    between atoms: C_12  and  C_15
REMARK                            x       y       z     vdW  Elec       q    Type
REMARK                         _______ _______ _______ _____ _____    ______ ____
ROOT
ATOM      1  N   UNL     1       2.909   2.547  18.906  0.00  0.00    +0.000 NA
ATOM      2  C   UNL     1       3.001   2.904  17.475  0.00  0.00    +0.000 C 
ATOM      3  C   UNL     1       3.122   4.411  17.199  0.00  0.00    +0.000 C 
ATOM      4  N   UNL     1       4.222   5.026  17.939  0.00  0.00    +0.000 N 
ATOM      5  C   UNL     1       4.902   6.066  17.331  0.00  0.00    +0.000 C 
ATOM      6  O   UNL     1       4.723   6.351  16.153  0.00  0.00    +0.000 OA
ATOM      7  C   UNL     1       4.312   4.680  19.356  0.00  0.00    +0.000 C 
ATOM      8  C   UNL     1       4.082   3.166  19.595  0.00  0.00    +0.000 C 
ENDROOT
BRANCH   1  10
ATOM      9  C   UNL     1       0.425   2.075  18.933  0.00  0.00    +0.000 C 
ATOM     10  C   UNL     1       1.588   2.875  19.524  0.00  0.00    +0.000 C 
BRANCH  10  11
ATOM     11  C   UNL     1       1.626   2.624  21.023  0.00  0.00    +0.000 C 
ATOM     12  N   UNL     1       1.658   2.415  22.266  0.00  0.00    +0.000 NA
ENDBRANCH  10  11
ENDBRANCH   1  10
BRANCH   5  13
ATOM     13  O   UNL     1       5.782   6.719  18.146  0.00  0.00    +0.000 OA
BRANCH  13  14
ATOM     14  C   UNL     1       7.209   6.475  17.964  0.00  0.00    +0.000 C 
ATOM     15  C   UNL     1       7.855   5.862  19.218  0.00  0.00    +0.000 C 
ATOM     16  C   UNL     1       7.336   5.442  16.830  0.00  0.00    +0.000 C 
ATOM     17  C   UNL     1       7.926   7.757  17.511  0.00  0.00    +0.000 C 
ENDBRANCH  13  14
ENDBRANCH   5  13
TORSDOF 4
ENDMDL
MODEL 5
REMARK VINA RESULT:      -5.8      2.337      6.041
REMARK  Name = 
REMARK  8 active torsions:
REMARK  status: ('A' for Active; 'I' for Inactive)
REMARK    1  A    between atoms: C_1  and  C_2
REMARK    2  A    between atoms: C_2  and  C_3
REMARK    3  A    between atoms: C_2  and  N_5
REMARK    4  A    between atoms: C_9  and  O_11
REMARK    5  A    between atoms: O_11  and  C_12
REMARK    6  A    between atoms: C_12  and  C_13
REMARK    7  A    between atoms: C_12  and  C_14
REMARK    8  A    between atoms: C_12  and  C_15
REMARK                            x       y       z     vdW  Elec       q    Type
REMARK                         _______ _______ _______ _____ _____    ______ ____
ROOT
ATOM      1  N   UNL     1       1.333   4.527  19.202  0.00  0.00    +0.000 NA
ATOM      2  C   UNL     1       2.555   5.020  19.874  0.00  0.00    +0.000 C 
ATOM      3  C   UNL     1       3.823   4.209  19.567  0.00  0.00    +0.000 C 
ATOM      4  N   UNL     1       4.063   4.072  18.131  0.00  0.00    +0.000 N 
ATOM      5  C   UNL     1       5.377   4.050  17.700  0.00  0.00    +0.000 C 
ATOM      6  O   UNL     1       6.306   4.316  18.452  0.00  0.00    +0.000 OA
ATOM      7  C   UNL     1       2.908   3.683  17.324  0.00  0.00    +0.000 C 
ATOM      8  C   UNL     1       1.630   4.454  17.739  0.00  0.00    +0.000 C 
ENDROOT
BRANCH   1  10
ATOM      9  C   UNL     1       1.019   2.037  18.895  0.00  0.00    +0.000 C 
ATOM     10  C   UNL     1       0.794   3.262  19.786  0.00  0.00    +0.000 C 
BRANCH  10  11
ATOM     11  C   UNL     1       1.429   2.989  21.140  0.00  0.00    +0.000 C 
ATOM     12  N   UNL     1       1.955   2.763  22.264  0.00  0.00    +0.000 NA
ENDBRANCH  10  11
ENDBRANCH   1  10
BRANCH   5  13
ATOM     13  O   UNL     1       5.534   3.727  16.382  0.00  0.00    +0.000 OA
BRANCH  13  14
ATOM     14  C   UNL     1       5.968   4.770  15.459  0.00  0.00    +0.000 C 
ATOM     15  C   UNL     1       7.493   4.961  15.477  0.00  0.00    +0.000 C 
ATOM     16  C   UNL     1       5.581   4.294  14.047  0.00  0.00    +0.000 C 
ATOM     17  C   UNL     1       5.216   6.083  15.731  0.00  0.00    +0.000 C 
ENDBRANCH  13  14
ENDBRANCH   5  13
TORSDOF 4
ENDMDL
MODEL 6
REMARK VINA RESULT:      -5.7      2.329      6.038
REMARK  Name = 
REMARK  8 active torsions:
REMARK  status: ('A' for Active; 'I' for Inactive)
REMARK    1  A    between atoms: C_1  and  C_2
REMARK    2  A    between atoms: C_2  and  C_3
REMARK    3  A    between atoms: C_2  and  N_5
REMARK    4  A    between atoms: C_9  and  O_11
REMARK    5  A    between atoms: O_11  and  C_12
REMARK    6  A    between atoms: C_12  and  C_13
REMARK    7  A    between atoms: C_12  and  C_14
REMARK    8  A    between atoms: C_12  and  C_15
REMARK                            x       y       z     vdW  Elec       q    Type
REMARK                         _______ _______ _______ _____ _____    ______ ____
ROOT
ATOM      1  N   UNL     1       1.326   4.511  19.171  0.00  0.00    +0.000 NA
ATOM      2  C   UNL     1       2.533   5.022  19.855  0.00  0.00    +0.000 C 
ATOM      3  C   UNL     1       3.814   4.220  19.576  0.00  0.00    +0.000 C 
ATOM      4  N   UNL     1       4.076   4.070  18.146  0.00  0.00    +0.000 N 
ATOM      5  C   UNL     1       5.397   4.056  17.734  0.00  0.00    +0.000 C 
ATOM      6  O   UNL     1       6.312   4.339  18.497  0.00  0.00    +0.000 OA
ATOM      7  C   UNL     1       2.937   3.661  17.326  0.00  0.00    +0.000 C 
ATOM      8  C   UNL     1       1.645   4.425  17.713  0.00  0.00    +0.000 C 
ENDROOT
BRANCH   1  10
ATOM      9  C   UNL     1       1.047   2.013  18.889  0.00  0.00    +0.000 C 
ATOM     10  C   UNL     1       0.791   3.246  19.760  0.00  0.00    +0.000 C 
BRANCH  10  11
ATOM     11  C   UNL     1       1.403   2.997  21.129  0.00  0.00    +0.000 C 
ATOM     12  N   UNL     1       1.912   2.790  22.264  0.00  0.00    +0.000 NA
ENDBRANCH  10  11
ENDBRANCH   1  10
BRANCH   5  13
ATOM     13  O   UNL     1       5.576   3.720  16.423  0.00  0.00    +0.000 OA
BRANCH  13  14
ATOM     14  C   UNL     1       5.883   4.782  15.470  0.00  0.00    +0.000 C 
ATOM     15  C   UNL     1       5.283   6.132  15.895  0.00  0.00    +0.000 C 
ATOM     16  C   UNL     1       7.414   4.939  15.465  0.00  0.00    +0.000 C 
ATOM     17  C   UNL     1       5.451   4.378  14.050  0.00  0.00    +0.000 C 
ENDBRANCH  13  14
ENDBRANCH   5  13
TORSDOF 4
ENDMDL
MODEL 7
REMARK VINA RESULT:      -5.6      1.537      1.967
REMARK  Name = 
REMARK  8 active torsions:
REMARK  status: ('A' for Active; 'I' for Inactive)
REMARK    1  A    between atoms: C_1  and  C_2
REMARK    2  A    between atoms: C_2  and  C_3
REMARK    3  A    between atoms: C_2  and  N_5
REMARK    4  A    between atoms: C_9  and  O_11
REMARK    5  A    between atoms: O_11  and  C_12
REMARK    6  A    between atoms: C_12  and  C_13
REMARK    7  A    between atoms: C_12  and  C_14
REMARK    8  A    between atoms: C_12  and  C_15
REMARK                            x       y       z     vdW  Elec       q    Type
REMARK                         _______ _______ _______ _____ _____    ______ ____
ROOT
ATOM      1  N   UNL     1       6.038   6.714  16.741  0.00  0.00    +0.000 NA
ATOM      2  C   UNL     1       5.830   5.458  15.988  0.00  0.00    +0.000 C 
ATOM      3  C   UNL     1       5.657   4.209  16.866  0.00  0.00    +0.000 C 
ATOM      4  N   UNL     1       4.603   4.371  17.865  0.00  0.00    +0.000 N 
ATOM      5  C   UNL     1       3.858   3.255  18.199  0.00  0.00    +0.000 C 
ATOM      6  O   UNL     1       3.941   2.212  17.563  0.00  0.00    +0.000 OA
ATOM      7  C   UNL     1       4.627   5.622  18.622  0.00  0.00    +0.000 C 
ATOM      8  C   UNL     1       4.907   6.842  17.709  0.00  0.00    +0.000 C 
ENDROOT
BRANCH   1  10
ATOM      9  C   UNL     1       7.830   8.274  17.605  0.00  0.00    +0.000 C 
ATOM     10  C   UNL     1       7.394   6.827  17.359  0.00  0.00    +0.000 C 
BRANCH  10  11
ATOM     11  C   UNL     1       7.439   6.084  18.684  0.00  0.00    +0.000 C 
ATOM     12  N   UNL     1       7.477   5.466  19.782  0.00  0.00    +0.000 NA
ENDBRANCH  10  11
ENDBRANCH   1  10
BRANCH   5  13
ATOM     13  O   UNL     1       3.028   3.429  19.269  0.00  0.00    +0.000 OA
BRANCH  13  14
ATOM     14  C   UNL     1       1.603   3.624  19.019  0.00  0.00    +0.000 C 
ATOM     15  C   UNL     1       1.346   4.419  17.729  0.00  0.00    +0.000 C 
ATOM     16  C   UNL     1       0.996   2.223  18.827  0.00  0.00    +0.000 C 
ATOM     17  C   UNL     1       0.921   4.265  20.240  0.00  0.00    +0.000 C 
ENDBRANCH  13  14
ENDBRANCH   5  13
TORSDOF 4
ENDMDL
MODEL 8
REMARK VINA RESULT:      -5.6      2.263      6.061
REMARK  Name = 
REMARK  8 active torsions:
REMARK  status: ('A' for Active; 'I' for Inactive)
REMARK    1  A    between atoms: C_1  and  C_2
REMARK    2  A    between atoms: C_2  and  C_3
REMARK    3  A    between atoms: C_2  and  N_5
REMARK    4  A    between atoms: C_9  and  O_11
REMARK    5  A    between atoms: O_11  and  C_12
REMARK    6  A    between atoms: C_12  and  C_13
REMARK    7  A    between atoms: C_12  and  C_14
REMARK    8  A    between atoms: C_12  and  C_15
REMARK                            x       y       z     vdW  Elec       q    Type
REMARK                         _______ _______ _______ _____ _____    ______ ____
ROOT
ATOM      1  N   UNL     1       1.289   4.342  19.150  0.00  0.00    +0.000 NA
ATOM      2  C   UNL     1       2.200   5.037  20.084  0.00  0.00    +0.000 C 
ATOM      3  C   UNL     1       3.639   4.501  20.091  0.00  0.00    +0.000 C 
ATOM      4  N   UNL     1       4.228   4.467  18.753  0.00  0.00    +0.000 N 
ATOM      5  C   UNL     1       5.583   4.717  18.642  0.00  0.00    +0.000 C 
ATOM      6  O   UNL     1       6.241   5.131  19.588  0.00  0.00    +0.000 OA
ATOM      7  C   UNL     1       3.391   3.892  17.701  0.00  0.00    +0.000 C 
ATOM      8  C   UNL     1       1.925   4.384  17.798  0.00  0.00    +0.000 C 
ENDROOT
BRANCH   1  10
ATOM      9  C   UNL     1       1.520   1.853  18.772  0.00  0.00    +0.000 C 
ATOM     10  C   UNL     1       0.891   2.975  19.603  0.00  0.00    +0.000 C 
BRANCH  10  11
ATOM     11  C   UNL     1       1.278   2.764  21.058  0.00  0.00    +0.000 C 
ATOM     12  N   UNL     1       1.597   2.587  22.265  0.00  0.00    +0.000 NA
ENDBRANCH  10  11
ENDBRANCH   1  10
BRANCH   5  13
ATOM     13  O   UNL     1       6.102   4.481  17.401  0.00  0.00    +0.000 OA
BRANCH  13  14
ATOM     14  C   UNL     1       6.429   5.625  16.555  0.00  0.00    +0.000 C 
ATOM     15  C   UNL     1       7.432   6.575  17.231  0.00  0.00    +0.000 C 
ATOM     16  C   UNL     1       7.108   5.058  15.296  0.00  0.00    +0.000 C 
ATOM     17  C   UNL     1       5.151   6.353  16.109  0.00  0.00    +0.000 C 
ENDBRANCH  13  14
ENDBRANCH   5  13
TORSDOF 4
ENDMDL
MODEL 9
REMARK VINA RESULT:      -5.5      1.591      2.148
REMARK  Name = 
REMARK  8 active torsions:
REMARK  status: ('A' for Active; 'I' for Inactive)
REMARK    1  A    between atoms: C_1  and  C_2
REMARK    2  A    between atoms: C_2  and  C_3
REMARK    3  A    between atoms: C_2  and  N_5
REMARK    4  A    between atoms: C_9  and  O_11
REMARK    5  A    between atoms: O_11  and  C_12
REMARK    6  A    between atoms: C_12  and  C_13
REMARK    7  A    between atoms: C_12  and  C_14
REMARK    8  A    between atoms: C_12  and  C_15
REMARK                            x       y       z     vdW  Elec       q    Type
REMARK                         _______ _______ _______ _____ _____    ______ ____
ROOT
ATOM      1  N   UNL     1       6.071   6.556  16.319  0.00  0.00    +0.000 NA
ATOM      2  C   UNL     1       5.758   5.250  15.701  0.00  0.00    +0.000 C 
ATOM      3  C   UNL     1       5.119   4.229  16.654  0.00  0.00    +0.000 C 
ATOM      4  N   UNL     1       3.934   4.759  17.326  0.00  0.00    +0.000 N 
ATOM      5  C   UNL     1       2.902   3.879  17.597  0.00  0.00    +0.000 C 
ATOM      6  O   UNL     1       2.887   2.744  17.138  0.00  0.00    +0.000 OA
ATOM      7  C   UNL     1       4.071   6.096  17.903  0.00  0.00    +0.000 C 
ATOM      8  C   UNL     1       4.812   7.063  16.946  0.00  0.00    +0.000 C 
ENDROOT
BRANCH   1  10
ATOM      9  C   UNL     1       7.793   7.908  17.585  0.00  0.00    +0.000 C 
ATOM     10  C   UNL     1       7.247   6.519  17.240  0.00  0.00    +0.000 C 
BRANCH  10  11
ATOM     11  C   UNL     1       6.884   5.814  18.537  0.00  0.00    +0.000 C 
ATOM     12  N   UNL     1       6.584   5.231  19.614  0.00  0.00    +0.000 NA
ENDBRANCH  10  11
ENDBRANCH   1  10
BRANCH   5  13
ATOM     13  O   UNL     1       1.917   4.391  18.393  0.00  0.00    +0.000 OA
BRANCH  13  14
ATOM     14  C   UNL     1       1.913   4.037  19.808  0.00  0.00    +0.000 C 
ATOM     15  C   UNL     1       1.690   5.262  20.710  0.00  0.00    +0.000 C 
ATOM     16  C   UNL     1       0.721   3.087  20.019  0.00  0.00    +0.000 C 
ATOM     17  C   UNL     1       3.193   3.270  20.179  0.00  0.00    +0.000 C 
ENDBRANCH  13  14
ENDBRANCH   5  13
TORSDOF 4
ENDMDL
