MODEL 1
REMARK VINA RESULT:      -4.6      0.000      0.000
REMARK  Name = 
REMARK  6 active torsions:
REMARK  status: ('A' for Active; 'I' for Inactive)
REMARK    1  A    between atoms: N_1  and  C_2
REMARK    2  A    between atoms: C_2  and  C_3
REMARK    3  A    between atoms: C_3  and  C_4
REMARK    4  A    between atoms: C_4  and  C_5
REMARK    5  A    between atoms: C_5  and  N_6
REMARK    6  A    between atoms: N_9  and  O_10
REMARK                            x       y       z     vdW  Elec       q    Type
REMARK                         _______ _______ _______ _____ _____    ______ ____
ROOT
ATOM      1  N   UNL     1       7.253   6.800  17.061  0.00  0.00    +0.000 NA
ATOM      2  C   UNL     1       7.774   6.533  18.205  0.00  0.00    +0.000 C 
ATOM      3  N   UNL     1       8.410   7.546  18.867  0.00  0.00    +0.000 N 
ATOM      4  N   UNL     1       7.796   5.341  18.890  0.00  0.00    +0.000 N 
ATOM      5  H   UNL     1       8.466   8.349  18.245  0.00  0.00    +0.000 HD
ATOM      6  H   UNL     1       9.344   7.277  19.154  0.00  0.00    +0.000 HD
ATOM      7  H   UNL     1       7.118   4.647  18.581  0.00  0.00    +0.000 HD
ENDROOT
BRANCH   4   8
ATOM      8  O   UNL     1       7.877   5.436  20.287  0.00  0.00    +0.000 OA
ATOM      9  H   UNL     1       7.917   4.501  20.578  0.00  0.00    +0.000 HD
ENDBRANCH   4   8
BRANCH   1  10
ATOM     10  C   UNL     1       6.588   5.698  16.368  0.00  0.00    +0.000 C 
BRANCH  10  11
ATOM     11  C   UNL     1       5.073   5.812  16.558  0.00  0.00    +0.000 C 
BRANCH  11  12
ATOM     12  C   UNL     1       4.497   4.474  17.028  0.00  0.00    +0.000 C 
BRANCH  12  13
ATOM     13  C   UNL     1       4.375   4.407  18.547  0.00  0.00    +0.000 C 
BRANCH  13  14
ATOM     14  N   UNL     1       5.458   3.598  19.096  0.00  0.00    +0.000 NA
ATOM     15  H   UNL     1       5.213   3.304  20.042  0.00  0.00    +0.000 HD
ATOM     16  H   UNL     1       6.301   4.162  19.180  0.00  0.00    +0.000 HD
ENDBRANCH  13  14
ENDBRANCH  12  13
ENDBRANCH  11  12
ENDBRANCH  10  11
ENDBRANCH   1  10
TORSDOF 6
ENDMDL
MODEL 2
REMARK VINA RESULT:      -4.6      3.288      4.455
REMARK  Name = 
REMARK  6 active torsions:
REMARK  status: ('A' for Active; 'I' for Inactive)
REMARK    1  A    between atoms: N_1  and  C_2
REMARK    2  A    between atoms: C_2  and  C_3
REMARK    3  A    between atoms: C_3  and  C_4
REMARK    4  A    between atoms: C_4  and  C_5
REMARK    5  A    between atoms: C_5  and  N_6
REMARK    6  A    between atoms: N_9  and  O_10
REMARK                            x       y       z     vdW  Elec       q    Type
REMARK                         _______ _______ _______ _____ _____    ______ ____
ROOT
ATOM      1  N   UNL     1       3.894   4.572  18.550  0.00  0.00    +0.000 NA
ATOM      2  C   UNL     1       4.671   3.603  18.875  0.00  0.00    +0.000 C 
ATOM      3  N   UNL     1       6.020   3.809  18.780  0.00  0.00    +0.000 N 
ATOM      4  N   UNL     1       4.346   2.342  19.315  0.00  0.00    +0.000 N 
ATOM      5  H   UNL     1       6.175   4.706  18.327  0.00  0.00    +0.000 HD
ATOM      6  H   UNL     1       6.473   3.079  18.243  0.00  0.00    +0.000 HD
ATOM      7  H   UNL     1       3.394   2.231  19.659  0.00  0.00    +0.000 HD
ENDROOT
BRANCH   4   8
ATOM      8  O   UNL     1       5.296   1.712  20.133  0.00  0.00    +0.000 OA
ATOM      9  H   UNL     1       5.832   1.188  19.502  0.00  0.00    +0.000 HD
ENDBRANCH   4   8
BRANCH   1  10
ATOM     10  C   UNL     1       2.457   4.324  18.649  0.00  0.00    +0.000 C 
BRANCH  10  11
ATOM     11  C   UNL     1       1.843   5.270  19.686  0.00  0.00    +0.000 C 
BRANCH  11  12
ATOM     12  C   UNL     1       2.092   4.737  21.100  0.00  0.00    +0.000 C 
BRANCH  12  13
ATOM     13  C   UNL     1       1.630   3.292  21.255  0.00  0.00    +0.000 C 
BRANCH  13  14
ATOM     14  N   UNL     1       2.671   2.506  21.906  0.00  0.00    +0.000 NA
ATOM     15  H   UNL     1       3.503   3.083  22.028  0.00  0.00    +0.000 HD
ATOM     16  H   UNL     1       2.946   1.731  21.303  0.00  0.00    +0.000 HD
ENDBRANCH  13  14
ENDBRANCH  12  13
ENDBRANCH  11  12
ENDBRANCH  10  11
ENDBRANCH   1  10
TORSDOF 6
ENDMDL
MODEL 3
REMARK VINA RESULT:      -4.5      3.783      5.003
REMARK  Name = 
REMARK  6 active torsions:
REMARK  status: ('A' for Active; 'I' for Inactive)
REMARK    1  A    between atoms: N_1  and  C_2
REMARK    2  A    between atoms: C_2  and  C_3
REMARK    3  A    between atoms: C_3  and  C_4
REMARK    4  A    between atoms: C_4  and  C_5
REMARK    5  A    between atoms: C_5  and  N_6
REMARK    6  A    between atoms: N_9  and  O_10
REMARK                            x       y       z     vdW  Elec       q    Type
REMARK                         _______ _______ _______ _____ _____    ______ ____
ROOT
ATOM      1  N   UNL     1       2.713   2.799  17.460  0.00  0.00    +0.000 NA
ATOM      2  C   UNL     1       3.933   2.934  17.840  0.00  0.00    +0.000 C 
ATOM      3  N   UNL     1       4.860   3.275  16.895  0.00  0.00    +0.000 N 
ATOM      4  N   UNL     1       4.471   2.778  19.095  0.00  0.00    +0.000 N 
ATOM      5  H   UNL     1       4.414   3.242  15.982  0.00  0.00    +0.000 HD
ATOM      6  H   UNL     1       5.653   2.645  16.904  0.00  0.00    +0.000 HD
ATOM      7  H   UNL     1       3.803   2.797  19.863  0.00  0.00    +0.000 HD
ENDROOT
BRANCH   4   8
ATOM      8  O   UNL     1       5.629   3.523  19.365  0.00  0.00    +0.000 OA
ATOM      9  H   UNL     1       5.297   4.441  19.450  0.00  0.00    +0.000 HD
ENDBRANCH   4   8
BRANCH   1  10
ATOM     10  C   UNL     1       1.742   2.423  18.486  0.00  0.00    +0.000 C 
BRANCH  10  11
ATOM     11  C   UNL     1       0.996   3.671  18.967  0.00  0.00    +0.000 C 
BRANCH  11  12
ATOM     12  C   UNL     1       1.230   3.882  20.465  0.00  0.00    +0.000 C 
BRANCH  12  13
ATOM     13  C   UNL     1       1.473   2.565  21.196  0.00  0.00    +0.000 C 
BRANCH  13  14
ATOM     14  N   UNL     1       2.734   2.628  21.925  0.00  0.00    +0.000 NA
ATOM     15  H   UNL     1       3.007   1.687  22.210  0.00  0.00    +0.000 HD
ATOM     16  H   UNL     1       2.610   3.163  22.784  0.00  0.00    +0.000 HD
ENDBRANCH  13  14
ENDBRANCH  12  13
ENDBRANCH  11  12
ENDBRANCH  10  11
ENDBRANCH   1  10
TORSDOF 6
ENDMDL
MODEL 4
REMARK VINA RESULT:      -4.5      2.626      4.750
REMARK  Name = 
REMARK  6 active torsions:
REMARK  status: ('A' for Active; 'I' for Inactive)
REMARK    1  A    between atoms: N_1  and  C_2
REMARK    2  A    between atoms: C_2  and  C_3
REMARK    3  A    between atoms: C_3  and  C_4
REMARK    4  A    between atoms: C_4  and  C_5
REMARK    5  A    between atoms: C_5  and  N_6
REMARK    6  A    between atoms: N_9  and  O_10
REMARK                            x       y       z     vdW  Elec       q    Type
REMARK                         _______ _______ _______ _____ _____    ______ ____
ROOT
ATOM      1  N   UNL     1       2.782   2.717  18.004  0.00  0.00    +0.000 NA
ATOM      2  C   UNL     1       3.546   2.009  18.755  0.00  0.00    +0.000 C 
ATOM      3  N   UNL     1       3.925   0.777  18.298  0.00  0.00    +0.000 N 
ATOM      4  N   UNL     1       4.057   2.306  19.996  0.00  0.00    +0.000 N 
ATOM      5  H   UNL     1       3.406   0.579  17.446  0.00  0.00    +0.000 HD
ATOM      6  H   UNL     1       3.740   0.051  18.981  0.00  0.00    +0.000 HD
ATOM      7  H   UNL     1       4.035   3.290  20.254  0.00  0.00    +0.000 HD
ENDROOT
BRANCH   4   8
ATOM      8  O   UNL     1       5.271   1.686  20.327  0.00  0.00    +0.000 OA
ATOM      9  H   UNL     1       4.994   0.885  20.819  0.00  0.00    +0.000 HD
ENDBRANCH   4   8
BRANCH   1  10
ATOM     10  C   UNL     1       2.382   4.025  18.519  0.00  0.00    +0.000 C 
BRANCH  10  11
ATOM     11  C   UNL     1       3.089   5.127  17.726  0.00  0.00    +0.000 C 
BRANCH  11  12
ATOM     12  C   UNL     1       4.349   5.586  18.465  0.00  0.00    +0.000 C 
BRANCH  12  13
ATOM     13  C   UNL     1       5.621   5.073  17.797  0.00  0.00    +0.000 C 
BRANCH  13  14
ATOM     14  N   UNL     1       6.295   4.125  18.676  0.00  0.00    +0.000 NA
ATOM     15  H   UNL     1       5.654   3.367  18.910  0.00  0.00    +0.000 HD
ATOM     16  H   UNL     1       6.534   4.581  19.555  0.00  0.00    +0.000 HD
ENDBRANCH  13  14
ENDBRANCH  12  13
ENDBRANCH  11  12
ENDBRANCH  10  11
ENDBRANCH   1  10
TORSDOF 6
ENDMDL
MODEL 5
REMARK VINA RESULT:      -4.4      3.535      4.793
REMARK  Name = 
REMARK  6 active torsions:
REMARK  status: ('A' for Active; 'I' for Inactive)
REMARK    1  A    between atoms: N_1  and  C_2
REMARK    2  A    between atoms: C_2  and  C_3
REMARK    3  A    between atoms: C_3  and  C_4
REMARK    4  A    between atoms: C_4  and  C_5
REMARK    5  A    between atoms: C_5  and  N_6
REMARK    6  A    between atoms: N_9  and  O_10
REMARK                            x       y       z     vdW  Elec       q    Type
REMARK                         _______ _______ _______ _____ _____    ______ ____
ROOT
ATOM      1  N   UNL     1       7.404   5.159  15.347  0.00  0.00    +0.000 NA
ATOM      2  C   UNL     1       7.093   4.737  14.174  0.00  0.00    +0.000 C 
ATOM      3  N   UNL     1       7.656   5.369  13.100  0.00  0.00    +0.000 N 
ATOM      4  N   UNL     1       6.247   3.713  13.818  0.00  0.00    +0.000 N 
ATOM      5  H   UNL     1       8.157   6.187  13.437  0.00  0.00    +0.000 HD
ATOM      6  H   UNL     1       6.955   5.657  12.427  0.00  0.00    +0.000 HD
ATOM      7  H   UNL     1       6.025   3.052  14.559  0.00  0.00    +0.000 HD
ENDROOT
BRANCH   4   8
ATOM      8  O   UNL     1       6.521   3.086  12.594  0.00  0.00    +0.000 OA
ATOM      9  H   UNL     1       5.655   2.716  12.326  0.00  0.00    +0.000 HD
ENDBRANCH   4   8
BRANCH   1  10
ATOM     10  C   UNL     1       6.781   4.474  16.478  0.00  0.00    +0.000 C 
BRANCH  10  11
ATOM     11  C   UNL     1       7.641   4.666  17.731  0.00  0.00    +0.000 C 
BRANCH  11  12
ATOM     12  C   UNL     1       7.120   5.846  18.555  0.00  0.00    +0.000 C 
BRANCH  12  13
ATOM     13  C   UNL     1       7.992   7.087  18.390  0.00  0.00    +0.000 C 
BRANCH  13  14
ATOM     14  N   UNL     1       7.622   7.794  17.170  0.00  0.00    +0.000 NA
ATOM     15  H   UNL     1       8.203   8.627  17.074  0.00  0.00    +0.000 HD
ATOM     16  H   UNL     1       6.660   8.122  17.239  0.00  0.00    +0.000 HD
ENDBRANCH  13  14
ENDBRANCH  12  13
ENDBRANCH  11  12
ENDBRANCH  10  11
ENDBRANCH   1  10
TORSDOF 6
ENDMDL
MODEL 6
REMARK VINA RESULT:      -4.4      2.009      2.342
REMARK  Name = 
REMARK  6 active torsions:
REMARK  status: ('A' for Active; 'I' for Inactive)
REMARK    1  A    between atoms: N_1  and  C_2
REMARK    2  A    between atoms: C_2  and  C_3
REMARK    3  A    between atoms: C_3  and  C_4
REMARK    4  A    between atoms: C_4  and  C_5
REMARK    5  A    between atoms: C_5  and  N_6
REMARK    6  A    between atoms: N_9  and  O_10
REMARK                            x       y       z     vdW  Elec       q    Type
REMARK                         _______ _______ _______ _____ _____    ______ ____
ROOT
ATOM      1  N   UNL     1       5.658   6.130  16.614  0.00  0.00    +0.000 NA
ATOM      2  C   UNL     1       6.636   5.298  16.619  0.00  0.00    +0.000 C 
ATOM      3  N   UNL     1       7.478   5.297  15.542  0.00  0.00    +0.000 N 
ATOM      4  N   UNL     1       6.979   4.370  17.574  0.00  0.00    +0.000 N 
ATOM      5  H   UNL     1       7.087   5.909  14.830  0.00  0.00    +0.000 HD
ATOM      6  H   UNL     1       7.594   4.366  15.158  0.00  0.00    +0.000 HD
ATOM      7  H   UNL     1       6.564   4.514  18.493  0.00  0.00    +0.000 HD
ENDROOT
BRANCH   4   8
ATOM      8  O   UNL     1       8.337   4.027  17.640  0.00  0.00    +0.000 OA
ATOM      9  H   UNL     1       8.360   3.111  17.295  0.00  0.00    +0.000 HD
ENDBRANCH   4   8
BRANCH   1  10
ATOM     10  C   UNL     1       4.765   6.104  17.771  0.00  0.00    +0.000 C 
BRANCH  10  11
ATOM     11  C   UNL     1       3.594   5.157  17.495  0.00  0.00    +0.000 C 
BRANCH  11  12
ATOM     12  C   UNL     1       3.257   4.351  18.752  0.00  0.00    +0.000 C 
BRANCH  12  13
ATOM     13  C   UNL     1       3.824   2.936  18.691  0.00  0.00    +0.000 C 
BRANCH  13  14
ATOM     14  N   UNL     1       5.063   2.865  19.456  0.00  0.00    +0.000 NA
ATOM     15  H   UNL     1       5.615   2.071  19.132  0.00  0.00    +0.000 HD
ATOM     16  H   UNL     1       4.853   2.685  20.437  0.00  0.00    +0.000 HD
ENDBRANCH  13  14
ENDBRANCH  12  13
ENDBRANCH  11  12
ENDBRANCH  10  11
ENDBRANCH   1  10
TORSDOF 6
ENDMDL
MODEL 7
REMARK VINA RESULT:      -4.4      3.507      4.824
REMARK  Name = 
REMARK  6 active torsions:
REMARK  status: ('A' for Active; 'I' for Inactive)
REMARK    1  A    between atoms: N_1  and  C_2
REMARK    2  A    between atoms: C_2  and  C_3
REMARK    3  A    between atoms: C_3  and  C_4
REMARK    4  A    between atoms: C_4  and  C_5
REMARK    5  A    between atoms: C_5  and  N_6
REMARK    6  A    between atoms: N_9  and  O_10
REMARK                            x       y       z     vdW  Elec       q    Type
REMARK                         _______ _______ _______ _____ _____    ______ ____
ROOT
ATOM      1  N   UNL     1       2.880   2.748  17.688  0.00  0.00    +0.000 NA
ATOM      2  C   UNL     1       4.064   3.179  17.937  0.00  0.00    +0.000 C 
ATOM      3  N   UNL     1       4.713   3.865  16.948  0.00  0.00    +0.000 N 
ATOM      4  N   UNL     1       4.810   3.050  19.085  0.00  0.00    +0.000 N 
ATOM      5  H   UNL     1       4.157   3.804  16.099  0.00  0.00    +0.000 HD
ATOM      6  H   UNL     1       5.637   3.485  16.774  0.00  0.00    +0.000 HD
ATOM      7  H   UNL     1       4.286   2.798  19.921  0.00  0.00    +0.000 HD
ENDROOT
BRANCH   4   8
ATOM      8  O   UNL     1       5.757   4.056  19.320  0.00  0.00    +0.000 OA
ATOM      9  H   UNL     1       5.686   4.219  20.284  0.00  0.00    +0.000 HD
ENDBRANCH   4   8
BRANCH   1  10
ATOM     10  C   UNL     1       2.212   2.008  18.757  0.00  0.00    +0.000 C 
BRANCH  10  11
ATOM     11  C   UNL     1       0.967   2.776  19.211  0.00  0.00    +0.000 C 
BRANCH  11  12
ATOM     12  C   UNL     1       1.203   3.400  20.589  0.00  0.00    +0.000 C 
BRANCH  12  13
ATOM     13  C   UNL     1       1.510   4.891  20.495  0.00  0.00    +0.000 C 
BRANCH  13  14
ATOM     14  N   UNL     1       2.949   5.108  20.584  0.00  0.00    +0.000 NA
ATOM     15  H   UNL     1       3.256   4.948  21.544  0.00  0.00    +0.000 HD
ATOM     16  H   UNL     1       3.165   6.080  20.373  0.00  0.00    +0.000 HD
ENDBRANCH  13  14
ENDBRANCH  12  13
ENDBRANCH  11  12
ENDBRANCH  10  11
ENDBRANCH   1  10
TORSDOF 6
ENDMDL
MODEL 8
REMARK VINA RESULT:      -4.4      3.347      4.293
REMARK  Name = 
REMARK  6 active torsions:
REMARK  status: ('A' for Active; 'I' for Inactive)
REMARK    1  A    between atoms: N_1  and  C_2
REMARK    2  A    between atoms: C_2  and  C_3
REMARK    3  A    between atoms: C_3  and  C_4
REMARK    4  A    between atoms: C_4  and  C_5
REMARK    5  A    between atoms: C_5  and  N_6
REMARK    6  A    between atoms: N_9  and  O_10
REMARK                            x       y       z     vdW  Elec       q    Type
REMARK                         _______ _______ _______ _____ _____    ______ ____
ROOT
ATOM      1  N   UNL     1       4.120   4.915  19.313  0.00  0.00    +0.000 NA
ATOM      2  C   UNL     1       4.748   3.794  19.292  0.00  0.00    +0.000 C 
ATOM      3  N   UNL     1       6.030   3.791  18.816  0.00  0.00    +0.000 N 
ATOM      4  N   UNL     1       4.313   2.551  19.683  0.00  0.00    +0.000 N 
ATOM      5  H   UNL     1       6.229   4.710  18.428  0.00  0.00    +0.000 HD
ATOM      6  H   UNL     1       6.160   3.088  18.098  0.00  0.00    +0.000 HD
ATOM      7  H   UNL     1       3.491   2.544  20.285  0.00  0.00    +0.000 HD
ENDROOT
BRANCH   4   8
ATOM      8  O   UNL     1       5.306   1.657  20.111  0.00  0.00    +0.000 OA
ATOM      9  H   UNL     1       6.087   2.232  20.252  0.00  0.00    +0.000 HD
ENDBRANCH   4   8
BRANCH   1  10
ATOM     10  C   UNL     1       2.748   4.891  19.816  0.00  0.00    +0.000 C 
BRANCH  10  11
ATOM     11  C   UNL     1       1.776   5.188  18.670  0.00  0.00    +0.000 C 
BRANCH  11  12
ATOM     12  C   UNL     1       1.495   3.913  17.871  0.00  0.00    +0.000 C 
BRANCH  12  13
ATOM     13  C   UNL     1       0.863   2.826  18.735  0.00  0.00    +0.000 C 
BRANCH  13  14
ATOM     14  N   UNL     1       1.634   1.593  18.623  0.00  0.00    +0.000 NA
ATOM     15  H   UNL     1       1.627   1.108  19.521  0.00  0.00    +0.000 HD
ATOM     16  H   UNL     1       2.609   1.813  18.424  0.00  0.00    +0.000 HD
ENDBRANCH  13  14
ENDBRANCH  12  13
ENDBRANCH  11  12
ENDBRANCH  10  11
ENDBRANCH   1  10
TORSDOF 6
ENDMDL
MODEL 9
REMARK VINA RESULT:      -4.3      2.489      3.549
REMARK  Name = 
REMARK  6 active torsions:
REMARK  status: ('A' for Active; 'I' for Inactive)
REMARK    1  A    between atoms: N_1  and  C_2
REMARK    2  A    between atoms: C_2  and  C_3
REMARK    3  A    between atoms: C_3  and  C_4
REMARK    4  A    between atoms: C_4  and  C_5
REMARK    5  A    between atoms: C_5  and  N_6
REMARK    6  A    between atoms: N_9  and  O_10
REMARK                            x       y       z     vdW  Elec       q    Type
REMARK                         _______ _______ _______ _____ _____    ______ ____
ROOT
ATOM      1  N   UNL     1       4.166   4.691  17.296  0.00  0.00    +0.000 NA
ATOM      2  C   UNL     1       5.344   4.183  17.359  0.00  0.00    +0.000 C 
ATOM      3  N   UNL     1       5.772   3.434  16.298  0.00  0.00    +0.000 N 
ATOM      4  N   UNL     1       6.274   4.274  18.367  0.00  0.00    +0.000 N 
ATOM      5  H   UNL     1       4.989   3.305  15.662  0.00  0.00    +0.000 HD
ATOM      6  H   UNL     1       6.117   2.528  16.595  0.00  0.00    +0.000 HD
ATOM      7  H   UNL     1       6.121   5.025  19.037  0.00  0.00    +0.000 HD
ENDROOT
BRANCH   4   8
ATOM      8  O   UNL     1       7.617   4.160  17.979  0.00  0.00    +0.000 OA
ATOM      9  H   UNL     1       7.892   5.088  17.826  0.00  0.00    +0.000 HD
ENDBRANCH   4   8
BRANCH   1  10
ATOM     10  C   UNL     1       3.728   5.479  18.447  0.00  0.00    +0.000 C 
BRANCH  10  11
ATOM     11  C   UNL     1       2.305   5.068  18.837  0.00  0.00    +0.000 C 
BRANCH  11  12
ATOM     12  C   UNL     1       1.720   4.120  17.786  0.00  0.00    +0.000 C 
BRANCH  12  13
ATOM     13  C   UNL     1       1.504   2.716  18.342  0.00  0.00    +0.000 C 
BRANCH  13  14
ATOM     14  N   UNL     1       2.556   1.827  17.865  0.00  0.00    +0.000 NA
ATOM     15  H   UNL     1       2.865   2.133  16.942  0.00  0.00    +0.000 HD
ATOM     16  H   UNL     1       2.184   0.886  17.745  0.00  0.00    +0.000 HD
ENDBRANCH  13  14
ENDBRANCH  12  13
ENDBRANCH  11  12
ENDBRANCH  10  11
ENDBRANCH   1  10
TORSDOF 6
ENDMDL
