MODEL 1
REMARK VINA RESULT:      -5.6      0.000      0.000
REMARK  Name = 
REMARK  17 active torsions:
REMARK  status: ('A' for Active; 'I' for Inactive)
REMARK    1  A    between atoms: C_1  and  C_2
REMARK    2  A    between atoms: C_2  and  C_3
REMARK    3  A    between atoms: C_3  and  C_4
REMARK    4  A    between atoms: C_4  and  C_5
REMARK    5  A    between atoms: C_5  and  C_6
REMARK    6  A    between atoms: C_6  and  C_7
REMARK    7  A    between atoms: C_7  and  C_8
REMARK    8  A    between atoms: C_8  and  C_9
REMARK    9  A    between atoms: C_9  and  C_10
REMARK   10  A    between atoms: C_10  and  C_11
REMARK   11  A    between atoms: C_11  and  C_12
REMARK   12  A    between atoms: C_12  and  N_13
REMARK   13  A    between atoms: C_14  and  C_16
REMARK   14  A    between atoms: C_16  and  N_17
REMARK   15  A    between atoms: N_17  and  C_18
REMARK   16  A    between atoms: N_17  and  C_19
REMARK   17  A    between atoms: N_17  and  C_20
REMARK                            x       y       z     vdW  Elec       q    Type
REMARK                         _______ _______ _______ _____ _____    ______ ____
ROOT
ATOM      1  C   UNL     1       5.808   6.146  17.728  0.00  0.00    +0.000 C 
ENDROOT
BRANCH   1   2
ATOM      2  C   UNL     1       6.899   6.980  17.065  0.00  0.00    +0.000 C 
BRANCH   2   3
ATOM      3  C   UNL     1       7.897   7.488  18.092  0.00  0.00    +0.000 C 
BRANCH   3   4
ATOM      4  C   UNL     1       8.193   8.964  17.857  0.00  0.00    +0.000 C 
BRANCH   4   5
ATOM      5  C   UNL     1       8.934   9.540  19.052  0.00  0.00    +0.000 C 
BRANCH   5   6
ATOM      6  C   UNL     1       9.817  10.714  18.646  0.00  0.00    +0.000 C 
BRANCH   6   7
ATOM      7  C   UNL     1       8.927  11.878  18.234  0.00  0.00    +0.000 C 
BRANCH   7   8
ATOM      8  C   UNL     1       9.706  12.999  17.556  0.00  0.00    +0.000 C 
BRANCH   8   9
ATOM      9  C   UNL     1      11.172  12.623  17.346  0.00  0.00    +0.000 C 
BRANCH   9  11
ATOM     10  C   UNL     1      11.255  15.107  16.925  0.00  0.00    +0.000 C 
ATOM     11  C   UNL     1      12.065  13.828  17.036  0.00  0.00    +0.000 C 
ENDBRANCH   9  11
ENDBRANCH   8   9
ENDBRANCH   7   8
ENDBRANCH   6   7
ENDBRANCH   5   6
ENDBRANCH   4   5
ENDBRANCH   3   4
ENDBRANCH   2   3
ENDBRANCH   1   2
BRANCH   1  12
ATOM     12  C   UNL     1       6.385   4.809  18.160  0.00  0.00    +0.000 C 
BRANCH  12  13
ATOM     13  N   UNL     1       5.593   4.179  19.198  0.00  0.00    +0.000 N 
ATOM     14  C   UNL     1       4.497   3.432  18.833  0.00  0.00    +0.000 C 
ATOM     15  O   UNL     1       4.190   3.220  17.662  0.00  0.00    +0.000 OA
ATOM     16  H   UNL     1       5.710   4.515  20.147  0.00  0.00    +0.000 HD
BRANCH  14  17
ATOM     17  C   UNL     1       3.714   2.790  19.981  0.00  0.00    +0.000 C 
BRANCH  17  18
ATOM     18  N   UNL     1       2.309   3.415  20.239  0.00  0.00    +0.000 N 
ATOM     19  C   UNL     1       1.306   2.927  19.193  0.00  0.00    +0.000 C 
ATOM     20  C   UNL     1       1.815   3.027  21.624  0.00  0.00    +0.000 C 
ATOM     21  C   UNL     1       2.427   4.925  20.138  0.00  0.00    +0.000 C 
ENDBRANCH  17  18
ENDBRANCH  14  17
ENDBRANCH  12  13
ENDBRANCH   1  12
TORSDOF 13
ENDMDL
MODEL 2
REMARK VINA RESULT:      -5.5      3.644     10.148
REMARK  Name = 
REMARK  17 active torsions:
REMARK  status: ('A' for Active; 'I' for Inactive)
REMARK    1  A    between atoms: C_1  and  C_2
REMARK    2  A    between atoms: C_2  and  C_3
REMARK    3  A    between atoms: C_3  and  C_4
REMARK    4  A    between atoms: C_4  and  C_5
REMARK    5  A    between atoms: C_5  and  C_6
REMARK    6  A    between atoms: C_6  and  C_7
REMARK    7  A    between atoms: C_7  and  C_8
REMARK    8  A    between atoms: C_8  and  C_9
REMARK    9  A    between atoms: C_9  and  C_10
REMARK   10  A    between atoms: C_10  and  C_11
REMARK   11  A    between atoms: C_11  and  C_12
REMARK   12  A    between atoms: C_12  and  N_13
REMARK   13  A    between atoms: C_14  and  C_16
REMARK   14  A    between atoms: C_16  and  N_17
REMARK   15  A    between atoms: N_17  and  C_18
REMARK   16  A    between atoms: N_17  and  C_19
REMARK   17  A    between atoms: N_17  and  C_20
REMARK                            x       y       z     vdW  Elec       q    Type
REMARK                         _______ _______ _______ _____ _____    ______ ____
ROOT
ATOM      1  C   UNL     1       7.593   7.479  17.662  0.00  0.00    +0.000 C 
ENDROOT
BRANCH   1   2
ATOM      2  C   UNL     1       7.524   6.065  18.226  0.00  0.00    +0.000 C 
BRANCH   2   3
ATOM      3  C   UNL     1       7.260   5.050  17.126  0.00  0.00    +0.000 C 
BRANCH   3   4
ATOM      4  C   UNL     1       5.977   5.400  16.382  0.00  0.00    +0.000 C 
BRANCH   4   5
ATOM      5  C   UNL     1       5.191   4.134  16.081  0.00  0.00    +0.000 C 
BRANCH   5   6
ATOM      6  C   UNL     1       4.100   3.898  17.117  0.00  0.00    +0.000 C 
BRANCH   6   7
ATOM      7  C   UNL     1       3.589   5.244  17.608  0.00  0.00    +0.000 C 
BRANCH   7   8
ATOM      8  C   UNL     1       2.152   5.176  18.115  0.00  0.00    +0.000 C 
BRANCH   8   9
ATOM      9  C   UNL     1       1.588   3.758  18.026  0.00  0.00    +0.000 C 
BRANCH   9  11
ATOM     10  C   UNL     1       1.904   2.528  20.203  0.00  0.00    +0.000 C 
ATOM     11  C   UNL     1       0.928   3.291  19.326  0.00  0.00    +0.000 C 
ENDBRANCH   9  11
ENDBRANCH   8   9
ENDBRANCH   7   8
ENDBRANCH   6   7
ENDBRANCH   5   6
ENDBRANCH   4   5
ENDBRANCH   3   4
ENDBRANCH   2   3
ENDBRANCH   1   2
BRANCH   1  12
ATOM     12  C   UNL     1       8.499   8.330  18.535  0.00  0.00    +0.000 C 
BRANCH  12  13
ATOM     13  N   UNL     1       8.653   9.676  18.019  0.00  0.00    +0.000 N 
ATOM     14  C   UNL     1       9.071  10.669  18.875  0.00  0.00    +0.000 C 
ATOM     15  O   UNL     1       9.381  10.459  20.045  0.00  0.00    +0.000 OA
ATOM     16  H   UNL     1       8.206   9.894  17.135  0.00  0.00    +0.000 HD
BRANCH  14  17
ATOM     17  C   UNL     1       9.220  12.062  18.259  0.00  0.00    +0.000 C 
BRANCH  17  18
ATOM     18  N   UNL     1      10.656  12.662  18.349  0.00  0.00    +0.000 N 
ATOM     19  C   UNL     1      10.865  13.350  19.698  0.00  0.00    +0.000 C 
ATOM     20  C   UNL     1      11.691  11.559  18.186  0.00  0.00    +0.000 C 
ATOM     21  C   UNL     1      10.820  13.690  17.243  0.00  0.00    +0.000 C 
ENDBRANCH  17  18
ENDBRANCH  14  17
ENDBRANCH  12  13
ENDBRANCH   1  12
TORSDOF 13
ENDMDL
MODEL 3
REMARK VINA RESULT:      -5.4      6.119      9.532
REMARK  Name = 
REMARK  17 active torsions:
REMARK  status: ('A' for Active; 'I' for Inactive)
REMARK    1  A    between atoms: C_1  and  C_2
REMARK    2  A    between atoms: C_2  and  C_3
REMARK    3  A    between atoms: C_3  and  C_4
REMARK    4  A    between atoms: C_4  and  C_5
REMARK    5  A    between atoms: C_5  and  C_6
REMARK    6  A    between atoms: C_6  and  C_7
REMARK    7  A    between atoms: C_7  and  C_8
REMARK    8  A    between atoms: C_8  and  C_9
REMARK    9  A    between atoms: C_9  and  C_10
REMARK   10  A    between atoms: C_10  and  C_11
REMARK   11  A    between atoms: C_11  and  C_12
REMARK   12  A    between atoms: C_12  and  N_13
REMARK   13  A    between atoms: C_14  and  C_16
REMARK   14  A    between atoms: C_16  and  N_17
REMARK   15  A    between atoms: N_17  and  C_18
REMARK   16  A    between atoms: N_17  and  C_19
REMARK   17  A    between atoms: N_17  and  C_20
REMARK                            x       y       z     vdW  Elec       q    Type
REMARK                         _______ _______ _______ _____ _____    ______ ____
ROOT
ATOM      1  C   UNL     1       2.694   7.075  18.059  0.00  0.00    +0.000 C 
ENDROOT
BRANCH   1   2
ATOM      2  C   UNL     1       3.913   6.489  17.356  0.00  0.00    +0.000 C 
BRANCH   2   3
ATOM      3  C   UNL     1       4.420   5.254  18.082  0.00  0.00    +0.000 C 
BRANCH   3   4
ATOM      4  C   UNL     1       4.148   4.005  17.254  0.00  0.00    +0.000 C 
BRANCH   4   5
ATOM      5  C   UNL     1       3.803   2.842  18.169  0.00  0.00    +0.000 C 
BRANCH   5   6
ATOM      6  C   UNL     1       2.447   2.242  17.818  0.00  0.00    +0.000 C 
BRANCH   6   7
ATOM      7  C   UNL     1       1.368   3.284  18.076  0.00  0.00    +0.000 C 
BRANCH   7   8
ATOM      8  C   UNL     1       0.850   3.247  19.510  0.00  0.00    +0.000 C 
BRANCH   8   9
ATOM      9  C   UNL     1       1.273   4.488  20.296  0.00  0.00    +0.000 C 
BRANCH   9  11
ATOM     10  C   UNL     1       2.460   2.678  21.588  0.00  0.00    +0.000 C 
ATOM     11  C   UNL     1       2.220   4.171  21.456  0.00  0.00    +0.000 C 
ENDBRANCH   9  11
ENDBRANCH   8   9
ENDBRANCH   7   8
ENDBRANCH   6   7
ENDBRANCH   5   6
ENDBRANCH   4   5
ENDBRANCH   3   4
ENDBRANCH   2   3
ENDBRANCH   1   2
BRANCH   1  12
ATOM     12  C   UNL     1       2.669   8.581  17.861  0.00  0.00    +0.000 C 
BRANCH  12  13
ATOM     13  N   UNL     1       1.406   9.168  18.265  0.00  0.00    +0.000 N 
ATOM     14  C   UNL     1       1.324  10.535  18.398  0.00  0.00    +0.000 C 
ATOM     15  O   UNL     1       2.254  11.291  18.130  0.00  0.00    +0.000 OA
ATOM     16  H   UNL     1       0.716   8.554  18.684  0.00  0.00    +0.000 HD
BRANCH  14  17
ATOM     17  C   UNL     1      -0.041  11.083  18.819  0.00  0.00    +0.000 C 
BRANCH  17  18
ATOM     18  N   UNL     1      -0.068  11.744  20.231  0.00  0.00    +0.000 N 
ATOM     19  C   UNL     1       0.568  13.134  20.184  0.00  0.00    +0.000 C 
ATOM     20  C   UNL     1      -1.503  11.868  20.719  0.00  0.00    +0.000 C 
ATOM     21  C   UNL     1       0.728  10.872  21.187  0.00  0.00    +0.000 C 
ENDBRANCH  17  18
ENDBRANCH  14  17
ENDBRANCH  12  13
ENDBRANCH   1  12
TORSDOF 13
ENDMDL
MODEL 4
REMARK VINA RESULT:      -5.4      4.837      7.411
REMARK  Name = 
REMARK  17 active torsions:
REMARK  status: ('A' for Active; 'I' for Inactive)
REMARK    1  A    between atoms: C_1  and  C_2
REMARK    2  A    between atoms: C_2  and  C_3
REMARK    3  A    between atoms: C_3  and  C_4
REMARK    4  A    between atoms: C_4  and  C_5
REMARK    5  A    between atoms: C_5  and  C_6
REMARK    6  A    between atoms: C_6  and  C_7
REMARK    7  A    between atoms: C_7  and  C_8
REMARK    8  A    between atoms: C_8  and  C_9
REMARK    9  A    between atoms: C_9  and  C_10
REMARK   10  A    between atoms: C_10  and  C_11
REMARK   11  A    between atoms: C_11  and  C_12
REMARK   12  A    between atoms: C_12  and  N_13
REMARK   13  A    between atoms: C_14  and  C_16
REMARK   14  A    between atoms: C_16  and  N_17
REMARK   15  A    between atoms: N_17  and  C_18
REMARK   16  A    between atoms: N_17  and  C_19
REMARK   17  A    between atoms: N_17  and  C_20
REMARK                            x       y       z     vdW  Elec       q    Type
REMARK                         _______ _______ _______ _____ _____    ______ ____
ROOT
ATOM      1  C   UNL     1       4.582   6.703  17.407  0.00  0.00    +0.000 C 
ENDROOT
BRANCH   1   2
ATOM      2  C   UNL     1       5.638   6.719  16.308  0.00  0.00    +0.000 C 
BRANCH   2   3
ATOM      3  C   UNL     1       5.231   5.826  15.147  0.00  0.00    +0.000 C 
BRANCH   3   4
ATOM      4  C   UNL     1       5.389   4.359  15.528  0.00  0.00    +0.000 C 
BRANCH   4   5
ATOM      5  C   UNL     1       6.254   3.647  14.502  0.00  0.00    +0.000 C 
BRANCH   5   6
ATOM      6  C   UNL     1       6.877   4.632  13.520  0.00  0.00    +0.000 C 
BRANCH   6   7
ATOM      7  C   UNL     1       6.710   4.089  12.108  0.00  0.00    +0.000 C 
BRANCH   7   8
ATOM      8  C   UNL     1       6.285   2.624  12.090  0.00  0.00    +0.000 C 
BRANCH   8   9
ATOM      9  C   UNL     1       5.078   2.396  11.181  0.00  0.00    +0.000 C 
BRANCH   9  11
ATOM     10  C   UNL     1       3.278   3.752  10.051  0.00  0.00    +0.000 C 
ATOM     11  C   UNL     1       3.981   3.448  11.362  0.00  0.00    +0.000 C 
ENDBRANCH   9  11
ENDBRANCH   8   9
ENDBRANCH   7   8
ENDBRANCH   6   7
ENDBRANCH   5   6
ENDBRANCH   4   5
ENDBRANCH   3   4
ENDBRANCH   2   3
ENDBRANCH   1   2
BRANCH   1  12
ATOM     12  C   UNL     1       4.970   5.690  18.469  0.00  0.00    +0.000 C 
BRANCH  12  13
ATOM     13  N   UNL     1       3.902   4.750  18.750  0.00  0.00    +0.000 N 
ATOM     14  C   UNL     1       4.203   3.590  19.425  0.00  0.00    +0.000 C 
ATOM     15  O   UNL     1       5.324   3.337  19.859  0.00  0.00    +0.000 OA
ATOM     16  H   UNL     1       3.041   4.848  18.224  0.00  0.00    +0.000 HD
BRANCH  14  17
ATOM     17  C   UNL     1       3.024   2.651  19.693  0.00  0.00    +0.000 C 
BRANCH  17  18
ATOM     18  N   UNL     1       1.893   3.264  20.574  0.00  0.00    +0.000 N 
ATOM     19  C   UNL     1       1.595   2.358  21.769  0.00  0.00    +0.000 C 
ATOM     20  C   UNL     1       2.312   4.636  21.078  0.00  0.00    +0.000 C 
ATOM     21  C   UNL     1       0.637   3.388  19.728  0.00  0.00    +0.000 C 
ENDBRANCH  17  18
ENDBRANCH  14  17
ENDBRANCH  12  13
ENDBRANCH   1  12
TORSDOF 13
ENDMDL
MODEL 5
REMARK VINA RESULT:      -5.4      1.233      1.934
REMARK  Name = 
REMARK  17 active torsions:
REMARK  status: ('A' for Active; 'I' for Inactive)
REMARK    1  A    between atoms: C_1  and  C_2
REMARK    2  A    between atoms: C_2  and  C_3
REMARK    3  A    between atoms: C_3  and  C_4
REMARK    4  A    between atoms: C_4  and  C_5
REMARK    5  A    between atoms: C_5  and  C_6
REMARK    6  A    between atoms: C_6  and  C_7
REMARK    7  A    between atoms: C_7  and  C_8
REMARK    8  A    between atoms: C_8  and  C_9
REMARK    9  A    between atoms: C_9  and  C_10
REMARK   10  A    between atoms: C_10  and  C_11
REMARK   11  A    between atoms: C_11  and  C_12
REMARK   12  A    between atoms: C_12  and  N_13
REMARK   13  A    between atoms: C_14  and  C_16
REMARK   14  A    between atoms: C_16  and  N_17
REMARK   15  A    between atoms: N_17  and  C_18
REMARK   16  A    between atoms: N_17  and  C_19
REMARK   17  A    between atoms: N_17  and  C_20
REMARK                            x       y       z     vdW  Elec       q    Type
REMARK                         _______ _______ _______ _____ _____    ______ ____
ROOT
ATOM      1  C   UNL     1       5.207   5.589  16.460  0.00  0.00    +0.000 C 
ENDROOT
BRANCH   1   2
ATOM      2  C   UNL     1       5.388   5.897  17.942  0.00  0.00    +0.000 C 
BRANCH   2   3
ATOM      3  C   UNL     1       6.857   5.858  18.331  0.00  0.00    +0.000 C 
BRANCH   3   4
ATOM      4  C   UNL     1       7.657   6.833  17.476  0.00  0.00    +0.000 C 
BRANCH   4   5
ATOM      5  C   UNL     1       8.125   8.003  18.325  0.00  0.00    +0.000 C 
BRANCH   5   6
ATOM      6  C   UNL     1       8.243   9.278  17.498  0.00  0.00    +0.000 C 
BRANCH   6   7
ATOM      7  C   UNL     1       8.377  10.464  18.441  0.00  0.00    +0.000 C 
BRANCH   7   8
ATOM      8  C   UNL     1       9.549  10.316  19.406  0.00  0.00    +0.000 C 
BRANCH   8   9
ATOM      9  C   UNL     1      10.710  11.237  19.033  0.00  0.00    +0.000 C 
BRANCH   9  11
ATOM     10  C   UNL     1      10.996  12.860  17.125  0.00  0.00    +0.000 C 
ATOM     11  C   UNL     1      10.253  12.561  18.415  0.00  0.00    +0.000 C 
ENDBRANCH   9  11
ENDBRANCH   8   9
ENDBRANCH   7   8
ENDBRANCH   6   7
ENDBRANCH   5   6
ENDBRANCH   4   5
ENDBRANCH   3   4
ENDBRANCH   2   3
ENDBRANCH   1   2
BRANCH   1  12
ATOM     12  C   UNL     1       4.809   4.133  16.290  0.00  0.00    +0.000 C 
BRANCH  12  13
ATOM     13  N   UNL     1       4.542   3.484  17.558  0.00  0.00    +0.000 N 
ATOM     14  C   UNL     1       3.271   3.019  17.808  0.00  0.00    +0.000 C 
ATOM     15  O   UNL     1       2.364   3.071  16.982  0.00  0.00    +0.000 OA
ATOM     16  H   UNL     1       5.210   3.625  18.308  0.00  0.00    +0.000 HD
BRANCH  14  17
ATOM     17  C   UNL     1       3.065   2.337  19.163  0.00  0.00    +0.000 C 
BRANCH  17  18
ATOM     18  N   UNL     1       2.260   3.180  20.199  0.00  0.00    +0.000 N 
ATOM     19  C   UNL     1       0.771   3.173  19.853  0.00  0.00    +0.000 C 
ATOM     20  C   UNL     1       2.452   2.609  21.595  0.00  0.00    +0.000 C 
ATOM     21  C   UNL     1       2.767   4.611  20.154  0.00  0.00    +0.000 C 
ENDBRANCH  17  18
ENDBRANCH  14  17
ENDBRANCH  12  13
ENDBRANCH   1  12
TORSDOF 13
ENDMDL
MODEL 6
REMARK VINA RESULT:      -5.4      4.909      7.814
REMARK  Name = 
REMARK  17 active torsions:
REMARK  status: ('A' for Active; 'I' for Inactive)
REMARK    1  A    between atoms: C_1  and  C_2
REMARK    2  A    between atoms: C_2  and  C_3
REMARK    3  A    between atoms: C_3  and  C_4
REMARK    4  A    between atoms: C_4  and  C_5
REMARK    5  A    between atoms: C_5  and  C_6
REMARK    6  A    between atoms: C_6  and  C_7
REMARK    7  A    between atoms: C_7  and  C_8
REMARK    8  A    between atoms: C_8  and  C_9
REMARK    9  A    between atoms: C_9  and  C_10
REMARK   10  A    between atoms: C_10  and  C_11
REMARK   11  A    between atoms: C_11  and  C_12
REMARK   12  A    between atoms: C_12  and  N_13
REMARK   13  A    between atoms: C_14  and  C_16
REMARK   14  A    between atoms: C_16  and  N_17
REMARK   15  A    between atoms: N_17  and  C_18
REMARK   16  A    between atoms: N_17  and  C_19
REMARK   17  A    between atoms: N_17  and  C_20
REMARK                            x       y       z     vdW  Elec       q    Type
REMARK                         _______ _______ _______ _____ _____    ______ ____
ROOT
ATOM      1  C   UNL     1       5.446   6.804  16.296  0.00  0.00    +0.000 C 
ENDROOT
BRANCH   1   2
ATOM      2  C   UNL     1       5.167   5.545  15.482  0.00  0.00    +0.000 C 
BRANCH   2   3
ATOM      3  C   UNL     1       6.270   4.517  15.672  0.00  0.00    +0.000 C 
BRANCH   3   4
ATOM      4  C   UNL     1       6.499   3.742  14.380  0.00  0.00    +0.000 C 
BRANCH   4   5
ATOM      5  C   UNL     1       6.716   4.708  13.228  0.00  0.00    +0.000 C 
BRANCH   5   6
ATOM      6  C   UNL     1       6.363   4.068  11.891  0.00  0.00    +0.000 C 
BRANCH   6   7
ATOM      7  C   UNL     1       5.667   2.740  12.151  0.00  0.00    +0.000 C 
BRANCH   7   8
ATOM      8  C   UNL     1       4.544   2.463  11.158  0.00  0.00    +0.000 C 
BRANCH   8   9
ATOM      9  C   UNL     1       3.693   3.707  10.904  0.00  0.00    +0.000 C 
BRANCH   9  11
ATOM     10  C   UNL     1       2.241   4.953   9.263  0.00  0.00    +0.000 C 
ATOM     11  C   UNL     1       3.298   3.877   9.435  0.00  0.00    +0.000 C 
ENDBRANCH   9  11
ENDBRANCH   8   9
ENDBRANCH   7   8
ENDBRANCH   6   7
ENDBRANCH   5   6
ENDBRANCH   4   5
ENDBRANCH   3   4
ENDBRANCH   2   3
ENDBRANCH   1   2
BRANCH   1  12
ATOM     12  C   UNL     1       4.914   6.623  17.707  0.00  0.00    +0.000 C 
BRANCH  12  13
ATOM     13  N   UNL     1       3.922   5.569  17.790  0.00  0.00    +0.000 N 
ATOM     14  C   UNL     1       4.140   4.524  18.658  0.00  0.00    +0.000 C 
ATOM     15  O   UNL     1       5.106   4.470  19.415  0.00  0.00    +0.000 OA
ATOM     16  H   UNL     1       3.247   5.499  17.037  0.00  0.00    +0.000 HD
BRANCH  14  17
ATOM     17  C   UNL     1       3.047   3.453  18.699  0.00  0.00    +0.000 C 
BRANCH  17  18
ATOM     18  N   UNL     1       2.146   3.493  19.971  0.00  0.00    +0.000 N 
ATOM     19  C   UNL     1       0.794   2.837  19.691  0.00  0.00    +0.000 C 
ATOM     20  C   UNL     1       2.829   2.760  21.115  0.00  0.00    +0.000 C 
ATOM     21  C   UNL     1       1.916   4.945  20.354  0.00  0.00    +0.000 C 
ENDBRANCH  17  18
ENDBRANCH  14  17
ENDBRANCH  12  13
ENDBRANCH   1  12
TORSDOF 13
ENDMDL
MODEL 7
REMARK VINA RESULT:      -5.3      4.037      7.783
REMARK  Name = 
REMARK  17 active torsions:
REMARK  status: ('A' for Active; 'I' for Inactive)
REMARK    1  A    between atoms: C_1  and  C_2
REMARK    2  A    between atoms: C_2  and  C_3
REMARK    3  A    between atoms: C_3  and  C_4
REMARK    4  A    between atoms: C_4  and  C_5
REMARK    5  A    between atoms: C_5  and  C_6
REMARK    6  A    between atoms: C_6  and  C_7
REMARK    7  A    between atoms: C_7  and  C_8
REMARK    8  A    between atoms: C_8  and  C_9
REMARK    9  A    between atoms: C_9  and  C_10
REMARK   10  A    between atoms: C_10  and  C_11
REMARK   11  A    between atoms: C_11  and  C_12
REMARK   12  A    between atoms: C_12  and  N_13
REMARK   13  A    between atoms: C_14  and  C_16
REMARK   14  A    between atoms: C_16  and  N_17
REMARK   15  A    between atoms: N_17  and  C_18
REMARK   16  A    between atoms: N_17  and  C_19
REMARK   17  A    between atoms: N_17  and  C_20
REMARK                            x       y       z     vdW  Elec       q    Type
REMARK                         _______ _______ _______ _____ _____    ______ ____
ROOT
ATOM      1  C   UNL     1       1.912   2.564  18.136  0.00  0.00    +0.000 C 
ENDROOT
BRANCH   1   2
ATOM      2  C   UNL     1       1.499   3.961  18.584  0.00  0.00    +0.000 C 
BRANCH   2   3
ATOM      3  C   UNL     1       1.025   3.954  20.027  0.00  0.00    +0.000 C 
BRANCH   3   4
ATOM      4  C   UNL     1       1.867   4.907  20.866  0.00  0.00    +0.000 C 
BRANCH   4   5
ATOM      5  C   UNL     1       2.076   6.211  20.115  0.00  0.00    +0.000 C 
BRANCH   5   6
ATOM      6  C   UNL     1       1.616   7.407  20.939  0.00  0.00    +0.000 C 
BRANCH   6   7
ATOM      7  C   UNL     1       1.264   8.548  19.995  0.00  0.00    +0.000 C 
BRANCH   7   8
ATOM      8  C   UNL     1       0.590   9.713  20.711  0.00  0.00    +0.000 C 
BRANCH   8   9
ATOM      9  C   UNL     1      -0.270  10.542  19.757  0.00  0.00    +0.000 C 
BRANCH   9  11
ATOM     10  C   UNL     1      -1.402   9.962  17.581  0.00  0.00    +0.000 C 
ATOM     11  C   UNL     1      -0.073  10.163  18.287  0.00  0.00    +0.000 C 
ENDBRANCH   9  11
ENDBRANCH   8   9
ENDBRANCH   7   8
ENDBRANCH   6   7
ENDBRANCH   5   6
ENDBRANCH   4   5
ENDBRANCH   3   4
ENDBRANCH   2   3
ENDBRANCH   1   2
BRANCH   1  12
ATOM     12  C   UNL     1       3.402   2.545  17.842  0.00  0.00    +0.000 C 
BRANCH  12  13
ATOM     13  N   UNL     1       4.032   3.823  18.111  0.00  0.00    +0.000 N 
ATOM     14  C   UNL     1       4.634   4.495  17.073  0.00  0.00    +0.000 C 
ATOM     15  O   UNL     1       4.611   4.094  15.912  0.00  0.00    +0.000 OA
ATOM     16  H   UNL     1       4.236   4.052  19.078  0.00  0.00    +0.000 HD
BRANCH  14  17
ATOM     17  C   UNL     1       5.270   5.841  17.429  0.00  0.00    +0.000 C 
BRANCH  17  18
ATOM     18  N   UNL     1       6.761   5.757  17.876  0.00  0.00    +0.000 N 
ATOM     19  C   UNL     1       6.857   5.529  19.385  0.00  0.00    +0.000 C 
ATOM     20  C   UNL     1       7.457   4.614  17.153  0.00  0.00    +0.000 C 
ATOM     21  C   UNL     1       7.441   7.072  17.535  0.00  0.00    +0.000 C 
ENDBRANCH  17  18
ENDBRANCH  14  17
ENDBRANCH  12  13
ENDBRANCH   1  12
TORSDOF 13
ENDMDL
MODEL 8
REMARK VINA RESULT:      -5.3      6.482      9.737
REMARK  Name = 
REMARK  17 active torsions:
REMARK  status: ('A' for Active; 'I' for Inactive)
REMARK    1  A    between atoms: C_1  and  C_2
REMARK    2  A    between atoms: C_2  and  C_3
REMARK    3  A    between atoms: C_3  and  C_4
REMARK    4  A    between atoms: C_4  and  C_5
REMARK    5  A    between atoms: C_5  and  C_6
REMARK    6  A    between atoms: C_6  and  C_7
REMARK    7  A    between atoms: C_7  and  C_8
REMARK    8  A    between atoms: C_8  and  C_9
REMARK    9  A    between atoms: C_9  and  C_10
REMARK   10  A    between atoms: C_10  and  C_11
REMARK   11  A    between atoms: C_11  and  C_12
REMARK   12  A    between atoms: C_12  and  N_13
REMARK   13  A    between atoms: C_14  and  C_16
REMARK   14  A    between atoms: C_16  and  N_17
REMARK   15  A    between atoms: N_17  and  C_18
REMARK   16  A    between atoms: N_17  and  C_19
REMARK   17  A    between atoms: N_17  and  C_20
REMARK                            x       y       z     vdW  Elec       q    Type
REMARK                         _______ _______ _______ _____ _____    ______ ____
ROOT
ATOM      1  C   UNL     1       2.087   8.274  18.948  0.00  0.00    +0.000 C 
ENDROOT
BRANCH   1   2
ATOM      2  C   UNL     1       2.195   6.840  18.443  0.00  0.00    +0.000 C 
BRANCH   2   3
ATOM      3  C   UNL     1       3.622   6.512  18.033  0.00  0.00    +0.000 C 
BRANCH   3   4
ATOM      4  C   UNL     1       4.209   5.457  18.962  0.00  0.00    +0.000 C 
BRANCH   4   5
ATOM      5  C   UNL     1       4.727   4.282  18.150  0.00  0.00    +0.000 C 
BRANCH   5   6
ATOM      6  C   UNL     1       3.684   3.792  17.153  0.00  0.00    +0.000 C 
BRANCH   6   7
ATOM      7  C   UNL     1       2.791   2.769  17.840  0.00  0.00    +0.000 C 
BRANCH   7   8
ATOM      8  C   UNL     1       1.383   3.297  18.094  0.00  0.00    +0.000 C 
BRANCH   8   9
ATOM      9  C   UNL     1       0.875   2.911  19.482  0.00  0.00    +0.000 C 
BRANCH   9  11
ATOM     10  C   UNL     1       2.108   3.468  21.609  0.00  0.00    +0.000 C 
ATOM     11  C   UNL     1       1.154   3.978  20.544  0.00  0.00    +0.000 C 
ENDBRANCH   9  11
ENDBRANCH   8   9
ENDBRANCH   7   8
ENDBRANCH   6   7
ENDBRANCH   5   6
ENDBRANCH   4   5
ENDBRANCH   3   4
ENDBRANCH   2   3
ENDBRANCH   1   2
BRANCH   1  12
ATOM     12  C   UNL     1       1.814   9.205  17.778  0.00  0.00    +0.000 C 
BRANCH  12  13
ATOM     13  N   UNL     1       0.624  10.008  17.982  0.00  0.00    +0.000 N 
ATOM     14  C   UNL     1       0.763  11.276  18.497  0.00  0.00    +0.000 C 
ATOM     15  O   UNL     1       1.854  11.787  18.737  0.00  0.00    +0.000 OA
ATOM     16  H   UNL     1      -0.270   9.530  17.987  0.00  0.00    +0.000 HD
BRANCH  14  17
ATOM     17  C   UNL     1      -0.534  12.069  18.675  0.00  0.00    +0.000 C 
BRANCH  17  18
ATOM     18  N   UNL     1      -0.964  12.287  20.158  0.00  0.00    +0.000 N 
ATOM     19  C   UNL     1      -2.480  12.454  20.258  0.00  0.00    +0.000 C 
ATOM     20  C   UNL     1      -0.536  11.097  21.003  0.00  0.00    +0.000 C 
ATOM     21  C   UNL     1      -0.297  13.551  20.673  0.00  0.00    +0.000 C 
ENDBRANCH  17  18
ENDBRANCH  14  17
ENDBRANCH  12  13
ENDBRANCH   1  12
TORSDOF 13
ENDMDL
MODEL 9
REMARK VINA RESULT:      -5.3      4.904      7.897
REMARK  Name = 
REMARK  17 active torsions:
REMARK  status: ('A' for Active; 'I' for Inactive)
REMARK    1  A    between atoms: C_1  and  C_2
REMARK    2  A    between atoms: C_2  and  C_3
REMARK    3  A    between atoms: C_3  and  C_4
REMARK    4  A    between atoms: C_4  and  C_5
REMARK    5  A    between atoms: C_5  and  C_6
REMARK    6  A    between atoms: C_6  and  C_7
REMARK    7  A    between atoms: C_7  and  C_8
REMARK    8  A    between atoms: C_8  and  C_9
REMARK    9  A    between atoms: C_9  and  C_10
REMARK   10  A    between atoms: C_10  and  C_11
REMARK   11  A    between atoms: C_11  and  C_12
REMARK   12  A    between atoms: C_12  and  N_13
REMARK   13  A    between atoms: C_14  and  C_16
REMARK   14  A    between atoms: C_16  and  N_17
REMARK   15  A    between atoms: N_17  and  C_18
REMARK   16  A    between atoms: N_17  and  C_19
REMARK   17  A    between atoms: N_17  and  C_20
REMARK                            x       y       z     vdW  Elec       q    Type
REMARK                         _______ _______ _______ _____ _____    ______ ____
ROOT
ATOM      1  C   UNL     1       5.431   6.268  16.225  0.00  0.00    +0.000 C 
ENDROOT
BRANCH   1   2
ATOM      2  C   UNL     1       6.874   5.801  16.375  0.00  0.00    +0.000 C 
BRANCH   2   3
ATOM      3  C   UNL     1       7.262   4.857  15.249  0.00  0.00    +0.000 C 
BRANCH   3   4
ATOM      4  C   UNL     1       6.206   3.772  15.081  0.00  0.00    +0.000 C 
BRANCH   4   5
ATOM      5  C   UNL     1       5.540   3.903  13.722  0.00  0.00    +0.000 C 
BRANCH   5   6
ATOM      6  C   UNL     1       6.464   3.438  12.603  0.00  0.00    +0.000 C 
BRANCH   6   7
ATOM      7  C   UNL     1       5.743   3.598  11.273  0.00  0.00    +0.000 C 
BRANCH   7   8
ATOM      8  C   UNL     1       4.429   2.824  11.222  0.00  0.00    +0.000 C 
BRANCH   8   9
ATOM      9  C   UNL     1       3.261   3.720  10.813  0.00  0.00    +0.000 C 
BRANCH   9  11
ATOM     10  C   UNL     1       2.200   5.010   8.924  0.00  0.00    +0.000 C 
ATOM     11  C   UNL     1       3.098   3.843   9.296  0.00  0.00    +0.000 C 
ENDBRANCH   9  11
ENDBRANCH   8   9
ENDBRANCH   7   8
ENDBRANCH   6   7
ENDBRANCH   5   6
ENDBRANCH   4   5
ENDBRANCH   3   4
ENDBRANCH   2   3
ENDBRANCH   1   2
BRANCH   1  12
ATOM     12  C   UNL     1       4.876   6.647  17.587  0.00  0.00    +0.000 C 
BRANCH  12  13
ATOM     13  N   UNL     1       3.568   6.069  17.827  0.00  0.00    +0.000 N 
ATOM     14  C   UNL     1       3.465   4.705  17.974  0.00  0.00    +0.000 C 
ATOM     15  O   UNL     1       4.438   3.955  17.974  0.00  0.00    +0.000 OA
ATOM     16  H   UNL     1       2.757   6.641  17.622  0.00  0.00    +0.000 HD
BRANCH  14  17
ATOM     17  C   UNL     1       2.056   4.168  18.235  0.00  0.00    +0.000 C 
BRANCH  17  18
ATOM     18  N   UNL     1       1.783   3.750  19.712  0.00  0.00    +0.000 N 
ATOM     19  C   UNL     1       3.016   3.075  20.314  0.00  0.00    +0.000 C 
ATOM     20  C   UNL     1       1.429   4.974  20.541  0.00  0.00    +0.000 C 
ATOM     21  C   UNL     1       0.628   2.764  19.729  0.00  0.00    +0.000 C 
ENDBRANCH  17  18
ENDBRANCH  14  17
ENDBRANCH  12  13
ENDBRANCH   1  12
TORSDOF 13
ENDMDL
