MODEL 1
REMARK VINA RESULT:      -8.0      0.000      0.000
REMARK  Name = 
REMARK  9 active torsions:
REMARK  status: ('A' for Active; 'I' for Inactive)
REMARK    1  A    between atoms: C_1  and  O_2
REMARK    2  A    between atoms: O_2  and  C_3
REMARK    3  A    between atoms: C_3  and  C_5
REMARK    4  A    between atoms: C_5  and  N_6
REMARK    5  A    between atoms: C_7  and  C_9
REMARK    6  A    between atoms: C_9  and  N_10
REMARK    7  A    between atoms: N_10  and  C_11
REMARK    8  A    between atoms: N_10  and  C_12
REMARK    9  A    between atoms: C_12  and  C_13
REMARK                            x       y       z     vdW  Elec       q    Type
REMARK                         _______ _______ _______ _____ _____    ______ ____
ROOT
ATOM      1  C   UNL     1       4.636   4.671  17.863  0.00  0.00    +0.000 C 
ATOM      2  C   UNL     1       3.288   4.048  17.327  0.00  0.00    +0.000 C 
ATOM      3  C   UNL     1       2.520   3.779  18.588  0.00  0.00    +0.000 A 
ATOM      4  C   UNL     1       1.153   3.616  18.747  0.00  0.00    +0.000 A 
ATOM      5  C   UNL     1       0.665   3.368  20.033  0.00  0.00    +0.000 A 
ATOM      6  C   UNL     1       1.542   3.258  21.121  0.00  0.00    +0.000 A 
ATOM      7  C   UNL     1       2.921   3.402  20.943  0.00  0.00    +0.000 A 
ATOM      8  C   UNL     1       3.391   3.682  19.670  0.00  0.00    +0.000 A 
ATOM      9  C   UNL     1       4.804   3.905  19.229  0.00  0.00    +0.000 C 
ENDROOT
BRANCH   1  11
ATOM     10  N   UNL     1       5.461   4.116  15.581  0.00  0.00    +0.000 N 
ATOM     11  C   UNL     1       5.803   4.288  16.902  0.00  0.00    +0.000 C 
ATOM     12  O   UNL     1       6.957   4.100  17.288  0.00  0.00    +0.000 OA
ATOM     13  H   UNL     1       4.497   4.223  15.280  0.00  0.00    +0.000 HD
BRANCH  10  14
ATOM     14  C   UNL     1       6.392   3.598  14.591  0.00  0.00    +0.000 C 
BRANCH  14  15
ATOM     15  C   UNL     1       7.137   4.751  13.930  0.00  0.00    +0.000 C 
ATOM     16  O   UNL     1       7.723   5.635  14.553  0.00  0.00    +0.000 OA
BRANCH  15  18
ATOM     17  C   UNL     1       6.486   3.438  12.103  0.00  0.00    +0.000 C 
ATOM     18  O   UNL     1       7.052   4.663  12.577  0.00  0.00    +0.000 OA
ENDBRANCH  15  18
ENDBRANCH  14  15
ENDBRANCH  10  14
ENDBRANCH   1  11
BRANCH   1  19
ATOM     19  N   UNL     1       4.540   6.179  18.024  0.00  0.00    +0.000 NA
ATOM     20  C   UNL     1       5.737   6.936  17.638  0.00  0.00    +0.000 C 
BRANCH  19  21
ATOM     21  C   UNL     1       3.335   6.764  17.382  0.00  0.00    +0.000 C 
BRANCH  21  22
ATOM     22  C   UNL     1       2.465   7.569  18.332  0.00  0.00    +0.000 A 
ATOM     23  C   UNL     1       1.868   8.765  17.904  0.00  0.00    +0.000 A 
ATOM     24  C   UNL     1       1.158   9.561  18.805  0.00  0.00    +0.000 A 
ATOM     25  C   UNL     1       1.031   9.166  20.136  0.00  0.00    +0.000 A 
ATOM     26  C   UNL     1       1.596   7.966  20.565  0.00  0.00    +0.000 A 
ATOM     27  C   UNL     1       2.303   7.166  19.666  0.00  0.00    +0.000 A 
ENDBRANCH  21  22
ENDBRANCH  19  21
ENDBRANCH   1  19
TORSDOF 7
ENDMDL
MODEL 2
REMARK VINA RESULT:      -7.9      1.054      1.365
REMARK  Name = 
REMARK  9 active torsions:
REMARK  status: ('A' for Active; 'I' for Inactive)
REMARK    1  A    between atoms: C_1  and  O_2
REMARK    2  A    between atoms: O_2  and  C_3
REMARK    3  A    between atoms: C_3  and  C_5
REMARK    4  A    between atoms: C_5  and  N_6
REMARK    5  A    between atoms: C_7  and  C_9
REMARK    6  A    between atoms: C_9  and  N_10
REMARK    7  A    between atoms: N_10  and  C_11
REMARK    8  A    between atoms: N_10  and  C_12
REMARK    9  A    between atoms: C_12  and  C_13
REMARK                            x       y       z     vdW  Elec       q    Type
REMARK                         _______ _______ _______ _____ _____    ______ ____
ROOT
ATOM      1  C   UNL     1       5.225   4.876  17.183  0.00  0.00    +0.000 C 
ATOM      2  C   UNL     1       3.897   4.301  16.551  0.00  0.00    +0.000 C 
ATOM      3  C   UNL     1       3.157   3.782  17.748  0.00  0.00    +0.000 A 
ATOM      4  C   UNL     1       1.800   3.534  17.882  0.00  0.00    +0.000 A 
ATOM      5  C   UNL     1       1.337   3.043  19.106  0.00  0.00    +0.000 A 
ATOM      6  C   UNL     1       2.232   2.780  20.154  0.00  0.00    +0.000 A 
ATOM      7  C   UNL     1       3.601   3.010  19.998  0.00  0.00    +0.000 A 
ATOM      8  C   UNL     1       4.044   3.531  18.792  0.00  0.00    +0.000 A 
ATOM      9  C   UNL     1       5.441   3.889  18.390  0.00  0.00    +0.000 C 
ENDROOT
BRANCH   1  11
ATOM     10  N   UNL     1       6.047   4.788  14.835  0.00  0.00    +0.000 N 
ATOM     11  C   UNL     1       6.395   4.719  16.164  0.00  0.00    +0.000 C 
ATOM     12  O   UNL     1       7.558   4.501  16.504  0.00  0.00    +0.000 OA
ATOM     13  H   UNL     1       5.078   4.918  14.562  0.00  0.00    +0.000 HD
BRANCH  10  14
ATOM     14  C   UNL     1       6.985   4.496  13.762  0.00  0.00    +0.000 C 
BRANCH  14  15
ATOM     15  C   UNL     1       6.311   3.622  12.712  0.00  0.00    +0.000 C 
ATOM     16  O   UNL     1       6.922   2.914  11.914  0.00  0.00    +0.000 OA
BRANCH  15  18
ATOM     17  C   UNL     1       4.268   3.319  11.607  0.00  0.00    +0.000 C 
ATOM     18  O   UNL     1       4.959   3.745  12.783  0.00  0.00    +0.000 OA
ENDBRANCH  15  18
ENDBRANCH  14  15
ENDBRANCH  10  14
ENDBRANCH   1  11
BRANCH   1  19
ATOM     19  N   UNL     1       5.069   6.327  17.609  0.00  0.00    +0.000 NA
ATOM     20  C   UNL     1       6.264   7.166  17.455  0.00  0.00    +0.000 C 
BRANCH  19  21
ATOM     21  C   UNL     1       3.892   6.996  17.000  0.00  0.00    +0.000 C 
BRANCH  21  22
ATOM     22  C   UNL     1       2.913   7.558  18.017  0.00  0.00    +0.000 A 
ATOM     23  C   UNL     1       2.232   8.758  17.756  0.00  0.00    +0.000 A 
ATOM     24  C   UNL     1       1.416   9.332  18.732  0.00  0.00    +0.000 A 
ATOM     25  C   UNL     1       1.266   8.709  19.971  0.00  0.00    +0.000 A 
ATOM     26  C   UNL     1       1.914   7.503  20.229  0.00  0.00    +0.000 A 
ATOM     27  C   UNL     1       2.728   6.924  19.255  0.00  0.00    +0.000 A 
ENDBRANCH  21  22
ENDBRANCH  19  21
ENDBRANCH   1  19
TORSDOF 7
ENDMDL
MODEL 3
REMARK VINA RESULT:      -7.8      0.946      1.509
REMARK  Name = 
REMARK  9 active torsions:
REMARK  status: ('A' for Active; 'I' for Inactive)
REMARK    1  A    between atoms: C_1  and  O_2
REMARK    2  A    between atoms: O_2  and  C_3
REMARK    3  A    between atoms: C_3  and  C_5
REMARK    4  A    between atoms: C_5  and  N_6
REMARK    5  A    between atoms: C_7  and  C_9
REMARK    6  A    between atoms: C_9  and  N_10
REMARK    7  A    between atoms: N_10  and  C_11
REMARK    8  A    between atoms: N_10  and  C_12
REMARK    9  A    between atoms: C_12  and  C_13
REMARK                            x       y       z     vdW  Elec       q    Type
REMARK                         _______ _______ _______ _____ _____    ______ ____
ROOT
ATOM      1  C   UNL     1       5.233   4.931  17.371  0.00  0.00    +0.000 C 
ATOM      2  C   UNL     1       3.972   4.313  16.649  0.00  0.00    +0.000 C 
ATOM      3  C   UNL     1       3.131   3.839  17.798  0.00  0.00    +0.000 A 
ATOM      4  C   UNL     1       1.769   3.582  17.821  0.00  0.00    +0.000 A 
ATOM      5  C   UNL     1       1.202   3.140  19.020  0.00  0.00    +0.000 A 
ATOM      6  C   UNL     1       2.001   2.935  20.154  0.00  0.00    +0.000 A 
ATOM      7  C   UNL     1       3.377   3.175  20.111  0.00  0.00    +0.000 A 
ATOM      8  C   UNL     1       3.923   3.646  18.927  0.00  0.00    +0.000 A 
ATOM      9  C   UNL     1       5.348   4.002  18.636  0.00  0.00    +0.000 C 
ENDROOT
BRANCH   1  11
ATOM     10  N   UNL     1       6.289   4.894  15.116  0.00  0.00    +0.000 N 
ATOM     11  C   UNL     1       6.491   4.742  16.469  0.00  0.00    +0.000 C 
ATOM     12  O   UNL     1       7.596   4.431  16.913  0.00  0.00    +0.000 OA
ATOM     13  H   UNL     1       5.363   5.100  14.754  0.00  0.00    +0.000 HD
BRANCH  10  14
ATOM     14  C   UNL     1       7.314   4.588  14.130  0.00  0.00    +0.000 C 
BRANCH  14  15
ATOM     15  C   UNL     1       6.662   4.086  12.848  0.00  0.00    +0.000 C 
ATOM     16  O   UNL     1       7.219   4.082  11.752  0.00  0.00    +0.000 OA
BRANCH  15  18
ATOM     17  C   UNL     1       4.652   3.324  11.917  0.00  0.00    +0.000 C 
ATOM     18  O   UNL     1       5.396   3.657  13.092  0.00  0.00    +0.000 OA
ENDBRANCH  15  18
ENDBRANCH  14  15
ENDBRANCH  10  14
ENDBRANCH   1  11
BRANCH   1  19
ATOM     19  N   UNL     1       5.029   6.397  17.714  0.00  0.00    +0.000 NA
ATOM     20  C   UNL     1       6.176   7.276  17.457  0.00  0.00    +0.000 C 
BRANCH  19  21
ATOM     21  C   UNL     1       3.798   6.975  17.118  0.00  0.00    +0.000 C 
BRANCH  21  22
ATOM     22  C   UNL     1       2.901   7.676  18.124  0.00  0.00    +0.000 A 
ATOM     23  C   UNL     1       2.679   7.110  19.390  0.00  0.00    +0.000 A 
ATOM     24  C   UNL     1       1.772   7.695  20.275  0.00  0.00    +0.000 A 
ATOM     25  C   UNL     1       1.088   8.854  19.908  0.00  0.00    +0.000 A 
ATOM     26  C   UNL     1       1.323   9.440  18.666  0.00  0.00    +0.000 A 
ATOM     27  C   UNL     1       2.232   8.860  17.781  0.00  0.00    +0.000 A 
ENDBRANCH  21  22
ENDBRANCH  19  21
ENDBRANCH   1  19
TORSDOF 7
ENDMDL
MODEL 4
REMARK VINA RESULT:      -7.2      2.230      5.505
REMARK  Name = 
REMARK  9 active torsions:
REMARK  status: ('A' for Active; 'I' for Inactive)
REMARK    1  A    between atoms: C_1  and  O_2
REMARK    2  A    between atoms: O_2  and  C_3
REMARK    3  A    between atoms: C_3  and  C_5
REMARK    4  A    between atoms: C_5  and  N_6
REMARK    5  A    between atoms: C_7  and  C_9
REMARK    6  A    between atoms: C_9  and  N_10
REMARK    7  A    between atoms: N_10  and  C_11
REMARK    8  A    between atoms: N_10  and  C_12
REMARK    9  A    between atoms: C_12  and  C_13
REMARK                            x       y       z     vdW  Elec       q    Type
REMARK                         _______ _______ _______ _____ _____    ______ ____
ROOT
ATOM      1  C   UNL     1       5.424   4.767  17.533  0.00  0.00    +0.000 C 
ATOM      2  C   UNL     1       6.923   4.887  17.051  0.00  0.00    +0.000 C 
ATOM      3  C   UNL     1       6.811   4.702  15.567  0.00  0.00    +0.000 A 
ATOM      4  C   UNL     1       7.704   5.089  14.580  0.00  0.00    +0.000 A 
ATOM      5  C   UNL     1       7.382   4.802  13.251  0.00  0.00    +0.000 A 
ATOM      6  C   UNL     1       6.203   4.112  12.935  0.00  0.00    +0.000 A 
ATOM      7  C   UNL     1       5.323   3.706  13.941  0.00  0.00    +0.000 A 
ATOM      8  C   UNL     1       5.634   4.027  15.253  0.00  0.00    +0.000 A 
ATOM      9  C   UNL     1       4.850   3.733  16.494  0.00  0.00    +0.000 C 
ENDROOT
BRANCH   1  11
ATOM     10  N   UNL     1       4.807   2.903  19.063  0.00  0.00    +0.000 N 
ATOM     11  C   UNL     1       5.386   4.147  18.963  0.00  0.00    +0.000 C 
ATOM     12  O   UNL     1       5.800   4.735  19.962  0.00  0.00    +0.000 OA
ATOM     13  H   UNL     1       4.422   2.447  18.242  0.00  0.00    +0.000 HD
BRANCH  10  14
ATOM     14  C   UNL     1       4.542   2.262  20.342  0.00  0.00    +0.000 C 
BRANCH  14  15
ATOM     15  C   UNL     1       3.106   2.539  20.769  0.00  0.00    +0.000 C 
ATOM     16  O   UNL     1       2.768   2.770  21.929  0.00  0.00    +0.000 OA
BRANCH  15  18
ATOM     17  C   UNL     1       1.193   3.425  19.748  0.00  0.00    +0.000 C 
ATOM     18  O   UNL     1       2.270   2.485  19.699  0.00  0.00    +0.000 OA
ENDBRANCH  15  18
ENDBRANCH  14  15
ENDBRANCH  10  14
ENDBRANCH   1  11
BRANCH   1  19
ATOM     19  N   UNL     1       4.710   6.109  17.505  0.00  0.00    +0.000 NA
ATOM     20  C   UNL     1       5.070   6.997  16.394  0.00  0.00    +0.000 C 
BRANCH  19  21
ATOM     21  C   UNL     1       3.233   5.992  17.609  0.00  0.00    +0.000 C 
BRANCH  21  22
ATOM     22  C   UNL     1       2.585   7.112  18.404  0.00  0.00    +0.000 A 
ATOM     23  C   UNL     1       2.337   6.956  19.777  0.00  0.00    +0.000 A 
ATOM     24  C   UNL     1       1.645   7.939  20.486  0.00  0.00    +0.000 A 
ATOM     25  C   UNL     1       1.204   9.090  19.833  0.00  0.00    +0.000 A 
ATOM     26  C   UNL     1       1.470   9.268  18.477  0.00  0.00    +0.000 A 
ATOM     27  C   UNL     1       2.164   8.289  17.766  0.00  0.00    +0.000 A 
ENDBRANCH  21  22
ENDBRANCH  19  21
ENDBRANCH   1  19
TORSDOF 7
ENDMDL
MODEL 5
REMARK VINA RESULT:      -7.2      1.108      1.256
REMARK  Name = 
REMARK  9 active torsions:
REMARK  status: ('A' for Active; 'I' for Inactive)
REMARK    1  A    between atoms: C_1  and  O_2
REMARK    2  A    between atoms: O_2  and  C_3
REMARK    3  A    between atoms: C_3  and  C_5
REMARK    4  A    between atoms: C_5  and  N_6
REMARK    5  A    between atoms: C_7  and  C_9
REMARK    6  A    between atoms: C_9  and  N_10
REMARK    7  A    between atoms: N_10  and  C_11
REMARK    8  A    between atoms: N_10  and  C_12
REMARK    9  A    between atoms: C_12  and  C_13
REMARK                            x       y       z     vdW  Elec       q    Type
REMARK                         _______ _______ _______ _____ _____    ______ ____
ROOT
ATOM      1  C   UNL     1       3.987   4.255  17.888  0.00  0.00    +0.000 C 
ATOM      2  C   UNL     1       2.425   4.033  17.840  0.00  0.00    +0.000 C 
ATOM      3  C   UNL     1       2.116   3.542  19.224  0.00  0.00    +0.000 A 
ATOM      4  C   UNL     1       0.903   3.559  19.894  0.00  0.00    +0.000 A 
ATOM      5  C   UNL     1       0.858   3.037  21.190  0.00  0.00    +0.000 A 
ATOM      6  C   UNL     1       2.006   2.483  21.776  0.00  0.00    +0.000 A 
ATOM      7  C   UNL     1       3.217   2.451  21.080  0.00  0.00    +0.000 A 
ATOM      8  C   UNL     1       3.258   3.003  19.810  0.00  0.00    +0.000 A 
ATOM      9  C   UNL     1       4.428   3.116  18.881  0.00  0.00    +0.000 C 
ENDROOT
BRANCH   1  11
ATOM     10  N   UNL     1       5.956   3.794  16.436  0.00  0.00    +0.000 N 
ATOM     11  C   UNL     1       4.594   3.981  16.478  0.00  0.00    +0.000 C 
ATOM     12  O   UNL     1       3.922   3.976  15.446  0.00  0.00    +0.000 OA
ATOM     13  H   UNL     1       6.510   3.850  17.285  0.00  0.00    +0.000 HD
BRANCH  10  14
ATOM     14  C   UNL     1       6.697   3.695  15.188  0.00  0.00    +0.000 C 
BRANCH  14  15
ATOM     15  C   UNL     1       7.248   5.064  14.807  0.00  0.00    +0.000 C 
ATOM     16  O   UNL     1       7.613   5.908  15.624  0.00  0.00    +0.000 OA
BRANCH  15  18
ATOM     17  C   UNL     1       8.444   5.854  12.955  0.00  0.00    +0.000 C 
ATOM     18  O   UNL     1       7.270   5.211  13.456  0.00  0.00    +0.000 OA
ENDBRANCH  15  18
ENDBRANCH  14  15
ENDBRANCH  10  14
ENDBRANCH   1  11
BRANCH   1  19
ATOM     19  N   UNL     1       4.348   5.651  18.371  0.00  0.00    +0.000 NA
ATOM     20  C   UNL     1       5.783   5.916  18.529  0.00  0.00    +0.000 C 
BRANCH  19  21
ATOM     21  C   UNL     1       3.712   6.731  17.576  0.00  0.00    +0.000 C 
BRANCH  21  22
ATOM     22  C   UNL     1       2.704   7.555  18.359  0.00  0.00    +0.000 A 
ATOM     23  C   UNL     1       2.146   8.714  17.796  0.00  0.00    +0.000 A 
ATOM     24  C   UNL     1       1.303   9.530  18.553  0.00  0.00    +0.000 A 
ATOM     25  C   UNL     1       1.004   9.191  19.872  0.00  0.00    +0.000 A 
ATOM     26  C   UNL     1       1.529   8.027  20.431  0.00  0.00    +0.000 A 
ATOM     27  C   UNL     1       2.368   7.208  19.676  0.00  0.00    +0.000 A 
ENDBRANCH  21  22
ENDBRANCH  19  21
ENDBRANCH   1  19
TORSDOF 7
ENDMDL
MODEL 6
REMARK VINA RESULT:      -7.2      1.077      1.457
REMARK  Name = 
REMARK  9 active torsions:
REMARK  status: ('A' for Active; 'I' for Inactive)
REMARK    1  A    between atoms: C_1  and  O_2
REMARK    2  A    between atoms: O_2  and  C_3
REMARK    3  A    between atoms: C_3  and  C_5
REMARK    4  A    between atoms: C_5  and  N_6
REMARK    5  A    between atoms: C_7  and  C_9
REMARK    6  A    between atoms: C_9  and  N_10
REMARK    7  A    between atoms: N_10  and  C_11
REMARK    8  A    between atoms: N_10  and  C_12
REMARK    9  A    between atoms: C_12  and  C_13
REMARK                            x       y       z     vdW  Elec       q    Type
REMARK                         _______ _______ _______ _____ _____    ______ ____
ROOT
ATOM      1  C   UNL     1       3.874   4.427  17.843  0.00  0.00    +0.000 C 
ATOM      2  C   UNL     1       2.411   3.848  17.716  0.00  0.00    +0.000 C 
ATOM      3  C   UNL     1       2.094   3.434  19.122  0.00  0.00    +0.000 A 
ATOM      4  C   UNL     1       0.851   3.236  19.703  0.00  0.00    +0.000 A 
ATOM      5  C   UNL     1       0.805   2.844  21.044  0.00  0.00    +0.000 A 
ATOM      6  C   UNL     1       1.988   2.630  21.766  0.00  0.00    +0.000 A 
ATOM      7  C   UNL     1       3.235   2.810  21.162  0.00  0.00    +0.000 A 
ATOM      8  C   UNL     1       3.269   3.233  19.842  0.00  0.00    +0.000 A 
ATOM      9  C   UNL     1       4.464   3.521  18.988  0.00  0.00    +0.000 C 
ENDROOT
BRANCH   1  11
ATOM     10  N   UNL     1       5.977   3.817  16.658  0.00  0.00    +0.000 N 
ATOM     11  C   UNL     1       4.654   4.167  16.518  0.00  0.00    +0.000 C 
ATOM     12  O   UNL     1       4.149   4.304  15.403  0.00  0.00    +0.000 OA
ATOM     13  H   UNL     1       6.398   3.755  17.579  0.00  0.00    +0.000 HD
BRANCH  10  14
ATOM     14  C   UNL     1       6.883   3.704  15.525  0.00  0.00    +0.000 C 
BRANCH  14  15
ATOM     15  C   UNL     1       7.258   5.093  15.025  0.00  0.00    +0.000 C 
ATOM     16  O   UNL     1       7.695   5.987  15.747  0.00  0.00    +0.000 OA
BRANCH  15  18
ATOM     17  C   UNL     1       6.660   3.968  13.060  0.00  0.00    +0.000 C 
ATOM     18  O   UNL     1       7.036   5.196  13.688  0.00  0.00    +0.000 OA
ENDBRANCH  15  18
ENDBRANCH  14  15
ENDBRANCH  10  14
ENDBRANCH   1  11
BRANCH   1  19
ATOM     19  N   UNL     1       3.871   5.908  18.187  0.00  0.00    +0.000 NA
ATOM     20  C   UNL     1       5.044   6.667  17.737  0.00  0.00    +0.000 C 
BRANCH  19  21
ATOM     21  C   UNL     1       2.624   6.604  17.777  0.00  0.00    +0.000 C 
BRANCH  21  22
ATOM     22  C   UNL     1       2.086   7.562  18.826  0.00  0.00    +0.000 A 
ATOM     23  C   UNL     1       1.886   7.128  20.146  0.00  0.00    +0.000 A 
ATOM     24  C   UNL     1       1.291   7.973  21.084  0.00  0.00    +0.000 A 
ATOM     25  C   UNL     1       0.900   9.260  20.715  0.00  0.00    +0.000 A 
ATOM     26  C   UNL     1       1.121   9.711  19.415  0.00  0.00    +0.000 A 
ATOM     27  C   UNL     1       1.719   8.870  18.476  0.00  0.00    +0.000 A 
ENDBRANCH  21  22
ENDBRANCH  19  21
ENDBRANCH   1  19
TORSDOF 7
ENDMDL
MODEL 7
REMARK VINA RESULT:      -7.1      3.034      6.351
REMARK  Name = 
REMARK  9 active torsions:
REMARK  status: ('A' for Active; 'I' for Inactive)
REMARK    1  A    between atoms: C_1  and  O_2
REMARK    2  A    between atoms: O_2  and  C_3
REMARK    3  A    between atoms: C_3  and  C_5
REMARK    4  A    between atoms: C_5  and  N_6
REMARK    5  A    between atoms: C_7  and  C_9
REMARK    6  A    between atoms: C_9  and  N_10
REMARK    7  A    between atoms: N_10  and  C_11
REMARK    8  A    between atoms: N_10  and  C_12
REMARK    9  A    between atoms: C_12  and  C_13
REMARK                            x       y       z     vdW  Elec       q    Type
REMARK                         _______ _______ _______ _____ _____    ______ ____
ROOT
ATOM      1  C   UNL     1       3.222   5.999  18.381  0.00  0.00    +0.000 C 
ATOM      2  C   UNL     1       2.850   6.041  19.914  0.00  0.00    +0.000 C 
ATOM      3  C   UNL     1       2.235   4.693  20.145  0.00  0.00    +0.000 A 
ATOM      4  C   UNL     1       2.085   4.007  21.340  0.00  0.00    +0.000 A 
ATOM      5  C   UNL     1       1.470   2.752  21.307  0.00  0.00    +0.000 A 
ATOM      6  C   UNL     1       0.994   2.222  20.099  0.00  0.00    +0.000 A 
ATOM      7  C   UNL     1       1.130   2.935  18.904  0.00  0.00    +0.000 A 
ATOM      8  C   UNL     1       1.772   4.162  18.943  0.00  0.00    +0.000 A 
ATOM      9  C   UNL     1       2.065   5.096  17.810  0.00  0.00    +0.000 C 
ENDROOT
BRANCH   1  11
ATOM     10  N   UNL     1       2.254   8.292  18.429  0.00  0.00    +0.000 N 
ATOM     11  C   UNL     1       3.110   7.433  17.779  0.00  0.00    +0.000 C 
ATOM     12  O   UNL     1       3.705   7.783  16.760  0.00  0.00    +0.000 OA
ATOM     13  H   UNL     1       1.728   7.979  19.239  0.00  0.00    +0.000 HD
BRANCH  10  14
ATOM     14  C   UNL     1       1.909   9.603  17.903  0.00  0.00    +0.000 C 
BRANCH  14  15
ATOM     15  C   UNL     1       0.558  10.041  18.456  0.00  0.00    +0.000 C 
ATOM     16  O   UNL     1      -0.503   9.929  17.844  0.00  0.00    +0.000 OA
BRANCH  15  18
ATOM     17  C   UNL     1      -0.325  10.191  20.620  0.00  0.00    +0.000 C 
ATOM     18  O   UNL     1       0.700  10.571  19.700  0.00  0.00    +0.000 OA
ENDBRANCH  15  18
ENDBRANCH  14  15
ENDBRANCH  10  14
ENDBRANCH   1  11
BRANCH   1  19
ATOM     19  N   UNL     1       4.609   5.421  18.148  0.00  0.00    +0.000 NA
ATOM     20  C   UNL     1       5.385   5.127  19.359  0.00  0.00    +0.000 C 
BRANCH  19  21
ATOM     21  C   UNL     1       4.612   4.247  17.240  0.00  0.00    +0.000 C 
BRANCH  21  22
ATOM     22  C   UNL     1       5.443   4.447  15.983  0.00  0.00    +0.000 A 
ATOM     23  C   UNL     1       5.029   3.889  14.764  0.00  0.00    +0.000 A 
ATOM     24  C   UNL     1       5.843   3.980  13.634  0.00  0.00    +0.000 A 
ATOM     25  C   UNL     1       7.072   4.636  13.710  0.00  0.00    +0.000 A 
ATOM     26  C   UNL     1       7.479   5.219  14.908  0.00  0.00    +0.000 A 
ATOM     27  C   UNL     1       6.666   5.133  16.039  0.00  0.00    +0.000 A 
ENDBRANCH  21  22
ENDBRANCH  19  21
ENDBRANCH   1  19
TORSDOF 7
ENDMDL
MODEL 8
REMARK VINA RESULT:      -7.0      3.091      6.349
REMARK  Name = 
REMARK  9 active torsions:
REMARK  status: ('A' for Active; 'I' for Inactive)
REMARK    1  A    between atoms: C_1  and  O_2
REMARK    2  A    between atoms: O_2  and  C_3
REMARK    3  A    between atoms: C_3  and  C_5
REMARK    4  A    between atoms: C_5  and  N_6
REMARK    5  A    between atoms: C_7  and  C_9
REMARK    6  A    between atoms: C_9  and  N_10
REMARK    7  A    between atoms: N_10  and  C_11
REMARK    8  A    between atoms: N_10  and  C_12
REMARK    9  A    between atoms: C_12  and  C_13
REMARK                            x       y       z     vdW  Elec       q    Type
REMARK                         _______ _______ _______ _____ _____    ______ ____
ROOT
ATOM      1  C   UNL     1       3.203   6.033  18.410  0.00  0.00    +0.000 C 
ATOM      2  C   UNL     1       2.844   6.067  19.947  0.00  0.00    +0.000 C 
ATOM      3  C   UNL     1       2.236   4.715  20.176  0.00  0.00    +0.000 A 
ATOM      4  C   UNL     1       2.097   4.023  21.369  0.00  0.00    +0.000 A 
ATOM      5  C   UNL     1       1.487   2.766  21.334  0.00  0.00    +0.000 A 
ATOM      6  C   UNL     1       1.003   2.241  20.128  0.00  0.00    +0.000 A 
ATOM      7  C   UNL     1       1.126   2.959  18.936  0.00  0.00    +0.000 A 
ATOM      8  C   UNL     1       1.765   4.189  18.976  0.00  0.00    +0.000 A 
ATOM      9  C   UNL     1       2.045   5.130  17.845  0.00  0.00    +0.000 C 
ENDROOT
BRANCH   1  11
ATOM     10  N   UNL     1       2.117   8.273  18.381  0.00  0.00    +0.000 N 
ATOM     11  C   UNL     1       3.081   7.471  17.817  0.00  0.00    +0.000 C 
ATOM     12  O   UNL     1       3.762   7.868  16.871  0.00  0.00    +0.000 OA
ATOM     13  H   UNL     1       1.525   7.921  19.127  0.00  0.00    +0.000 HD
BRANCH  10  14
ATOM     14  C   UNL     1       1.762   9.575  17.837  0.00  0.00    +0.000 C 
BRANCH  14  15
ATOM     15  C   UNL     1       0.754  10.259  18.752  0.00  0.00    +0.000 C 
ATOM     16  O   UNL     1       1.052  10.807  19.811  0.00  0.00    +0.000 OA
BRANCH  15  18
ATOM     17  C   UNL     1      -1.314  11.320  18.464  0.00  0.00    +0.000 C 
ATOM     18  O   UNL     1      -0.500  10.168  18.236  0.00  0.00    +0.000 OA
ENDBRANCH  15  18
ENDBRANCH  14  15
ENDBRANCH  10  14
ENDBRANCH   1  11
BRANCH   1  19
ATOM     19  N   UNL     1       4.590   5.462  18.163  0.00  0.00    +0.000 NA
ATOM     20  C   UNL     1       5.405   5.233  19.362  0.00  0.00    +0.000 C 
BRANCH  19  21
ATOM     21  C   UNL     1       4.582   4.247  17.310  0.00  0.00    +0.000 C 
BRANCH  21  22
ATOM     22  C   UNL     1       5.487   4.347  16.094  0.00  0.00    +0.000 A 
ATOM     23  C   UNL     1       6.689   5.070  16.163  0.00  0.00    +0.000 A 
ATOM     24  C   UNL     1       7.469   5.253  15.020  0.00  0.00    +0.000 A 
ATOM     25  C   UNL     1       7.060   4.709  13.802  0.00  0.00    +0.000 A 
ATOM     26  C   UNL     1       5.884   3.965  13.729  0.00  0.00    +0.000 A 
ATOM     27  C   UNL     1       5.105   3.777  14.871  0.00  0.00    +0.000 A 
ENDBRANCH  21  22
ENDBRANCH  19  21
ENDBRANCH   1  19
TORSDOF 7
ENDMDL
MODEL 9
REMARK VINA RESULT:      -6.8      2.658      5.839
REMARK  Name = 
REMARK  9 active torsions:
REMARK  status: ('A' for Active; 'I' for Inactive)
REMARK    1  A    between atoms: C_1  and  O_2
REMARK    2  A    between atoms: O_2  and  C_3
REMARK    3  A    between atoms: C_3  and  C_5
REMARK    4  A    between atoms: C_5  and  N_6
REMARK    5  A    between atoms: C_7  and  C_9
REMARK    6  A    between atoms: C_9  and  N_10
REMARK    7  A    between atoms: N_10  and  C_11
REMARK    8  A    between atoms: N_10  and  C_12
REMARK    9  A    between atoms: C_12  and  C_13
REMARK                            x       y       z     vdW  Elec       q    Type
REMARK                         _______ _______ _______ _____ _____    ______ ____
ROOT
ATOM      1  C   UNL     1       5.503   4.693  17.718  0.00  0.00    +0.000 C 
ATOM      2  C   UNL     1       6.981   4.878  17.193  0.00  0.00    +0.000 C 
ATOM      3  C   UNL     1       6.837   4.671  15.714  0.00  0.00    +0.000 A 
ATOM      4  C   UNL     1       7.682   5.090  14.699  0.00  0.00    +0.000 A 
ATOM      5  C   UNL     1       7.337   4.774  13.381  0.00  0.00    +0.000 A 
ATOM      6  C   UNL     1       6.183   4.026  13.106  0.00  0.00    +0.000 A 
ATOM      7  C   UNL     1       5.352   3.589  14.141  0.00  0.00    +0.000 A 
ATOM      8  C   UNL     1       5.685   3.938  15.440  0.00  0.00    +0.000 A 
ATOM      9  C   UNL     1       4.951   3.621  16.706  0.00  0.00    +0.000 C 
ENDROOT
BRANCH   1  11
ATOM     10  N   UNL     1       4.740   2.983  19.358  0.00  0.00    +0.000 N 
ATOM     11  C   UNL     1       5.535   4.087  19.155  0.00  0.00    +0.000 C 
ATOM     12  O   UNL     1       6.187   4.576  20.077  0.00  0.00    +0.000 OA
ATOM     13  H   UNL     1       4.166   2.616  18.606  0.00  0.00    +0.000 HD
BRANCH  10  14
ATOM     14  C   UNL     1       4.526   2.402  20.675  0.00  0.00    +0.000 C 
BRANCH  14  15
ATOM     15  C   UNL     1       5.300   1.094  20.792  0.00  0.00    +0.000 C 
ATOM     16  O   UNL     1       5.355   0.248  19.902  0.00  0.00    +0.000 OA
BRANCH  15  18
ATOM     17  C   UNL     1       6.452  -0.285  22.294  0.00  0.00    +0.000 C 
ATOM     18  O   UNL     1       5.901   1.002  22.008  0.00  0.00    +0.000 OA
ENDBRANCH  15  18
ENDBRANCH  14  15
ENDBRANCH  10  14
ENDBRANCH   1  11
BRANCH   1  19
ATOM     19  N   UNL     1       4.726   5.999  17.698  0.00  0.00    +0.000 NA
ATOM     20  C   UNL     1       5.345   7.095  16.943  0.00  0.00    +0.000 C 
BRANCH  19  21
ATOM     21  C   UNL     1       3.308   5.833  17.289  0.00  0.00    +0.000 C 
BRANCH  21  22
ATOM     22  C   UNL     1       2.422   5.248  18.377  0.00  0.00    +0.000 A 
ATOM     23  C   UNL     1       2.440   5.790  19.672  0.00  0.00    +0.000 A 
ATOM     24  C   UNL     1       1.709   5.189  20.698  0.00  0.00    +0.000 A 
ATOM     25  C   UNL     1       0.948   4.049  20.438  0.00  0.00    +0.000 A 
ATOM     26  C   UNL     1       0.901   3.520  19.149  0.00  0.00    +0.000 A 
ATOM     27  C   UNL     1       1.627   4.121  18.120  0.00  0.00    +0.000 A 
ENDBRANCH  21  22
ENDBRANCH  19  21
ENDBRANCH   1  19
TORSDOF 7
ENDMDL
