MODEL 1
REMARK VINA RESULT:      -7.1      0.000      0.000
REMARK  Name = 
REMARK  3 active torsions:
REMARK  status: ('A' for Active; 'I' for Inactive)
REMARK    1  A    between atoms: C_5  and  O_6
REMARK    2  A    between atoms: C_11  and  O_12
REMARK    3  A    between atoms: C_13  and  C_14
REMARK                            x       y       z     vdW  Elec       q    Type
REMARK                         _______ _______ _______ _____ _____    ______ ____
ROOT
ATOM      1  O   UNL     1       4.805   5.828  19.937  0.00  0.00    +0.000 OA
ATOM      2  C   UNL     1       4.912   5.204  18.884  0.00  0.00    +0.000 A 
ATOM      3  N   UNL     1       5.835   5.592  17.957  0.00  0.00    +0.000 N 
ATOM      4  C   UNL     1       5.997   4.981  16.709  0.00  0.00    +0.000 A 
ATOM      5  C   UNL     1       6.940   5.492  15.807  0.00  0.00    +0.000 A 
ATOM      6  C   UNL     1       7.051   4.969  14.527  0.00  0.00    +0.000 A 
ATOM      7  C   UNL     1       6.245   3.897  14.158  0.00  0.00    +0.000 A 
ATOM      8  C   UNL     1       5.329   3.352  15.068  0.00  0.00    +0.000 A 
ATOM      9  C   UNL     1       5.181   3.889  16.359  0.00  0.00    +0.000 A 
ATOM     10  C   UNL     1       4.206   3.398  17.365  0.00  0.00    +0.000 A 
ATOM     11  C   UNL     1       4.065   4.019  18.555  0.00  0.00    +0.000 A 
ATOM     12  H   UNL     1       6.326   6.443  18.191  0.00  0.00    +0.000 HD
ENDROOT
BRANCH  11  13
ATOM     13  C   UNL     1       3.046   3.587  19.530  0.00  0.00    +0.000 A 
ATOM     14  C   UNL     1       3.380   2.731  20.586  0.00  0.00    +0.000 A 
ATOM     15  C   UNL     1       2.416   2.371  21.530  0.00  0.00    +0.000 A 
ATOM     16  C   UNL     1       1.114   2.860  21.423  0.00  0.00    +0.000 A 
ATOM     17  C   UNL     1       0.771   3.705  20.368  0.00  0.00    +0.000 A 
ATOM     18  C   UNL     1       1.733   4.066  19.423  0.00  0.00    +0.000 A 
ENDBRANCH  11  13
BRANCH   5  19
ATOM     19  O   UNL     1       7.793   6.505  16.141  0.00  0.00    +0.000 OA
ATOM     20  H   UNL     1       8.693   6.215  15.916  0.00  0.00    +0.000 HD
ENDBRANCH   5  19
BRANCH  10  21
ATOM     21  O   UNL     1       3.421   2.296  17.060  0.00  0.00    +0.000 OA
ATOM     22  H   UNL     1       3.476   1.627  17.754  0.00  0.00    +0.000 HD
ENDBRANCH  10  21
TORSDOF 3
ENDMDL
MODEL 2
REMARK VINA RESULT:      -7.0      1.577      5.897
REMARK  Name = 
REMARK  3 active torsions:
REMARK  status: ('A' for Active; 'I' for Inactive)
REMARK    1  A    between atoms: C_5  and  O_6
REMARK    2  A    between atoms: C_11  and  O_12
REMARK    3  A    between atoms: C_13  and  C_14
REMARK                            x       y       z     vdW  Elec       q    Type
REMARK                         _______ _______ _______ _____ _____    ______ ____
ROOT
ATOM      1  O   UNL     1       4.389   7.110  17.143  0.00  0.00    +0.000 OA
ATOM      2  C   UNL     1       4.074   6.054  17.686  0.00  0.00    +0.000 A 
ATOM      3  N   UNL     1       3.302   6.074  18.811  0.00  0.00    +0.000 N 
ATOM      4  C   UNL     1       2.935   4.931  19.530  0.00  0.00    +0.000 A 
ATOM      5  C   UNL     1       2.184   5.066  20.704  0.00  0.00    +0.000 A 
ATOM      6  C   UNL     1       1.892   3.961  21.490  0.00  0.00    +0.000 A 
ATOM      7  C   UNL     1       2.315   2.702  21.076  0.00  0.00    +0.000 A 
ATOM      8  C   UNL     1       3.031   2.552  19.880  0.00  0.00    +0.000 A 
ATOM      9  C   UNL     1       3.362   3.665  19.088  0.00  0.00    +0.000 A 
ATOM     10  C   UNL     1       4.152   3.597  17.833  0.00  0.00    +0.000 A 
ATOM     11  C   UNL     1       4.502   4.719  17.170  0.00  0.00    +0.000 A 
ATOM     12  H   UNL     1       3.106   7.000  19.163  0.00  0.00    +0.000 HD
ENDROOT
BRANCH  11  13
ATOM     13  C   UNL     1       5.351   4.667  15.966  0.00  0.00    +0.000 A 
ATOM     14  C   UNL     1       6.711   4.993  16.031  0.00  0.00    +0.000 A 
ATOM     15  C   UNL     1       7.514   4.889  14.893  0.00  0.00    +0.000 A 
ATOM     16  C   UNL     1       6.963   4.465  13.684  0.00  0.00    +0.000 A 
ATOM     17  C   UNL     1       5.607   4.150  13.608  0.00  0.00    +0.000 A 
ATOM     18  C   UNL     1       4.802   4.252  14.744  0.00  0.00    +0.000 A 
ENDBRANCH  11  13
BRANCH   5  19
ATOM     19  O   UNL     1       1.696   6.272  21.123  0.00  0.00    +0.000 OA
ATOM     20  H   UNL     1       1.813   6.315  22.087  0.00  0.00    +0.000 HD
ENDBRANCH   5  19
BRANCH  10  21
ATOM     21  O   UNL     1       4.549   2.357  17.353  0.00  0.00    +0.000 OA
ATOM     22  H   UNL     1       4.600   2.357  16.389  0.00  0.00    +0.000 HD
ENDBRANCH  10  21
TORSDOF 3
ENDMDL
MODEL 3
REMARK VINA RESULT:      -7.0      1.555      5.966
REMARK  Name = 
REMARK  3 active torsions:
REMARK  status: ('A' for Active; 'I' for Inactive)
REMARK    1  A    between atoms: C_5  and  O_6
REMARK    2  A    between atoms: C_11  and  O_12
REMARK    3  A    between atoms: C_13  and  C_14
REMARK                            x       y       z     vdW  Elec       q    Type
REMARK                         _______ _______ _______ _____ _____    ______ ____
ROOT
ATOM      1  O   UNL     1       4.435   7.061  17.149  0.00  0.00    +0.000 OA
ATOM      2  C   UNL     1       4.097   6.014  17.697  0.00  0.00    +0.000 A 
ATOM      3  N   UNL     1       3.311   6.056  18.812  0.00  0.00    +0.000 N 
ATOM      4  C   UNL     1       2.918   4.925  19.536  0.00  0.00    +0.000 A 
ATOM      5  C   UNL     1       2.153   5.082  20.699  0.00  0.00    +0.000 A 
ATOM      6  C   UNL     1       1.835   3.988  21.490  0.00  0.00    +0.000 A 
ATOM      7  C   UNL     1       2.244   2.719  21.093  0.00  0.00    +0.000 A 
ATOM      8  C   UNL     1       2.972   2.548  19.908  0.00  0.00    +0.000 A 
ATOM      9  C   UNL     1       3.331   3.649  19.110  0.00  0.00    +0.000 A 
ATOM     10  C   UNL     1       4.136   3.557  17.866  0.00  0.00    +0.000 A 
ATOM     11  C   UNL     1       4.511   4.669  17.199  0.00  0.00    +0.000 A 
ATOM     12  H   UNL     1       3.126   6.988  19.154  0.00  0.00    +0.000 HD
ENDROOT
BRANCH  11  13
ATOM     13  C   UNL     1       5.375   4.593  16.006  0.00  0.00    +0.000 A 
ATOM     14  C   UNL     1       4.855   4.207  14.765  0.00  0.00    +0.000 A 
ATOM     15  C   UNL     1       5.674   4.189  13.634  0.00  0.00    +0.000 A 
ATOM     16  C   UNL     1       7.018   4.551  13.737  0.00  0.00    +0.000 A 
ATOM     17  C   UNL     1       7.546   4.924  14.972  0.00  0.00    +0.000 A 
ATOM     18  C   UNL     1       6.729   4.944  16.104  0.00  0.00    +0.000 A 
ENDBRANCH  11  13
BRANCH   5  19
ATOM     19  O   UNL     1       1.679   6.299  21.101  0.00  0.00    +0.000 OA
ATOM     20  H   UNL     1       2.446   6.881  21.236  0.00  0.00    +0.000 HD
ENDBRANCH   5  19
BRANCH  10  21
ATOM     21  O   UNL     1       4.519   2.308  17.402  0.00  0.00    +0.000 OA
ATOM     22  H   UNL     1       4.005   1.608  17.824  0.00  0.00    +0.000 HD
ENDBRANCH  10  21
TORSDOF 3
ENDMDL
MODEL 4
REMARK VINA RESULT:      -7.0      0.083      1.112
REMARK  Name = 
REMARK  3 active torsions:
REMARK  status: ('A' for Active; 'I' for Inactive)
REMARK    1  A    between atoms: C_5  and  O_6
REMARK    2  A    between atoms: C_11  and  O_12
REMARK    3  A    between atoms: C_13  and  C_14
REMARK                            x       y       z     vdW  Elec       q    Type
REMARK                         _______ _______ _______ _____ _____    ______ ____
ROOT
ATOM      1  O   UNL     1       4.906   5.854  19.912  0.00  0.00    +0.000 OA
ATOM      2  C   UNL     1       4.969   5.229  18.856  0.00  0.00    +0.000 A 
ATOM      3  N   UNL     1       5.888   5.584  17.911  0.00  0.00    +0.000 N 
ATOM      4  C   UNL     1       6.001   4.970  16.659  0.00  0.00    +0.000 A 
ATOM      5  C   UNL     1       6.945   5.447  15.740  0.00  0.00    +0.000 A 
ATOM      6  C   UNL     1       7.012   4.924  14.457  0.00  0.00    +0.000 A 
ATOM      7  C   UNL     1       6.159   3.884  14.102  0.00  0.00    +0.000 A 
ATOM      8  C   UNL     1       5.241   3.372  15.029  0.00  0.00    +0.000 A 
ATOM      9  C   UNL     1       5.139   3.911  16.324  0.00  0.00    +0.000 A 
ATOM     10  C   UNL     1       4.165   3.455  17.348  0.00  0.00    +0.000 A 
ATOM     11  C   UNL     1       4.071   4.078  18.542  0.00  0.00    +0.000 A 
ATOM     12  H   UNL     1       6.415   6.415  18.137  0.00  0.00    +0.000 HD
ENDROOT
BRANCH  11  13
ATOM     13  C   UNL     1       3.056   3.682  19.535  0.00  0.00    +0.000 A 
ATOM     14  C   UNL     1       1.741   4.153  19.445  0.00  0.00    +0.000 A 
ATOM     15  C   UNL     1       0.778   3.730  20.364  0.00  0.00    +0.000 A 
ATOM     16  C   UNL     1       1.124   2.838  21.380  0.00  0.00    +0.000 A 
ATOM     17  C   UNL     1       2.435   2.374  21.484  0.00  0.00    +0.000 A 
ATOM     18  C   UNL     1       3.399   2.795  20.566  0.00  0.00    +0.000 A 
ENDBRANCH  11  13
BRANCH   5  19
ATOM     19  O   UNL     1       7.843   6.426  16.059  0.00  0.00    +0.000 OA
ATOM     20  H   UNL     1       7.361   7.118  16.543  0.00  0.00    +0.000 HD
ENDBRANCH   5  19
BRANCH  10  21
ATOM     21  O   UNL     1       3.333   2.385  17.057  0.00  0.00    +0.000 OA
ATOM     22  H   UNL     1       2.838   2.541  16.243  0.00  0.00    +0.000 HD
ENDBRANCH  10  21
TORSDOF 3
ENDMDL
MODEL 5
REMARK VINA RESULT:      -6.9      1.816      2.794
REMARK  Name = 
REMARK  3 active torsions:
REMARK  status: ('A' for Active; 'I' for Inactive)
REMARK    1  A    between atoms: C_5  and  O_6
REMARK    2  A    between atoms: C_11  and  O_12
REMARK    3  A    between atoms: C_13  and  C_14
REMARK                            x       y       z     vdW  Elec       q    Type
REMARK                         _______ _______ _______ _____ _____    ______ ____
ROOT
ATOM      1  O   UNL     1       6.857   6.726  17.658  0.00  0.00    +0.000 OA
ATOM      2  C   UNL     1       6.541   5.964  16.747  0.00  0.00    +0.000 A 
ATOM      3  N   UNL     1       7.302   5.910  15.615  0.00  0.00    +0.000 N 
ATOM      4  C   UNL     1       6.996   5.116  14.504  0.00  0.00    +0.000 A 
ATOM      5  C   UNL     1       7.815   5.174  13.369  0.00  0.00    +0.000 A 
ATOM      6  C   UNL     1       7.481   4.475  12.218  0.00  0.00    +0.000 A 
ATOM      7  C   UNL     1       6.343   3.676  12.214  0.00  0.00    +0.000 A 
ATOM      8  C   UNL     1       5.541   3.578  13.360  0.00  0.00    +0.000 A 
ATOM      9  C   UNL     1       5.848   4.304  14.525  0.00  0.00    +0.000 A 
ATOM     10  C   UNL     1       5.028   4.289  15.762  0.00  0.00    +0.000 A 
ATOM     11  C   UNL     1       5.342   5.078  16.812  0.00  0.00    +0.000 A 
ATOM     12  H   UNL     1       8.053   6.584  15.587  0.00  0.00    +0.000 HD
ENDROOT
BRANCH  11  13
ATOM     13  C   UNL     1       4.491   5.128  18.016  0.00  0.00    +0.000 A 
ATOM     14  C   UNL     1       3.535   6.138  18.178  0.00  0.00    +0.000 A 
ATOM     15  C   UNL     1       2.702   6.143  19.299  0.00  0.00    +0.000 A 
ATOM     16  C   UNL     1       2.821   5.144  20.265  0.00  0.00    +0.000 A 
ATOM     17  C   UNL     1       3.779   4.142  20.116  0.00  0.00    +0.000 A 
ATOM     18  C   UNL     1       4.613   4.134  18.997  0.00  0.00    +0.000 A 
ENDBRANCH  11  13
BRANCH   5  19
ATOM     19  O   UNL     1       8.973   5.898  13.342  0.00  0.00    +0.000 OA
ATOM     20  H   UNL     1       8.892   6.552  12.626  0.00  0.00    +0.000 HD
ENDBRANCH   5  19
BRANCH  10  21
ATOM     21  O   UNL     1       3.914   3.464  15.823  0.00  0.00    +0.000 OA
ATOM     22  H   UNL     1       3.214   3.865  16.353  0.00  0.00    +0.000 HD
ENDBRANCH  10  21
TORSDOF 3
ENDMDL
MODEL 6
REMARK VINA RESULT:      -6.8      1.865      2.592
REMARK  Name = 
REMARK  3 active torsions:
REMARK  status: ('A' for Active; 'I' for Inactive)
REMARK    1  A    between atoms: C_5  and  O_6
REMARK    2  A    between atoms: C_11  and  O_12
REMARK    3  A    between atoms: C_13  and  C_14
REMARK                            x       y       z     vdW  Elec       q    Type
REMARK                         _______ _______ _______ _____ _____    ______ ____
ROOT
ATOM      1  O   UNL     1       6.782   6.758  17.657  0.00  0.00    +0.000 OA
ATOM      2  C   UNL     1       6.482   5.987  16.747  0.00  0.00    +0.000 A 
ATOM      3  N   UNL     1       7.262   5.923  15.629  0.00  0.00    +0.000 N 
ATOM      4  C   UNL     1       6.976   5.119  14.520  0.00  0.00    +0.000 A 
ATOM      5  C   UNL     1       7.814   5.167  13.399  0.00  0.00    +0.000 A 
ATOM      6  C   UNL     1       7.500   4.457  12.249  0.00  0.00    +0.000 A 
ATOM      7  C   UNL     1       6.362   3.657  12.233  0.00  0.00    +0.000 A 
ATOM      8  C   UNL     1       5.541   3.569  13.366  0.00  0.00    +0.000 A 
ATOM      9  C   UNL     1       5.828   4.306  14.529  0.00  0.00    +0.000 A 
ATOM     10  C   UNL     1       4.987   4.302  15.753  0.00  0.00    +0.000 A 
ATOM     11  C   UNL     1       5.282   5.100  16.800  0.00  0.00    +0.000 A 
ATOM     12  H   UNL     1       8.013   6.597  15.608  0.00  0.00    +0.000 HD
ENDROOT
BRANCH  11  13
ATOM     13  C   UNL     1       4.411   5.161  17.988  0.00  0.00    +0.000 A 
ATOM     14  C   UNL     1       4.534   4.221  19.018  0.00  0.00    +0.000 A 
ATOM     15  C   UNL     1       3.736   4.322  20.160  0.00  0.00    +0.000 A 
ATOM     16  C   UNL     1       2.809   5.358  20.278  0.00  0.00    +0.000 A 
ATOM     17  C   UNL     1       2.673   6.291  19.251  0.00  0.00    +0.000 A 
ATOM     18  C   UNL     1       3.469   6.193  18.109  0.00  0.00    +0.000 A 
ENDBRANCH  11  13
BRANCH   5  19
ATOM     19  O   UNL     1       8.972   5.892  13.385  0.00  0.00    +0.000 OA
ATOM     20  H   UNL     1       9.120   6.187  12.470  0.00  0.00    +0.000 HD
ENDBRANCH   5  19
BRANCH  10  21
ATOM     21  O   UNL     1       3.873   3.477  15.802  0.00  0.00    +0.000 OA
ATOM     22  H   UNL     1       4.128   2.558  15.954  0.00  0.00    +0.000 HD
ENDBRANCH  10  21
TORSDOF 3
ENDMDL
MODEL 7
REMARK VINA RESULT:      -6.8      4.640      7.019
REMARK  Name = 
REMARK  3 active torsions:
REMARK  status: ('A' for Active; 'I' for Inactive)
REMARK    1  A    between atoms: C_5  and  O_6
REMARK    2  A    between atoms: C_11  and  O_12
REMARK    3  A    between atoms: C_13  and  C_14
REMARK                            x       y       z     vdW  Elec       q    Type
REMARK                         _______ _______ _______ _____ _____    ______ ____
ROOT
ATOM      1  O   UNL     1       2.588   8.520  17.068  0.00  0.00    +0.000 OA
ATOM      2  C   UNL     1       2.125   8.484  18.206  0.00  0.00    +0.000 A 
ATOM      3  N   UNL     1       1.475   9.574  18.708  0.00  0.00    +0.000 N 
ATOM      4  C   UNL     1       0.961   9.649  20.008  0.00  0.00    +0.000 A 
ATOM      5  C   UNL     1       0.357  10.836  20.442  0.00  0.00    +0.000 A 
ATOM      6  C   UNL     1      -0.071  10.974  21.755  0.00  0.00    +0.000 A 
ATOM      7  C   UNL     1       0.064   9.901  22.630  0.00  0.00    +0.000 A 
ATOM      8  C   UNL     1       0.628   8.695  22.191  0.00  0.00    +0.000 A 
ATOM      9  C   UNL     1       1.095   8.549  20.873  0.00  0.00    +0.000 A 
ATOM     10  C   UNL     1       1.743   7.322  20.344  0.00  0.00    +0.000 A 
ATOM     11  C   UNL     1       2.241   7.286  19.090  0.00  0.00    +0.000 A 
ATOM     12  H   UNL     1       1.493  10.383  18.104  0.00  0.00    +0.000 HD
ENDROOT
BRANCH  11  13
ATOM     13  C   UNL     1       2.954   6.100  18.581  0.00  0.00    +0.000 A 
ATOM     14  C   UNL     1       4.336   5.961  18.757  0.00  0.00    +0.000 A 
ATOM     15  C   UNL     1       4.988   4.809  18.315  0.00  0.00    +0.000 A 
ATOM     16  C   UNL     1       4.267   3.791  17.691  0.00  0.00    +0.000 A 
ATOM     17  C   UNL     1       2.892   3.927  17.501  0.00  0.00    +0.000 A 
ATOM     18  C   UNL     1       2.237   5.077  17.943  0.00  0.00    +0.000 A 
ENDBRANCH  11  13
BRANCH   5  19
ATOM     19  O   UNL     1       0.150  11.897  19.607  0.00  0.00    +0.000 OA
ATOM     20  H   UNL     1      -0.492  11.617  18.932  0.00  0.00    +0.000 HD
ENDBRANCH   5  19
BRANCH  10  21
ATOM     21  O   UNL     1       1.849   6.209  21.164  0.00  0.00    +0.000 OA
ATOM     22  H   UNL     1       1.559   6.410  22.063  0.00  0.00    +0.000 HD
ENDBRANCH  10  21
TORSDOF 3
ENDMDL
MODEL 8
REMARK VINA RESULT:      -6.7      5.766      7.082
REMARK  Name = 
REMARK  3 active torsions:
REMARK  status: ('A' for Active; 'I' for Inactive)
REMARK    1  A    between atoms: C_5  and  O_6
REMARK    2  A    between atoms: C_11  and  O_12
REMARK    3  A    between atoms: C_13  and  C_14
REMARK                            x       y       z     vdW  Elec       q    Type
REMARK                         _______ _______ _______ _____ _____    ______ ____
ROOT
ATOM      1  O   UNL     1       0.384   8.856  21.874  0.00  0.00    +0.000 OA
ATOM      2  C   UNL     1       0.977   8.568  20.837  0.00  0.00    +0.000 A 
ATOM      3  N   UNL     1       1.667   7.394  20.754  0.00  0.00    +0.000 N 
ATOM      4  C   UNL     1       2.415   7.002  19.638  0.00  0.00    +0.000 A 
ATOM      5  C   UNL     1       3.131   5.799  19.676  0.00  0.00    +0.000 A 
ATOM      6  C   UNL     1       3.960   5.434  18.625  0.00  0.00    +0.000 A 
ATOM      7  C   UNL     1       4.041   6.256  17.506  0.00  0.00    +0.000 A 
ATOM      8  C   UNL     1       3.294   7.441  17.442  0.00  0.00    +0.000 A 
ATOM      9  C   UNL     1       2.473   7.841  18.511  0.00  0.00    +0.000 A 
ATOM     10  C   UNL     1       1.686   9.100  18.539  0.00  0.00    +0.000 A 
ATOM     11  C   UNL     1       0.985   9.456  19.636  0.00  0.00    +0.000 A 
ATOM     12  H   UNL     1       1.697   6.869  21.616  0.00  0.00    +0.000 HD
ENDROOT
BRANCH  11  13
ATOM     13  C   UNL     1       0.263  10.740  19.702  0.00  0.00    +0.000 A 
ATOM     14  C   UNL     1       0.905  11.904  20.142  0.00  0.00    +0.000 A 
ATOM     15  C   UNL     1       0.223  13.122  20.150  0.00  0.00    +0.000 A 
ATOM     16  C   UNL     1      -1.104  13.185  19.725  0.00  0.00    +0.000 A 
ATOM     17  C   UNL     1      -1.754  12.028  19.297  0.00  0.00    +0.000 A 
ATOM     18  C   UNL     1      -1.074  10.809  19.287  0.00  0.00    +0.000 A 
ENDBRANCH  11  13
BRANCH   5  19
ATOM     19  O   UNL     1       3.042   4.930  20.727  0.00  0.00    +0.000 OA
ATOM     20  H   UNL     1       2.500   5.356  21.413  0.00  0.00    +0.000 HD
ENDBRANCH   5  19
BRANCH  10  21
ATOM     21  O   UNL     1       1.692   9.923  17.423  0.00  0.00    +0.000 OA
ATOM     22  H   UNL     1       0.817  10.296  17.260  0.00  0.00    +0.000 HD
ENDBRANCH  10  21
TORSDOF 3
ENDMDL
MODEL 9
REMARK VINA RESULT:      -6.7      4.637      7.076
REMARK  Name = 
REMARK  3 active torsions:
REMARK  status: ('A' for Active; 'I' for Inactive)
REMARK    1  A    between atoms: C_5  and  O_6
REMARK    2  A    between atoms: C_11  and  O_12
REMARK    3  A    between atoms: C_13  and  C_14
REMARK                            x       y       z     vdW  Elec       q    Type
REMARK                         _______ _______ _______ _____ _____    ______ ____
ROOT
ATOM      1  O   UNL     1       2.587   8.514  17.047  0.00  0.00    +0.000 OA
ATOM      2  C   UNL     1       2.130   8.480  18.187  0.00  0.00    +0.000 A 
ATOM      3  N   UNL     1       1.477   9.568  18.688  0.00  0.00    +0.000 N 
ATOM      4  C   UNL     1       0.970   9.646  19.990  0.00  0.00    +0.000 A 
ATOM      5  C   UNL     1       0.362  10.832  20.424  0.00  0.00    +0.000 A 
ATOM      6  C   UNL     1      -0.060  10.972  21.738  0.00  0.00    +0.000 A 
ATOM      7  C   UNL     1       0.085   9.903  22.616  0.00  0.00    +0.000 A 
ATOM      8  C   UNL     1       0.653   8.698  22.179  0.00  0.00    +0.000 A 
ATOM      9  C   UNL     1       1.114   8.549  20.859  0.00  0.00    +0.000 A 
ATOM     10  C   UNL     1       1.765   7.324  20.331  0.00  0.00    +0.000 A 
ATOM     11  C   UNL     1       2.256   7.286  19.074  0.00  0.00    +0.000 A 
ATOM     12  H   UNL     1       1.488  10.375  18.081  0.00  0.00    +0.000 HD
ENDROOT
BRANCH  11  13
ATOM     13  C   UNL     1       2.973   6.101  18.566  0.00  0.00    +0.000 A 
ATOM     14  C   UNL     1       2.285   5.068  17.919  0.00  0.00    +0.000 A 
ATOM     15  C   UNL     1       2.983   3.977  17.398  0.00  0.00    +0.000 A 
ATOM     16  C   UNL     1       4.371   3.908  17.525  0.00  0.00    +0.000 A 
ATOM     17  C   UNL     1       5.062   4.927  18.180  0.00  0.00    +0.000 A 
ATOM     18  C   UNL     1       4.366   6.019  18.700  0.00  0.00    +0.000 A 
ENDBRANCH  11  13
BRANCH   5  19
ATOM     19  O   UNL     1       0.145  11.888  19.585  0.00  0.00    +0.000 OA
ATOM     20  H   UNL     1       0.866  12.526  19.726  0.00  0.00    +0.000 HD
ENDBRANCH   5  19
BRANCH  10  21
ATOM     21  O   UNL     1       1.880   6.214  21.155  0.00  0.00    +0.000 OA
ATOM     22  H   UNL     1       2.724   6.216  21.624  0.00  0.00    +0.000 HD
ENDBRANCH  10  21
TORSDOF 3
ENDMDL
