MODEL 1
REMARK VINA RESULT:      -8.1      0.000      0.000
REMARK  Name = 
REMARK  16 active torsions:
REMARK  status: ('A' for Active; 'I' for Inactive)
REMARK    1  A    between atoms: C_1  and  C_2
REMARK    2  A    between atoms: C_2  and  C_3
REMARK    3  A    between atoms: C_3  and  C_4
REMARK    4  A    between atoms: C_3  and  C_5
REMARK    5  A    between atoms: C_5  and  N_6
REMARK    6  A    between atoms: C_5  and  C_7
REMARK    7  A    between atoms: C_11  and  C_12
REMARK    8  A    between atoms: N_14  and  C_15
REMARK    9  A    between atoms: C_15  and  C_16
REMARK   10  A    between atoms: C_16  and  C_17
REMARK   11  A    between atoms: C_17  and  C_18
REMARK   12  A    between atoms: C_18  and  N_19
REMARK   13  A    between atoms: C_20  and  C_21
REMARK   14  A    between atoms: N_23  and  C_24
REMARK   15  A    between atoms: C_24  and  C_25
REMARK   16  A    between atoms: C_25  and  C_26
REMARK                            x       y       z     vdW  Elec       q    Type
REMARK                         _______ _______ _______ _____ _____    ______ ____
ROOT
ATOM      1  C   UNL     1       2.794   5.685  18.641  0.00  0.00    +0.000 C 
ATOM      2  O   UNL     1       2.661   6.573  19.552  0.00  0.00    +0.000 OA
ATOM      3  N   UNL     1       3.830   5.870  17.735  0.00  0.00    +0.000 N 
ATOM      4  C   UNL     1       4.412   5.135  16.607  0.00  0.00    +0.000 C 
ATOM      5  C   UNL     1       5.918   5.311  16.869  0.00  0.00    +0.000 C 
ATOM      6  C   UNL     1       5.937   6.834  17.065  0.00  0.00    +0.000 C 
ATOM      7  C   UNL     1       4.600   7.120  17.785  0.00  0.00    +0.000 C 
ENDROOT
BRANCH   5   8
ATOM      8  C   UNL     1       6.749   4.753  15.747  0.00  0.00    +0.000 C 
ATOM      9  O   UNL     1       7.920   4.327  15.944  0.00  0.00    +0.000 OA
ATOM     10  N   UNL     1       6.190   4.787  14.502  0.00  0.00    +0.000 N 
ATOM     11  H   UNL     1       5.212   5.087  14.399  0.00  0.00    +0.000 HD
BRANCH  10  12
ATOM     12  C   UNL     1       6.895   4.291  13.342  0.00  0.00    +0.000 C 
BRANCH  12  13
ATOM     13  C   UNL     1       6.142   3.187  12.595  0.00  0.00    +0.000 C 
BRANCH  13  14
ATOM     14  C   UNL     1       7.085   2.481  11.611  0.00  0.00    +0.000 C 
BRANCH  14  15
ATOM     15  C   UNL     1       6.358   1.458  10.742  0.00  0.00    +0.000 C 
BRANCH  15  16
ATOM     16  N   UNL     1       6.193   0.203  11.471  0.00  0.00    +0.000 NA
ATOM     17  H   UNL     1       6.847  -0.495  11.116  0.00  0.00    +0.000 HD
ATOM     18  H   UNL     1       5.259  -0.170  11.303  0.00  0.00    +0.000 HD
ENDBRANCH  15  16
ENDBRANCH  14  15
ENDBRANCH  13  14
ENDBRANCH  12  13
ENDBRANCH  10  12
ENDBRANCH   5   8
BRANCH   6  19
ATOM     19  C   UNL     1       7.119   7.321  17.847  0.00  0.00    +0.000 C 
ATOM     20  O   UNL     1       7.889   6.546  18.385  0.00  0.00    +0.000 OA
ATOM     21  N   UNL     1       7.351   8.685  17.784  0.00  0.00    +0.000 N 
ATOM     22  H   UNL     1       6.768   9.316  17.250  0.00  0.00    +0.000 HD
BRANCH  21  23
ATOM     23  C   UNL     1       8.496   9.227  18.470  0.00  0.00    +0.000 C 
BRANCH  23  24
ATOM     24  C   UNL     1       9.056  10.460  17.760  0.00  0.00    +0.000 C 
BRANCH  24  25
ATOM     25  C   UNL     1       9.355  11.549  18.744  0.00  0.00    +0.000 A 
ATOM     26  C   UNL     1       9.881  11.255  20.005  0.00  0.00    +0.000 A 
ATOM     27  C   UNL     1      10.268  12.286  20.860  0.00  0.00    +0.000 A 
ATOM     28  C   UNL     1      10.170  13.633  20.464  0.00  0.00    +0.000 A 
ATOM     29  C   UNL     1      10.612  14.691  21.265  0.00  0.00    +0.000 A 
ATOM     30  C   UNL     1      10.527  16.013  20.818  0.00  0.00    +0.000 A 
ATOM     31  C   UNL     1       9.991  16.296  19.564  0.00  0.00    +0.000 A 
ATOM     32  C   UNL     1       9.532  15.260  18.762  0.00  0.00    +0.000 A 
ATOM     33  C   UNL     1       9.615  13.929  19.194  0.00  0.00    +0.000 A 
ATOM     34  C   UNL     1       9.190  12.891  18.373  0.00  0.00    +0.000 A 
ENDBRANCH  24  25
ENDBRANCH  23  24
ENDBRANCH  21  23
ENDBRANCH   6  19
BRANCH   1  35
ATOM     35  C   UNL     1       1.835   4.399  18.750  0.00  0.00    +0.000 C 
BRANCH  35  36
ATOM     36  N   UNL     1       1.139   4.218  17.449  0.00  0.00    +0.000 NA
ATOM     37  H   UNL     1       1.720   4.617  16.701  0.00  0.00    +0.000 HD
ATOM     38  H   UNL     1       0.301   4.797  17.452  0.00  0.00    +0.000 HD
ENDBRANCH  35  36
BRANCH  35  39
ATOM     39  C   UNL     1       2.337   2.952  19.085  0.00  0.00    +0.000 C 
ATOM     40  C   UNL     1       2.528   2.108  17.809  0.00  0.00    +0.000 C 
BRANCH  39  42
ATOM     41  C   UNL     1       1.415   2.860  21.451  0.00  0.00    +0.000 C 
ATOM     42  C   UNL     1       1.361   2.287  20.028  0.00  0.00    +0.000 C 
ENDBRANCH  39  42
ENDBRANCH  35  39
ENDBRANCH   1  35
TORSDOF 14
ENDMDL
MODEL 2
REMARK VINA RESULT:      -8.1      5.196      8.216
REMARK  Name = 
REMARK  16 active torsions:
REMARK  status: ('A' for Active; 'I' for Inactive)
REMARK    1  A    between atoms: C_1  and  C_2
REMARK    2  A    between atoms: C_2  and  C_3
REMARK    3  A    between atoms: C_3  and  C_4
REMARK    4  A    between atoms: C_3  and  C_5
REMARK    5  A    between atoms: C_5  and  N_6
REMARK    6  A    between atoms: C_5  and  C_7
REMARK    7  A    between atoms: C_11  and  C_12
REMARK    8  A    between atoms: N_14  and  C_15
REMARK    9  A    between atoms: C_15  and  C_16
REMARK   10  A    between atoms: C_16  and  C_17
REMARK   11  A    between atoms: C_17  and  C_18
REMARK   12  A    between atoms: C_18  and  N_19
REMARK   13  A    between atoms: C_20  and  C_21
REMARK   14  A    between atoms: N_23  and  C_24
REMARK   15  A    between atoms: C_24  and  C_25
REMARK   16  A    between atoms: C_25  and  C_26
REMARK                            x       y       z     vdW  Elec       q    Type
REMARK                         _______ _______ _______ _____ _____    ______ ____
ROOT
ATOM      1  C   UNL     1       6.893   4.478  13.545  0.00  0.00    +0.000 C 
ATOM      2  O   UNL     1       7.584   5.543  13.383  0.00  0.00    +0.000 OA
ATOM      3  N   UNL     1       6.425   4.226  14.828  0.00  0.00    +0.000 N 
ATOM      4  C   UNL     1       5.575   3.225  15.482  0.00  0.00    +0.000 C 
ATOM      5  C   UNL     1       4.708   4.109  16.396  0.00  0.00    +0.000 C 
ATOM      6  C   UNL     1       5.831   4.918  17.061  0.00  0.00    +0.000 C 
ATOM      7  C   UNL     1       6.865   5.097  15.926  0.00  0.00    +0.000 C 
ENDROOT
BRANCH   5   8
ATOM      8  C   UNL     1       3.828   3.287  17.296  0.00  0.00    +0.000 C 
ATOM      9  O   UNL     1       4.304   2.373  18.026  0.00  0.00    +0.000 OA
ATOM     10  N   UNL     1       2.489   3.543  17.237  0.00  0.00    +0.000 N 
ATOM     11  H   UNL     1       2.154   4.335  16.673  0.00  0.00    +0.000 HD
BRANCH  10  12
ATOM     12  C   UNL     1       1.541   2.809  18.045  0.00  0.00    +0.000 C 
BRANCH  12  13
ATOM     13  C   UNL     1       0.950   3.634  19.192  0.00  0.00    +0.000 C 
BRANCH  13  14
ATOM     14  C   UNL     1       1.205   2.929  20.531  0.00  0.00    +0.000 C 
BRANCH  14  15
ATOM     15  C   UNL     1       2.288   3.620  21.355  0.00  0.00    +0.000 C 
BRANCH  15  16
ATOM     16  N   UNL     1       3.231   4.305  20.475  0.00  0.00    +0.000 NA
ATOM     17  H   UNL     1       2.832   4.397  19.541  0.00  0.00    +0.000 HD
ATOM     18  H   UNL     1       4.074   3.743  20.371  0.00  0.00    +0.000 HD
ENDBRANCH  15  16
ENDBRANCH  14  15
ENDBRANCH  13  14
ENDBRANCH  12  13
ENDBRANCH  10  12
ENDBRANCH   5   8
BRANCH   6  19
ATOM     19  C   UNL     1       5.372   6.228  17.624  0.00  0.00    +0.000 C 
ATOM     20  O   UNL     1       6.008   7.253  17.454  0.00  0.00    +0.000 OA
ATOM     21  N   UNL     1       4.117   6.215  18.211  0.00  0.00    +0.000 N 
ATOM     22  H   UNL     1       3.544   5.383  18.260  0.00  0.00    +0.000 HD
BRANCH  21  23
ATOM     23  C   UNL     1       3.583   7.445  18.735  0.00  0.00    +0.000 C 
BRANCH  23  24
ATOM     24  C   UNL     1       2.279   7.843  18.041  0.00  0.00    +0.000 C 
BRANCH  24  25
ATOM     25  C   UNL     1       1.511   8.821  18.875  0.00  0.00    +0.000 A 
ATOM     26  C   UNL     1       0.784   9.858  18.282  0.00  0.00    +0.000 A 
ATOM     27  C   UNL     1      -0.024  10.683  19.064  0.00  0.00    +0.000 A 
ATOM     28  C   UNL     1      -0.150  10.472  20.450  0.00  0.00    +0.000 A 
ATOM     29  C   UNL     1      -1.003  11.233  21.255  0.00  0.00    +0.000 A 
ATOM     30  C   UNL     1      -1.126  10.967  22.623  0.00  0.00    +0.000 A 
ATOM     31  C   UNL     1      -0.389   9.939  23.205  0.00  0.00    +0.000 A 
ATOM     32  C   UNL     1       0.475   9.183  22.425  0.00  0.00    +0.000 A 
ATOM     33  C   UNL     1       0.604   9.434  21.051  0.00  0.00    +0.000 A 
ATOM     34  C   UNL     1       1.441   8.651  20.264  0.00  0.00    +0.000 A 
ENDBRANCH  24  25
ENDBRANCH  23  24
ENDBRANCH  21  23
ENDBRANCH   6  19
BRANCH   1  35
ATOM     35  C   UNL     1       6.538   3.647  12.216  0.00  0.00    +0.000 C 
BRANCH  35  36
ATOM     36  N   UNL     1       7.607   2.638  11.990  0.00  0.00    +0.000 NA
ATOM     37  H   UNL     1       7.171   1.729  11.792  0.00  0.00    +0.000 HD
ATOM     38  H   UNL     1       8.100   2.494  12.869  0.00  0.00    +0.000 HD
ENDBRANCH  35  36
BRANCH  35  39
ATOM     39  C   UNL     1       5.224   2.815  12.022  0.00  0.00    +0.000 C 
ATOM     40  C   UNL     1       5.466   1.563  11.156  0.00  0.00    +0.000 C 
BRANCH  39  42
ATOM     41  C   UNL     1       3.261   2.946  10.413  0.00  0.00    +0.000 C 
ATOM     42  C   UNL     1       4.158   3.695  11.409  0.00  0.00    +0.000 C 
ENDBRANCH  39  42
ENDBRANCH  35  39
ENDBRANCH   1  35
TORSDOF 14
ENDMDL
MODEL 3
REMARK VINA RESULT:      -8.1      1.730      5.730
REMARK  Name = 
REMARK  16 active torsions:
REMARK  status: ('A' for Active; 'I' for Inactive)
REMARK    1  A    between atoms: C_1  and  C_2
REMARK    2  A    between atoms: C_2  and  C_3
REMARK    3  A    between atoms: C_3  and  C_4
REMARK    4  A    between atoms: C_3  and  C_5
REMARK    5  A    between atoms: C_5  and  N_6
REMARK    6  A    between atoms: C_5  and  C_7
REMARK    7  A    between atoms: C_11  and  C_12
REMARK    8  A    between atoms: N_14  and  C_15
REMARK    9  A    between atoms: C_15  and  C_16
REMARK   10  A    between atoms: C_16  and  C_17
REMARK   11  A    between atoms: C_17  and  C_18
REMARK   12  A    between atoms: C_18  and  N_19
REMARK   13  A    between atoms: C_20  and  C_21
REMARK   14  A    between atoms: N_23  and  C_24
REMARK   15  A    between atoms: C_24  and  C_25
REMARK   16  A    between atoms: C_25  and  C_26
REMARK                            x       y       z     vdW  Elec       q    Type
REMARK                         _______ _______ _______ _____ _____    ______ ____
ROOT
ATOM      1  C   UNL     1       7.138   4.577  14.213  0.00  0.00    +0.000 C 
ATOM      2  O   UNL     1       8.292   5.105  14.053  0.00  0.00    +0.000 OA
ATOM      3  N   UNL     1       6.732   4.345  15.521  0.00  0.00    +0.000 N 
ATOM      4  C   UNL     1       5.530   3.849  16.199  0.00  0.00    +0.000 C 
ATOM      5  C   UNL     1       5.408   4.838  17.372  0.00  0.00    +0.000 C 
ATOM      6  C   UNL     1       6.849   4.744  17.897  0.00  0.00    +0.000 C 
ATOM      7  C   UNL     1       7.689   4.579  16.611  0.00  0.00    +0.000 C 
ENDROOT
BRANCH   5   8
ATOM      8  C   UNL     1       4.306   4.448  18.318  0.00  0.00    +0.000 C 
ATOM      9  O   UNL     1       4.520   3.680  19.297  0.00  0.00    +0.000 OA
ATOM     10  N   UNL     1       3.060   4.922  18.027  0.00  0.00    +0.000 N 
ATOM     11  H   UNL     1       2.945   5.591  17.255  0.00  0.00    +0.000 HD
BRANCH  10  12
ATOM     12  C   UNL     1       1.918   4.606  18.855  0.00  0.00    +0.000 C 
BRANCH  12  13
ATOM     13  C   UNL     1       1.280   3.254  18.524  0.00  0.00    +0.000 C 
BRANCH  13  14
ATOM     14  C   UNL     1       1.449   2.291  19.708  0.00  0.00    +0.000 C 
BRANCH  14  15
ATOM     15  C   UNL     1       1.469   3.017  21.050  0.00  0.00    +0.000 C 
BRANCH  15  16
ATOM     16  N   UNL     1       2.672   2.663  21.798  0.00  0.00    +0.000 NA
ATOM     17  H   UNL     1       3.252   2.031  21.246  0.00  0.00    +0.000 HD
ATOM     18  H   UNL     1       2.414   2.150  22.640  0.00  0.00    +0.000 HD
ENDBRANCH  15  16
ENDBRANCH  14  15
ENDBRANCH  13  14
ENDBRANCH  12  13
ENDBRANCH  10  12
ENDBRANCH   5   8
BRANCH   6  19
ATOM     19  C   UNL     1       7.270   5.936  18.702  0.00  0.00    +0.000 C 
ATOM     20  O   UNL     1       7.335   5.892  19.918  0.00  0.00    +0.000 OA
ATOM     21  N   UNL     1       7.716   7.022  17.967  0.00  0.00    +0.000 N 
ATOM     22  H   UNL     1       7.758   7.019  16.956  0.00  0.00    +0.000 HD
BRANCH  21  23
ATOM     23  C   UNL     1       8.182   8.190  18.668  0.00  0.00    +0.000 C 
BRANCH  23  24
ATOM     24  C   UNL     1       8.696   9.264  17.708  0.00  0.00    +0.000 C 
BRANCH  24  25
ATOM     25  C   UNL     1       9.238  10.438  18.465  0.00  0.00    +0.000 A 
ATOM     26  C   UNL     1       9.967  11.439  17.816  0.00  0.00    +0.000 A 
ATOM     27  C   UNL     1      10.357  12.583  18.512  0.00  0.00    +0.000 A 
ATOM     28  C   UNL     1      10.000  12.769  19.860  0.00  0.00    +0.000 A 
ATOM     29  C   UNL     1      10.312  13.933  20.570  0.00  0.00    +0.000 A 
ATOM     30  C   UNL     1       9.908  14.093  21.900  0.00  0.00    +0.000 A 
ATOM     31  C   UNL     1       9.190  13.084  22.539  0.00  0.00    +0.000 A 
ATOM     32  C   UNL     1       8.885  11.916  21.856  0.00  0.00    +0.000 A 
ATOM     33  C   UNL     1       9.280  11.744  20.521  0.00  0.00    +0.000 A 
ATOM     34  C   UNL     1       8.940  10.588  19.826  0.00  0.00    +0.000 A 
ENDBRANCH  24  25
ENDBRANCH  23  24
ENDBRANCH  21  23
ENDBRANCH   6  19
BRANCH   1  35
ATOM     35  C   UNL     1       6.251   4.381  12.887  0.00  0.00    +0.000 C 
BRANCH  35  36
ATOM     36  N   UNL     1       7.139   4.507  11.701  0.00  0.00    +0.000 NA
ATOM     37  H   UNL     1       6.576   4.799  10.893  0.00  0.00    +0.000 HD
ATOM     38  H   UNL     1       7.472   3.578  11.453  0.00  0.00    +0.000 HD
ENDBRANCH  35  36
BRANCH  35  39
ATOM     39  C   UNL     1       5.419   3.091  12.567  0.00  0.00    +0.000 C 
ATOM     40  C   UNL     1       6.111   2.218  11.501  0.00  0.00    +0.000 C 
BRANCH  39  42
ATOM     41  C   UNL     1       3.817   3.318  10.607  0.00  0.00    +0.000 C 
ATOM     42  C   UNL     1       4.030   3.487  12.118  0.00  0.00    +0.000 C 
ENDBRANCH  39  42
ENDBRANCH  35  39
ENDBRANCH   1  35
TORSDOF 14
ENDMDL
MODEL 4
REMARK VINA RESULT:      -8.0      3.243      5.169
REMARK  Name = 
REMARK  16 active torsions:
REMARK  status: ('A' for Active; 'I' for Inactive)
REMARK    1  A    between atoms: C_1  and  C_2
REMARK    2  A    between atoms: C_2  and  C_3
REMARK    3  A    between atoms: C_3  and  C_4
REMARK    4  A    between atoms: C_3  and  C_5
REMARK    5  A    between atoms: C_5  and  N_6
REMARK    6  A    between atoms: C_5  and  C_7
REMARK    7  A    between atoms: C_11  and  C_12
REMARK    8  A    between atoms: N_14  and  C_15
REMARK    9  A    between atoms: C_15  and  C_16
REMARK   10  A    between atoms: C_16  and  C_17
REMARK   11  A    between atoms: C_17  and  C_18
REMARK   12  A    between atoms: C_18  and  N_19
REMARK   13  A    between atoms: C_20  and  C_21
REMARK   14  A    between atoms: N_23  and  C_24
REMARK   15  A    between atoms: C_24  and  C_25
REMARK   16  A    between atoms: C_25  and  C_26
REMARK                            x       y       z     vdW  Elec       q    Type
REMARK                         _______ _______ _______ _____ _____    ______ ____
ROOT
ATOM      1  C   UNL     1       2.228   8.636  18.053  0.00  0.00    +0.000 C 
ATOM      2  O   UNL     1       2.490   9.643  17.309  0.00  0.00    +0.000 OA
ATOM      3  N   UNL     1       3.059   7.532  17.927  0.00  0.00    +0.000 N 
ATOM      4  C   UNL     1       3.210   6.223  18.572  0.00  0.00    +0.000 C 
ATOM      5  C   UNL     1       4.739   6.131  18.726  0.00  0.00    +0.000 C 
ATOM      6  C   UNL     1       5.133   6.480  17.284  0.00  0.00    +0.000 C 
ATOM      7  C   UNL     1       4.077   7.529  16.867  0.00  0.00    +0.000 C 
ENDROOT
BRANCH   5   8
ATOM      8  C   UNL     1       5.167   4.787  19.248  0.00  0.00    +0.000 C 
ATOM      9  O   UNL     1       6.323   4.601  19.718  0.00  0.00    +0.000 OA
ATOM     10  N   UNL     1       4.260   3.773  19.134  0.00  0.00    +0.000 N 
ATOM     11  H   UNL     1       3.310   3.985  18.800  0.00  0.00    +0.000 HD
BRANCH  10  12
ATOM     12  C   UNL     1       4.559   2.434  19.588  0.00  0.00    +0.000 C 
BRANCH  12  13
ATOM     13  C   UNL     1       3.936   2.097  20.945  0.00  0.00    +0.000 C 
BRANCH  13  14
ATOM     14  C   UNL     1       2.641   2.898  21.142  0.00  0.00    +0.000 C 
BRANCH  14  15
ATOM     15  C   UNL     1       1.508   2.401  20.247  0.00  0.00    +0.000 C 
BRANCH  15  16
ATOM     16  N   UNL     1       0.400   3.352  20.263  0.00  0.00    +0.000 NA
ATOM     17  H   UNL     1       0.751   4.295  20.430  0.00  0.00    +0.000 HD
ATOM     18  H   UNL     1      -0.224   3.139  21.040  0.00  0.00    +0.000 HD
ENDBRANCH  15  16
ENDBRANCH  14  15
ENDBRANCH  13  14
ENDBRANCH  12  13
ENDBRANCH  10  12
ENDBRANCH   5   8
BRANCH   6  19
ATOM     19  C   UNL     1       6.532   7.000  17.156  0.00  0.00    +0.000 C 
ATOM     20  O   UNL     1       7.370   6.415  16.492  0.00  0.00    +0.000 OA
ATOM     21  N   UNL     1       6.755   8.248  17.712  0.00  0.00    +0.000 N 
ATOM     22  H   UNL     1       6.029   8.780  18.175  0.00  0.00    +0.000 HD
BRANCH  21  23
ATOM     23  C   UNL     1       8.063   8.839  17.591  0.00  0.00    +0.000 C 
BRANCH  23  24
ATOM     24  C   UNL     1       8.789   8.899  18.936  0.00  0.00    +0.000 C 
BRANCH  24  25
ATOM     25  C   UNL     1       9.387  10.254  19.156  0.00  0.00    +0.000 A 
ATOM     26  C   UNL     1       9.575  10.757  20.447  0.00  0.00    +0.000 A 
ATOM     27  C   UNL     1      10.245  11.965  20.637  0.00  0.00    +0.000 A 
ATOM     28  C   UNL     1      10.771  12.682  19.546  0.00  0.00    +0.000 A 
ATOM     29  C   UNL     1      11.509  13.860  19.702  0.00  0.00    +0.000 A 
ATOM     30  C   UNL     1      12.044  14.523  18.593  0.00  0.00    +0.000 A 
ATOM     31  C   UNL     1      11.842  14.019  17.310  0.00  0.00    +0.000 A 
ATOM     32  C   UNL     1      11.100  12.859  17.135  0.00  0.00    +0.000 A 
ATOM     33  C   UNL     1      10.561  12.181  18.238  0.00  0.00    +0.000 A 
ATOM     34  C   UNL     1       9.849  11.000  18.063  0.00  0.00    +0.000 A 
ENDBRANCH  24  25
ENDBRANCH  23  24
ENDBRANCH  21  23
ENDBRANCH   6  19
BRANCH   1  35
ATOM     35  C   UNL     1       1.056   8.834  19.136  0.00  0.00    +0.000 C 
BRANCH  35  36
ATOM     36  N   UNL     1       1.523   8.294  20.441  0.00  0.00    +0.000 NA
ATOM     37  H   UNL     1       2.519   8.519  20.557  0.00  0.00    +0.000 HD
ATOM     38  H   UNL     1       1.498   7.277  20.391  0.00  0.00    +0.000 HD
ENDBRANCH  35  36
BRANCH  35  39
ATOM     39  C   UNL     1       0.445  10.223  19.530  0.00  0.00    +0.000 C 
ATOM     40  C   UNL     1       0.610  10.511  21.036  0.00  0.00    +0.000 C 
BRANCH  39  42
ATOM     41  C   UNL     1      -1.230  10.048  17.628  0.00  0.00    +0.000 C 
ATOM     42  C   UNL     1      -1.013  10.263  19.131  0.00  0.00    +0.000 C 
ENDBRANCH  39  42
ENDBRANCH  35  39
ENDBRANCH   1  35
TORSDOF 14
ENDMDL
MODEL 5
REMARK VINA RESULT:      -8.0      1.423      2.045
REMARK  Name = 
REMARK  16 active torsions:
REMARK  status: ('A' for Active; 'I' for Inactive)
REMARK    1  A    between atoms: C_1  and  C_2
REMARK    2  A    between atoms: C_2  and  C_3
REMARK    3  A    between atoms: C_3  and  C_4
REMARK    4  A    between atoms: C_3  and  C_5
REMARK    5  A    between atoms: C_5  and  N_6
REMARK    6  A    between atoms: C_5  and  C_7
REMARK    7  A    between atoms: C_11  and  C_12
REMARK    8  A    between atoms: N_14  and  C_15
REMARK    9  A    between atoms: C_15  and  C_16
REMARK   10  A    between atoms: C_16  and  C_17
REMARK   11  A    between atoms: C_17  and  C_18
REMARK   12  A    between atoms: C_18  and  N_19
REMARK   13  A    between atoms: C_20  and  C_21
REMARK   14  A    between atoms: N_23  and  C_24
REMARK   15  A    between atoms: C_24  and  C_25
REMARK   16  A    between atoms: C_25  and  C_26
REMARK                            x       y       z     vdW  Elec       q    Type
REMARK                         _______ _______ _______ _____ _____    ______ ____
ROOT
ATOM      1  C   UNL     1       2.793   5.700  18.546  0.00  0.00    +0.000 C 
ATOM      2  O   UNL     1       2.715   6.588  19.463  0.00  0.00    +0.000 OA
ATOM      3  N   UNL     1       3.813   5.850  17.615  0.00  0.00    +0.000 N 
ATOM      4  C   UNL     1       4.339   5.100  16.470  0.00  0.00    +0.000 C 
ATOM      5  C   UNL     1       5.856   5.218  16.696  0.00  0.00    +0.000 C 
ATOM      6  C   UNL     1       5.938   6.738  16.898  0.00  0.00    +0.000 C 
ATOM      7  C   UNL     1       4.630   7.070  17.651  0.00  0.00    +0.000 C 
ENDROOT
BRANCH   5   8
ATOM      8  C   UNL     1       6.638   4.634  15.552  0.00  0.00    +0.000 C 
ATOM      9  O   UNL     1       7.883   4.441  15.635  0.00  0.00    +0.000 OA
ATOM     10  N   UNL     1       5.941   4.381  14.406  0.00  0.00    +0.000 N 
ATOM     11  H   UNL     1       4.920   4.499  14.404  0.00  0.00    +0.000 HD
BRANCH  10  12
ATOM     12  C   UNL     1       6.585   3.832  13.234  0.00  0.00    +0.000 C 
BRANCH  12  13
ATOM     13  C   UNL     1       5.659   2.959  12.382  0.00  0.00    +0.000 C 
BRANCH  13  14
ATOM     14  C   UNL     1       4.428   3.767  11.948  0.00  0.00    +0.000 C 
BRANCH  14  15
ATOM     15  C   UNL     1       3.700   3.128  10.769  0.00  0.00    +0.000 C 
BRANCH  15  16
ATOM     16  N   UNL     1       3.121   4.161   9.913  0.00  0.00    +0.000 NA
ATOM     17  H   UNL     1       3.860   4.650   9.409  0.00  0.00    +0.000 HD
ATOM     18  H   UNL     1       2.657   4.862  10.489  0.00  0.00    +0.000 HD
ENDBRANCH  15  16
ENDBRANCH  14  15
ENDBRANCH  13  14
ENDBRANCH  12  13
ENDBRANCH  10  12
ENDBRANCH   5   8
BRANCH   6  19
ATOM     19  C   UNL     1       7.156   7.176  17.652  0.00  0.00    +0.000 C 
ATOM     20  O   UNL     1       7.739   6.424  18.412  0.00  0.00    +0.000 OA
ATOM     21  N   UNL     1       7.647   8.426  17.312  0.00  0.00    +0.000 N 
ATOM     22  H   UNL     1       7.220   9.009  16.604  0.00  0.00    +0.000 HD
BRANCH  21  23
ATOM     23  C   UNL     1       8.843   8.901  17.958  0.00  0.00    +0.000 C 
BRANCH  23  24
ATOM     24  C   UNL     1       8.538   9.972  19.007  0.00  0.00    +0.000 C 
BRANCH  24  25
ATOM     25  C   UNL     1       9.101  11.296  18.593  0.00  0.00    +0.000 A 
ATOM     26  C   UNL     1       8.434  12.105  17.668  0.00  0.00    +0.000 A 
ATOM     27  C   UNL     1       8.908  13.386  17.388  0.00  0.00    +0.000 A 
ATOM     28  C   UNL     1      10.039  13.902  18.048  0.00  0.00    +0.000 A 
ATOM     29  C   UNL     1      10.503  15.205  17.845  0.00  0.00    +0.000 A 
ATOM     30  C   UNL     1      11.610  15.690  18.549  0.00  0.00    +0.000 A 
ATOM     31  C   UNL     1      12.274  14.873  19.461  0.00  0.00    +0.000 A 
ATOM     32  C   UNL     1      11.837  13.571  19.663  0.00  0.00    +0.000 A 
ATOM     33  C   UNL     1      10.725  13.072  18.969  0.00  0.00    +0.000 A 
ATOM     34  C   UNL     1      10.267  11.781  19.201  0.00  0.00    +0.000 A 
ENDBRANCH  24  25
ENDBRANCH  23  24
ENDBRANCH  21  23
ENDBRANCH   6  19
BRANCH   1  35
ATOM     35  C   UNL     1       1.789   4.451  18.673  0.00  0.00    +0.000 C 
BRANCH  35  36
ATOM     36  N   UNL     1       1.236   4.150  17.325  0.00  0.00    +0.000 NA
ATOM     37  H   UNL     1       0.327   3.684  17.435  0.00  0.00    +0.000 HD
ATOM     38  H   UNL     1       1.829   3.447  16.888  0.00  0.00    +0.000 HD
ENDBRANCH  35  36
BRANCH  35  39
ATOM     39  C   UNL     1       2.206   3.037  19.205  0.00  0.00    +0.000 C 
ATOM     40  C   UNL     1       3.402   3.124  20.175  0.00  0.00    +0.000 C 
BRANCH  39  42
ATOM     41  C   UNL     1       3.738   1.226  18.293  0.00  0.00    +0.000 C 
ATOM     42  C   UNL     1       2.528   2.134  18.036  0.00  0.00    +0.000 C 
ENDBRANCH  39  42
ENDBRANCH  35  39
ENDBRANCH   1  35
TORSDOF 14
ENDMDL
MODEL 6
REMARK VINA RESULT:      -7.9      1.598      5.465
REMARK  Name = 
REMARK  16 active torsions:
REMARK  status: ('A' for Active; 'I' for Inactive)
REMARK    1  A    between atoms: C_1  and  C_2
REMARK    2  A    between atoms: C_2  and  C_3
REMARK    3  A    between atoms: C_3  and  C_4
REMARK    4  A    between atoms: C_3  and  C_5
REMARK    5  A    between atoms: C_5  and  N_6
REMARK    6  A    between atoms: C_5  and  C_7
REMARK    7  A    between atoms: C_11  and  C_12
REMARK    8  A    between atoms: N_14  and  C_15
REMARK    9  A    between atoms: C_15  and  C_16
REMARK   10  A    between atoms: C_16  and  C_17
REMARK   11  A    between atoms: C_17  and  C_18
REMARK   12  A    between atoms: C_18  and  N_19
REMARK   13  A    between atoms: C_20  and  C_21
REMARK   14  A    between atoms: N_23  and  C_24
REMARK   15  A    between atoms: C_24  and  C_25
REMARK   16  A    between atoms: C_25  and  C_26
REMARK                            x       y       z     vdW  Elec       q    Type
REMARK                         _______ _______ _______ _____ _____    ______ ____
ROOT
ATOM      1  C   UNL     1       6.916   4.355  14.118  0.00  0.00    +0.000 C 
ATOM      2  O   UNL     1       8.195   4.349  14.092  0.00  0.00    +0.000 OA
ATOM      3  N   UNL     1       6.317   4.467  15.366  0.00  0.00    +0.000 N 
ATOM      4  C   UNL     1       4.954   4.584  15.895  0.00  0.00    +0.000 C 
ATOM      5  C   UNL     1       5.133   5.672  16.968  0.00  0.00    +0.000 C 
ATOM      6  C   UNL     1       6.341   5.071  17.701  0.00  0.00    +0.000 C 
ATOM      7  C   UNL     1       7.165   4.425  16.565  0.00  0.00    +0.000 C 
ENDROOT
BRANCH   5   8
ATOM      8  C   UNL     1       3.876   5.878  17.769  0.00  0.00    +0.000 C 
ATOM      9  O   UNL     1       3.441   7.034  18.025  0.00  0.00    +0.000 OA
ATOM     10  N   UNL     1       3.270   4.753  18.249  0.00  0.00    +0.000 N 
ATOM     11  H   UNL     1       3.628   3.831  17.965  0.00  0.00    +0.000 HD
BRANCH  10  12
ATOM     12  C   UNL     1       2.064   4.822  19.042  0.00  0.00    +0.000 C 
BRANCH  12  13
ATOM     13  C   UNL     1       2.254   4.346  20.485  0.00  0.00    +0.000 C 
BRANCH  13  14
ATOM     14  C   UNL     1       2.437   2.822  20.514  0.00  0.00    +0.000 C 
BRANCH  14  15
ATOM     15  C   UNL     1       3.907   2.413  20.548  0.00  0.00    +0.000 C 
BRANCH  15  16
ATOM     16  N   UNL     1       4.341   1.981  19.222  0.00  0.00    +0.000 NA
ATOM     17  H   UNL     1       3.533   1.866  18.611  0.00  0.00    +0.000 HD
ATOM     18  H   UNL     1       4.781   1.064  19.287  0.00  0.00    +0.000 HD
ENDBRANCH  15  16
ENDBRANCH  14  15
ENDBRANCH  13  14
ENDBRANCH  12  13
ENDBRANCH  10  12
ENDBRANCH   5   8
BRANCH   6  19
ATOM     19  C   UNL     1       7.132   6.080  18.476  0.00  0.00    +0.000 C 
ATOM     20  O   UNL     1       7.554   5.837  19.593  0.00  0.00    +0.000 OA
ATOM     21  N   UNL     1       7.471   7.229  17.782  0.00  0.00    +0.000 N 
ATOM     22  H   UNL     1       7.207   7.385  16.818  0.00  0.00    +0.000 HD
BRANCH  21  23
ATOM     23  C   UNL     1       8.271   8.228  18.442  0.00  0.00    +0.000 C 
BRANCH  23  24
ATOM     24  C   UNL     1       8.365   9.517  17.622  0.00  0.00    +0.000 C 
BRANCH  24  25
ATOM     25  C   UNL     1       8.909  10.637  18.454  0.00  0.00    +0.000 A 
ATOM     26  C   UNL     1       9.357  10.412  19.760  0.00  0.00    +0.000 A 
ATOM     27  C   UNL     1       9.973  11.438  20.475  0.00  0.00    +0.000 A 
ATOM     28  C   UNL     1      10.188  12.701  19.892  0.00  0.00    +0.000 A 
ATOM     29  C   UNL     1      10.864  13.732  20.552  0.00  0.00    +0.000 A 
ATOM     30  C   UNL     1      11.086  14.962  19.924  0.00  0.00    +0.000 A 
ATOM     31  C   UNL     1      10.627  15.178  18.626  0.00  0.00    +0.000 A 
ATOM     32  C   UNL     1       9.940  14.172  17.962  0.00  0.00    +0.000 A 
ATOM     33  C   UNL     1       9.714  12.932  18.577  0.00  0.00    +0.000 A 
ATOM     34  C   UNL     1       9.059  11.913  17.896  0.00  0.00    +0.000 A 
ENDBRANCH  24  25
ENDBRANCH  23  24
ENDBRANCH  21  23
ENDBRANCH   6  19
BRANCH   1  35
ATOM     35  C   UNL     1       6.171   4.373  12.694  0.00  0.00    +0.000 C 
BRANCH  35  36
ATOM     36  N   UNL     1       7.200   4.453  11.623  0.00  0.00    +0.000 NA
ATOM     37  H   UNL     1       7.559   5.414  11.577  0.00  0.00    +0.000 HD
ATOM     38  H   UNL     1       6.738   4.313  10.727  0.00  0.00    +0.000 HD
ENDBRANCH  35  36
BRANCH  35  39
ATOM     39  C   UNL     1       5.219   3.237  12.183  0.00  0.00    +0.000 C 
ATOM     40  C   UNL     1       6.011   2.074  11.551  0.00  0.00    +0.000 C 
BRANCH  39  42
ATOM     41  C   UNL     1       3.135   2.819  10.791  0.00  0.00    +0.000 C 
ATOM     42  C   UNL     1       4.231   3.814  11.195  0.00  0.00    +0.000 C 
ENDBRANCH  39  42
ENDBRANCH  35  39
ENDBRANCH   1  35
TORSDOF 14
ENDMDL
MODEL 7
REMARK VINA RESULT:      -7.7      3.151      5.247
REMARK  Name = 
REMARK  16 active torsions:
REMARK  status: ('A' for Active; 'I' for Inactive)
REMARK    1  A    between atoms: C_1  and  C_2
REMARK    2  A    between atoms: C_2  and  C_3
REMARK    3  A    between atoms: C_3  and  C_4
REMARK    4  A    between atoms: C_3  and  C_5
REMARK    5  A    between atoms: C_5  and  N_6
REMARK    6  A    between atoms: C_5  and  C_7
REMARK    7  A    between atoms: C_11  and  C_12
REMARK    8  A    between atoms: N_14  and  C_15
REMARK    9  A    between atoms: C_15  and  C_16
REMARK   10  A    between atoms: C_16  and  C_17
REMARK   11  A    between atoms: C_17  and  C_18
REMARK   12  A    between atoms: C_18  and  N_19
REMARK   13  A    between atoms: C_20  and  C_21
REMARK   14  A    between atoms: N_23  and  C_24
REMARK   15  A    between atoms: C_24  and  C_25
REMARK   16  A    between atoms: C_25  and  C_26
REMARK                            x       y       z     vdW  Elec       q    Type
REMARK                         _______ _______ _______ _____ _____    ______ ____
ROOT
ATOM      1  C   UNL     1       2.269   8.605  18.015  0.00  0.00    +0.000 C 
ATOM      2  O   UNL     1       2.552   9.638  17.315  0.00  0.00    +0.000 OA
ATOM      3  N   UNL     1       3.089   7.496  17.851  0.00  0.00    +0.000 N 
ATOM      4  C   UNL     1       3.217   6.160  18.444  0.00  0.00    +0.000 C 
ATOM      5  C   UNL     1       4.743   6.042  18.607  0.00  0.00    +0.000 C 
ATOM      6  C   UNL     1       5.154   6.445  17.184  0.00  0.00    +0.000 C 
ATOM      7  C   UNL     1       4.116   7.523  16.801  0.00  0.00    +0.000 C 
ENDROOT
BRANCH   5   8
ATOM      8  C   UNL     1       5.149   4.672  19.078  0.00  0.00    +0.000 C 
ATOM      9  O   UNL     1       6.350   4.287  19.025  0.00  0.00    +0.000 OA
ATOM     10  N   UNL     1       4.144   3.855  19.507  0.00  0.00    +0.000 N 
ATOM     11  H   UNL     1       3.191   4.231  19.588  0.00  0.00    +0.000 HD
BRANCH  10  12
ATOM     12  C   UNL     1       4.408   2.511  19.972  0.00  0.00    +0.000 C 
BRANCH  12  13
ATOM     13  C   UNL     1       3.213   1.864  20.676  0.00  0.00    +0.000 C 
BRANCH  13  14
ATOM     14  C   UNL     1       2.433   2.923  21.468  0.00  0.00    +0.000 C 
BRANCH  14  15
ATOM     15  C   UNL     1       1.026   3.142  20.917  0.00  0.00    +0.000 C 
BRANCH  15  16
ATOM     16  N   UNL     1       1.023   2.990  19.465  0.00  0.00    +0.000 NA
ATOM     17  H   UNL     1       1.798   3.513  19.058  0.00  0.00    +0.000 HD
ATOM     18  H   UNL     1       0.172   3.396  19.080  0.00  0.00    +0.000 HD
ENDBRANCH  15  16
ENDBRANCH  14  15
ENDBRANCH  13  14
ENDBRANCH  12  13
ENDBRANCH  10  12
ENDBRANCH   5   8
BRANCH   6  19
ATOM     19  C   UNL     1       6.562   6.951  17.089  0.00  0.00    +0.000 C 
ATOM     20  O   UNL     1       7.409   6.361  16.442  0.00  0.00    +0.000 OA
ATOM     21  N   UNL     1       6.784   8.195  17.657  0.00  0.00    +0.000 N 
ATOM     22  H   UNL     1       6.053   8.732  18.105  0.00  0.00    +0.000 HD
BRANCH  21  23
ATOM     23  C   UNL     1       8.100   8.773  17.567  0.00  0.00    +0.000 C 
BRANCH  23  24
ATOM     24  C   UNL     1       8.733   8.966  18.947  0.00  0.00    +0.000 C 
BRANCH  24  25
ATOM     25  C   UNL     1       9.334  10.333  19.068  0.00  0.00    +0.000 A 
ATOM     26  C   UNL     1       9.799  11.017  17.942  0.00  0.00    +0.000 A 
ATOM     27  C   UNL     1      10.241  12.335  18.057  0.00  0.00    +0.000 A 
ATOM     28  C   UNL     1      10.198  13.010  19.291  0.00  0.00    +0.000 A 
ATOM     29  C   UNL     1      10.566  14.352  19.432  0.00  0.00    +0.000 A 
ATOM     30  C   UNL     1      10.475  14.995  20.671  0.00  0.00    +0.000 A 
ATOM     31  C   UNL     1      10.021  14.299  21.789  0.00  0.00    +0.000 A 
ATOM     32  C   UNL     1       9.666  12.963  21.672  0.00  0.00    +0.000 A 
ATOM     33  C   UNL     1       9.747  12.307  20.435  0.00  0.00    +0.000 A 
ATOM     34  C   UNL     1       9.355  10.978  20.312  0.00  0.00    +0.000 A 
ENDBRANCH  24  25
ENDBRANCH  23  24
ENDBRANCH  21  23
ENDBRANCH   6  19
BRANCH   1  35
ATOM     35  C   UNL     1       1.090   8.773  19.095  0.00  0.00    +0.000 C 
BRANCH  35  36
ATOM     36  N   UNL     1       1.640   8.477  20.445  0.00  0.00    +0.000 NA
ATOM     37  H   UNL     1       1.846   7.472  20.508  0.00  0.00    +0.000 HD
ATOM     38  H   UNL     1       0.902   8.626  21.129  0.00  0.00    +0.000 HD
ENDBRANCH  35  36
BRANCH  35  39
ATOM     39  C   UNL     1       0.290  10.101  19.326  0.00  0.00    +0.000 C 
ATOM     40  C   UNL     1      -0.268  10.186  20.761  0.00  0.00    +0.000 C 
BRANCH  39  42
ATOM     41  C   UNL     1      -1.441  11.602  18.227  0.00  0.00    +0.000 C 
ATOM     42  C   UNL     1      -0.825  10.199  18.309  0.00  0.00    +0.000 C 
ENDBRANCH  39  42
ENDBRANCH  35  39
ENDBRANCH   1  35
TORSDOF 14
ENDMDL
MODEL 8
REMARK VINA RESULT:      -7.6      1.580      1.838
REMARK  Name = 
REMARK  16 active torsions:
REMARK  status: ('A' for Active; 'I' for Inactive)
REMARK    1  A    between atoms: C_1  and  C_2
REMARK    2  A    between atoms: C_2  and  C_3
REMARK    3  A    between atoms: C_3  and  C_4
REMARK    4  A    between atoms: C_3  and  C_5
REMARK    5  A    between atoms: C_5  and  N_6
REMARK    6  A    between atoms: C_5  and  C_7
REMARK    7  A    between atoms: C_11  and  C_12
REMARK    8  A    between atoms: N_14  and  C_15
REMARK    9  A    between atoms: C_15  and  C_16
REMARK   10  A    between atoms: C_16  and  C_17
REMARK   11  A    between atoms: C_17  and  C_18
REMARK   12  A    between atoms: C_18  and  N_19
REMARK   13  A    between atoms: C_20  and  C_21
REMARK   14  A    between atoms: N_23  and  C_24
REMARK   15  A    between atoms: C_24  and  C_25
REMARK   16  A    between atoms: C_25  and  C_26
REMARK                            x       y       z     vdW  Elec       q    Type
REMARK                         _______ _______ _______ _____ _____    ______ ____
ROOT
ATOM      1  C   UNL     1       3.727   4.198  18.962  0.00  0.00    +0.000 C 
ATOM      2  O   UNL     1       3.698   4.828  20.074  0.00  0.00    +0.000 OA
ATOM      3  N   UNL     1       4.371   4.826  17.904  0.00  0.00    +0.000 N 
ATOM      4  C   UNL     1       4.717   4.504  16.516  0.00  0.00    +0.000 C 
ATOM      5  C   UNL     1       6.160   5.033  16.428  0.00  0.00    +0.000 C 
ATOM      6  C   UNL     1       5.921   6.438  17.000  0.00  0.00    +0.000 C 
ATOM      7  C   UNL     1       4.842   6.207  18.081  0.00  0.00    +0.000 C 
ENDROOT
BRANCH   5   8
ATOM      8  C   UNL     1       6.702   4.944  15.028  0.00  0.00    +0.000 C 
ATOM      9  O   UNL     1       7.789   5.500  14.706  0.00  0.00    +0.000 OA
ATOM     10  N   UNL     1       5.930   4.284  14.117  0.00  0.00    +0.000 N 
ATOM     11  H   UNL     1       5.082   3.797  14.438  0.00  0.00    +0.000 HD
BRANCH  10  12
ATOM     12  C   UNL     1       6.338   4.143  12.738  0.00  0.00    +0.000 C 
BRANCH  12  13
ATOM     13  C   UNL     1       7.219   2.917  12.484  0.00  0.00    +0.000 C 
BRANCH  13  14
ATOM     14  C   UNL     1       6.867   2.289  11.128  0.00  0.00    +0.000 C 
BRANCH  14  15
ATOM     15  C   UNL     1       5.787   1.218  11.246  0.00  0.00    +0.000 C 
BRANCH  15  16
ATOM     16  N   UNL     1       6.391  -0.112  11.236  0.00  0.00    +0.000 NA
ATOM     17  H   UNL     1       6.513  -0.447  12.192  0.00  0.00    +0.000 HD
ATOM     18  H   UNL     1       7.324  -0.061  10.830  0.00  0.00    +0.000 HD
ENDBRANCH  15  16
ENDBRANCH  14  15
ENDBRANCH  13  14
ENDBRANCH  12  13
ENDBRANCH  10  12
ENDBRANCH   5   8
BRANCH   6  19
ATOM     19  C   UNL     1       7.158   7.074  17.557  0.00  0.00    +0.000 C 
ATOM     20  O   UNL     1       7.994   6.422  18.157  0.00  0.00    +0.000 OA
ATOM     21  N   UNL     1       7.348   8.402  17.215  0.00  0.00    +0.000 N 
ATOM     22  H   UNL     1       6.703   8.916  16.629  0.00  0.00    +0.000 HD
BRANCH  21  23
ATOM     23  C   UNL     1       8.537   9.074  17.673  0.00  0.00    +0.000 C 
BRANCH  23  24
ATOM     24  C   UNL     1       8.207  10.318  18.500  0.00  0.00    +0.000 C 
BRANCH  24  25
ATOM     25  C   UNL     1       9.189  11.415  18.222  0.00  0.00    +0.000 A 
ATOM     26  C   UNL     1      10.486  11.127  17.788  0.00  0.00    +0.000 A 
ATOM     27  C   UNL     1      11.345  12.162  17.416  0.00  0.00    +0.000 A 
ATOM     28  C   UNL     1      10.918  13.503  17.438  0.00  0.00    +0.000 A 
ATOM     29  C   UNL     1      11.726  14.559  17.007  0.00  0.00    +0.000 A 
ATOM     30  C   UNL     1      11.250  15.875  17.013  0.00  0.00    +0.000 A 
ATOM     31  C   UNL     1       9.960  16.151  17.458  0.00  0.00    +0.000 A 
ATOM     32  C   UNL     1       9.149  15.116  17.904  0.00  0.00    +0.000 A 
ATOM     33  C   UNL     1       9.610  13.792  17.900  0.00  0.00    +0.000 A 
ATOM     34  C   UNL     1       8.783  12.753  18.311  0.00  0.00    +0.000 A 
ENDBRANCH  24  25
ENDBRANCH  23  24
ENDBRANCH  21  23
ENDBRANCH   6  19
BRANCH   1  35
ATOM     35  C   UNL     1       3.138   2.702  18.971  0.00  0.00    +0.000 C 
BRANCH  35  36
ATOM     36  N   UNL     1       4.072   1.831  19.732  0.00  0.00    +0.000 NA
ATOM     37  H   UNL     1       4.978   2.308  19.817  0.00  0.00    +0.000 HD
ATOM     38  H   UNL     1       4.272   1.009  19.167  0.00  0.00    +0.000 HD
ENDBRANCH  35  36
BRANCH  35  39
ATOM     39  C   UNL     1       1.737   2.311  19.557  0.00  0.00    +0.000 C 
ATOM     40  C   UNL     1       0.649   2.291  18.464  0.00  0.00    +0.000 C 
BRANCH  39  42
ATOM     41  C   UNL     1       1.673   2.721  22.064  0.00  0.00    +0.000 C 
ATOM     42  C   UNL     1       1.368   3.273  20.664  0.00  0.00    +0.000 C 
ENDBRANCH  39  42
ENDBRANCH  35  39
ENDBRANCH   1  35
TORSDOF 14
ENDMDL
MODEL 9
REMARK VINA RESULT:      -7.6      7.517     11.254
REMARK  Name = 
REMARK  16 active torsions:
REMARK  status: ('A' for Active; 'I' for Inactive)
REMARK    1  A    between atoms: C_1  and  C_2
REMARK    2  A    between atoms: C_2  and  C_3
REMARK    3  A    between atoms: C_3  and  C_4
REMARK    4  A    between atoms: C_3  and  C_5
REMARK    5  A    between atoms: C_5  and  N_6
REMARK    6  A    between atoms: C_5  and  C_7
REMARK    7  A    between atoms: C_11  and  C_12
REMARK    8  A    between atoms: N_14  and  C_15
REMARK    9  A    between atoms: C_15  and  C_16
REMARK   10  A    between atoms: C_16  and  C_17
REMARK   11  A    between atoms: C_17  and  C_18
REMARK   12  A    between atoms: C_18  and  N_19
REMARK   13  A    between atoms: C_20  and  C_21
REMARK   14  A    between atoms: N_23  and  C_24
REMARK   15  A    between atoms: C_24  and  C_25
REMARK   16  A    between atoms: C_25  and  C_26
REMARK                            x       y       z     vdW  Elec       q    Type
REMARK                         _______ _______ _______ _____ _____    ______ ____
ROOT
ATOM      1  C   UNL     1      -2.481  12.720  22.150  0.00  0.00    +0.000 C 
ATOM      2  O   UNL     1      -1.571  12.860  23.038  0.00  0.00    +0.000 OA
ATOM      3  N   UNL     1      -2.055  12.547  20.840  0.00  0.00    +0.000 N 
ATOM      4  C   UNL     1      -2.675  12.288  19.536  0.00  0.00    +0.000 C 
ATOM      5  C   UNL     1      -1.727  11.226  18.951  0.00  0.00    +0.000 C 
ATOM      6  C   UNL     1      -0.396  11.952  19.193  0.00  0.00    +0.000 C 
ATOM      7  C   UNL     1      -0.624  12.679  20.538  0.00  0.00    +0.000 C 
ENDROOT
BRANCH   5   8
ATOM      8  C   UNL     1      -2.077  10.890  17.527  0.00  0.00    +0.000 C 
ATOM      9  O   UNL     1      -1.509   9.943  16.916  0.00  0.00    +0.000 OA
ATOM     10  N   UNL     1      -2.993  11.698  16.919  0.00  0.00    +0.000 N 
ATOM     11  H   UNL     1      -3.472  12.419  17.474  0.00  0.00    +0.000 HD
BRANCH  10  12
ATOM     12  C   UNL     1      -3.401  11.483  15.549  0.00  0.00    +0.000 C 
BRANCH  12  13
ATOM     13  C   UNL     1      -3.552  10.005  15.182  0.00  0.00    +0.000 C 
BRANCH  13  14
ATOM     14  C   UNL     1      -3.065   9.769  13.745  0.00  0.00    +0.000 C 
BRANCH  14  15
ATOM     15  C   UNL     1      -4.211   9.757  12.737  0.00  0.00    +0.000 C 
BRANCH  15  16
ATOM     16  N   UNL     1      -3.686   9.817  11.375  0.00  0.00    +0.000 NA
ATOM     17  H   UNL     1      -4.383   9.467  10.718  0.00  0.00    +0.000 HD
ATOM     18  H   UNL     1      -2.880   9.199  11.291  0.00  0.00    +0.000 HD
ENDBRANCH  15  16
ENDBRANCH  14  15
ENDBRANCH  13  14
ENDBRANCH  12  13
ENDBRANCH  10  12
ENDBRANCH   5   8
BRANCH   6  19
ATOM     19  C   UNL     1       0.787  11.032  19.237  0.00  0.00    +0.000 C 
ATOM     20  O   UNL     1       1.926  11.462  19.271  0.00  0.00    +0.000 OA
ATOM     21  N   UNL     1       0.488   9.688  19.385  0.00  0.00    +0.000 N 
ATOM     22  H   UNL     1      -0.459   9.342  19.460  0.00  0.00    +0.000 HD
BRANCH  21  23
ATOM     23  C   UNL     1       1.571   8.743  19.482  0.00  0.00    +0.000 C 
BRANCH  23  24
ATOM     24  C   UNL     1       2.413   8.708  18.206  0.00  0.00    +0.000 C 
BRANCH  24  25
ATOM     25  C   UNL     1       2.806   7.302  17.868  0.00  0.00    +0.000 A 
ATOM     26  C   UNL     1       4.074   7.012  17.357  0.00  0.00    +0.000 A 
ATOM     27  C   UNL     1       4.465   5.687  17.165  0.00  0.00    +0.000 A 
ATOM     28  C   UNL     1       3.613   4.621  17.510  0.00  0.00    +0.000 A 
ATOM     29  C   UNL     1       3.996   3.281  17.398  0.00  0.00    +0.000 A 
ATOM     30  C   UNL     1       3.130   2.253  17.785  0.00  0.00    +0.000 A 
ATOM     31  C   UNL     1       1.865   2.553  18.283  0.00  0.00    +0.000 A 
ATOM     32  C   UNL     1       1.461   3.877  18.387  0.00  0.00    +0.000 A 
ATOM     33  C   UNL     1       2.320   4.919  18.008  0.00  0.00    +0.000 A 
ATOM     34  C   UNL     1       1.929   6.245  18.148  0.00  0.00    +0.000 A 
ENDBRANCH  24  25
ENDBRANCH  23  24
ENDBRANCH  21  23
ENDBRANCH   6  19
BRANCH   1  35
ATOM     35  C   UNL     1      -3.994  12.622  22.685  0.00  0.00    +0.000 C 
BRANCH  35  36
ATOM     36  N   UNL     1      -4.021  13.054  24.108  0.00  0.00    +0.000 NA
ATOM     37  H   UNL     1      -4.957  12.875  24.493  0.00  0.00    +0.000 HD
ATOM     38  H   UNL     1      -3.927  14.067  24.135  0.00  0.00    +0.000 HD
ENDBRANCH  35  36
BRANCH  35  39
ATOM     39  C   UNL     1      -5.202  13.400  22.059  0.00  0.00    +0.000 C 
ATOM     40  C   UNL     1      -6.091  14.039  23.145  0.00  0.00    +0.000 C 
BRANCH  39  42
ATOM     41  C   UNL     1      -7.405  12.171  21.752  0.00  0.00    +0.000 C 
ATOM     42  C   UNL     1      -6.008  12.462  21.188  0.00  0.00    +0.000 C 
ENDBRANCH  39  42
ENDBRANCH  35  39
ENDBRANCH   1  35
TORSDOF 14
ENDMDL
