MODEL 1
REMARK VINA RESULT:      -7.5      0.000      0.000
REMARK  Name = 
REMARK  2 active torsions:
REMARK  status: ('A' for Active; 'I' for Inactive)
REMARK    1  A    between atoms: N_10  and  C_11
REMARK    2  A    between atoms: C_11  and  C_12
REMARK                            x       y       z     vdW  Elec       q    Type
REMARK                         _______ _______ _______ _____ _____    ______ ____
ROOT
ATOM      1  O   UNL     1       8.252   4.014  17.492  0.00  0.00    +0.000 OA
ATOM      2  C   UNL     1       7.155   4.435  17.809  0.00  0.00    +0.000 C 
ATOM      3  C   UNL     1       5.948   4.473  16.906  0.00  0.00    +0.000 C 
ATOM      4  C   UNL     1       4.824   5.034  17.807  0.00  0.00    +0.000 C 
ATOM      5  C   UNL     1       5.557   5.365  19.099  0.00  0.00    +0.000 C 
ATOM      6  O   UNL     1       5.066   5.909  20.077  0.00  0.00    +0.000 OA
ATOM      7  N   UNL     1       6.839   4.948  19.016  0.00  0.00    +0.000 N 
ATOM      8  C   UNL     1       4.299   6.359  17.254  0.00  0.00    +0.000 C 
ATOM      9  O   UNL     1       4.988   7.087  16.540  0.00  0.00    +0.000 OA
ATOM     10  N   UNL     1       3.028   6.704  17.671  0.00  0.00    +0.000 N 
ATOM     11  C   UNL     1       2.011   5.771  17.577  0.00  0.00    +0.000 C 
ATOM     12  O   UNL     1       0.867   6.023  17.215  0.00  0.00    +0.000 OA
ATOM     13  C   UNL     1       2.378   4.383  17.948  0.00  0.00    +0.000 A 
ATOM     14  C   UNL     1       1.356   3.472  18.260  0.00  0.00    +0.000 A 
ATOM     15  C   UNL     1       1.670   2.205  18.754  0.00  0.00    +0.000 A 
ATOM     16  C   UNL     1       3.002   1.844  18.920  0.00  0.00    +0.000 A 
ATOM     17  C   UNL     1       4.006   2.747  18.586  0.00  0.00    +0.000 A 
ATOM     18  F   UNL     1       5.279   2.375  18.777  0.00  0.00    +0.000 F 
ATOM     19  C   UNL     1       3.723   4.028  18.093  0.00  0.00    +0.000 A 
ATOM     20  H   UNL     1       7.504   5.042  19.767  0.00  0.00    +0.000 HD
ENDROOT
BRANCH  10  21
ATOM     21  C   UNL     1       2.670   8.117  17.718  0.00  0.00    +0.000 C 
BRANCH  21  22
ATOM     22  C   UNL     1       1.872   8.400  18.976  0.00  0.00    +0.000 A 
ATOM     23  C   UNL     1       2.023   7.602  20.122  0.00  0.00    +0.000 A 
ATOM     24  C   UNL     1       1.367   7.938  21.309  0.00  0.00    +0.000 A 
ATOM     25  C   UNL     1       0.559   9.075  21.361  0.00  0.00    +0.000 A 
ATOM     26 BR   UNL     1      -0.280   9.555  22.988  0.00  0.00    +0.000 Br
ATOM     27  C   UNL     1       0.384   9.867  20.232  0.00  0.00    +0.000 A 
ATOM     28  C   UNL     1       1.039   9.522  19.052  0.00  0.00    +0.000 A 
ATOM     29  F   UNL     1       0.871  10.297  17.972  0.00  0.00    +0.000 F 
ENDBRANCH  21  22
ENDBRANCH  10  21
TORSDOF 2
ENDMDL
MODEL 2
REMARK VINA RESULT:      -7.5      6.552      9.084
REMARK  Name = 
REMARK  2 active torsions:
REMARK  status: ('A' for Active; 'I' for Inactive)
REMARK    1  A    between atoms: N_10  and  C_11
REMARK    2  A    between atoms: C_11  and  C_12
REMARK                            x       y       z     vdW  Elec       q    Type
REMARK                         _______ _______ _______ _____ _____    ______ ____
ROOT
ATOM      1  O   UNL     1      -2.971  10.952  15.897  0.00  0.00    +0.000 OA
ATOM      2  C   UNL     1      -2.440  11.332  16.923  0.00  0.00    +0.000 C 
ATOM      3  C   UNL     1      -2.745  10.805  18.303  0.00  0.00    +0.000 C 
ATOM      4  C   UNL     1      -1.766  11.571  19.221  0.00  0.00    +0.000 C 
ATOM      5  C   UNL     1      -1.091  12.542  18.265  0.00  0.00    +0.000 C 
ATOM      6  O   UNL     1      -0.286  13.407  18.577  0.00  0.00    +0.000 OA
ATOM      7  N   UNL     1      -1.499  12.296  17.000  0.00  0.00    +0.000 N 
ATOM      8  C   UNL     1      -2.530  12.422  20.236  0.00  0.00    +0.000 C 
ATOM      9  O   UNL     1      -3.674  12.823  20.021  0.00  0.00    +0.000 OA
ATOM     10  N   UNL     1      -1.818  12.759  21.371  0.00  0.00    +0.000 N 
ATOM     11  C   UNL     1      -1.149  11.768  22.066  0.00  0.00    +0.000 C 
ATOM     12  O   UNL     1      -1.105  11.684  23.288  0.00  0.00    +0.000 OA
ATOM     13  C   UNL     1      -0.452  10.759  21.231  0.00  0.00    +0.000 A 
ATOM     14  C   UNL     1       0.552   9.971  21.817  0.00  0.00    +0.000 A 
ATOM     15  C   UNL     1       1.327   9.119  21.030  0.00  0.00    +0.000 A 
ATOM     16  C   UNL     1       1.087   9.041  19.663  0.00  0.00    +0.000 A 
ATOM     17  C   UNL     1       0.074   9.809  19.098  0.00  0.00    +0.000 A 
ATOM     18  F   UNL     1      -0.117   9.725  17.774  0.00  0.00    +0.000 F 
ATOM     19  C   UNL     1      -0.717  10.678  19.861  0.00  0.00    +0.000 A 
ATOM     20  H   UNL     1      -1.162  12.803  16.198  0.00  0.00    +0.000 HD
ENDROOT
BRANCH  10  21
ATOM     21  C   UNL     1      -2.177  13.981  22.080  0.00  0.00    +0.000 C 
BRANCH  21  22
ATOM     22  C   UNL     1      -1.453  15.162  21.462  0.00  0.00    +0.000 A 
ATOM     23  C   UNL     1      -0.067  15.325  21.623  0.00  0.00    +0.000 A 
ATOM     24  C   UNL     1       0.606  16.352  20.958  0.00  0.00    +0.000 A 
ATOM     25  C   UNL     1      -0.099  17.222  20.124  0.00  0.00    +0.000 A 
ATOM     26 BR   UNL     1       0.829  18.575  19.182  0.00  0.00    +0.000 Br
ATOM     27  C   UNL     1      -1.474  17.087  19.966  0.00  0.00    +0.000 A 
ATOM     28  C   UNL     1      -2.137  16.061  20.636  0.00  0.00    +0.000 A 
ATOM     29  F   UNL     1      -3.461  15.934  20.470  0.00  0.00    +0.000 F 
ENDBRANCH  21  22
ENDBRANCH  10  21
TORSDOF 2
ENDMDL
MODEL 3
REMARK VINA RESULT:      -7.4      7.240     10.145
REMARK  Name = 
REMARK  2 active torsions:
REMARK  status: ('A' for Active; 'I' for Inactive)
REMARK    1  A    between atoms: N_10  and  C_11
REMARK    2  A    between atoms: C_11  and  C_12
REMARK                            x       y       z     vdW  Elec       q    Type
REMARK                         _______ _______ _______ _____ _____    ______ ____
ROOT
ATOM      1  O   UNL     1       6.051  15.199  18.465  0.00  0.00    +0.000 OA
ATOM      2  C   UNL     1       4.852  15.029  18.581  0.00  0.00    +0.000 C 
ATOM      3  C   UNL     1       3.970  15.734  19.580  0.00  0.00    +0.000 C 
ATOM      4  C   UNL     1       2.552  15.205  19.267  0.00  0.00    +0.000 C 
ATOM      5  C   UNL     1       2.809  14.159  18.193  0.00  0.00    +0.000 C 
ATOM      6  O   UNL     1       1.967  13.424  17.697  0.00  0.00    +0.000 OA
ATOM      7  N   UNL     1       4.114  14.172  17.845  0.00  0.00    +0.000 N 
ATOM      8  C   UNL     1       1.975  14.459  20.470  0.00  0.00    +0.000 C 
ATOM      9  O   UNL     1       2.696  13.934  21.319  0.00  0.00    +0.000 OA
ATOM     10  N   UNL     1       0.597  14.363  20.493  0.00  0.00    +0.000 N 
ATOM     11  C   UNL     1      -0.161  15.502  20.297  0.00  0.00    +0.000 C 
ATOM     12  O   UNL     1      -1.179  15.777  20.922  0.00  0.00    +0.000 OA
ATOM     13  C   UNL     1       0.330  16.425  19.245  0.00  0.00    +0.000 A 
ATOM     14  C   UNL     1      -0.554  17.376  18.711  0.00  0.00    +0.000 A 
ATOM     15  C   UNL     1      -0.171  18.160  17.622  0.00  0.00    +0.000 A 
ATOM     16  C   UNL     1       1.100  18.006  17.079  0.00  0.00    +0.000 A 
ATOM     17  C   UNL     1       1.976  17.077  17.633  0.00  0.00    +0.000 A 
ATOM     18  F   UNL     1       3.186  16.939  17.073  0.00  0.00    +0.000 F 
ATOM     19  C   UNL     1       1.618  16.272  18.722  0.00  0.00    +0.000 A 
ATOM     20  H   UNL     1       4.506  13.578  17.133  0.00  0.00    +0.000 HD
ENDROOT
BRANCH  10  21
ATOM     21  C   UNL     1      -0.010  13.238  21.196  0.00  0.00    +0.000 C 
BRANCH  21  22
ATOM     22  C   UNL     1      -0.711  12.334  20.200  0.00  0.00    +0.000 A 
ATOM     23  C   UNL     1      -2.059  12.539  19.862  0.00  0.00    +0.000 A 
ATOM     24  C   UNL     1      -2.662  11.771  18.863  0.00  0.00    +0.000 A 
ATOM     25  C   UNL     1      -1.924  10.795  18.193  0.00  0.00    +0.000 A 
ATOM     26 BR   UNL     1      -2.732   9.798  16.803  0.00  0.00    +0.000 Br
ATOM     27  C   UNL     1      -0.593  10.565  18.526  0.00  0.00    +0.000 A 
ATOM     28  C   UNL     1      -0.001  11.334  19.526  0.00  0.00    +0.000 A 
ATOM     29  F   UNL     1       1.284  11.111  19.834  0.00  0.00    +0.000 F 
ENDBRANCH  21  22
ENDBRANCH  10  21
TORSDOF 2
ENDMDL
MODEL 4
REMARK VINA RESULT:      -7.2      6.626      9.137
REMARK  Name = 
REMARK  2 active torsions:
REMARK  status: ('A' for Active; 'I' for Inactive)
REMARK    1  A    between atoms: N_10  and  C_11
REMARK    2  A    between atoms: C_11  and  C_12
REMARK                            x       y       z     vdW  Elec       q    Type
REMARK                         _______ _______ _______ _____ _____    ______ ____
ROOT
ATOM      1  O   UNL     1      -2.662  10.854  15.811  0.00  0.00    +0.000 OA
ATOM      2  C   UNL     1      -2.295  11.257  16.898  0.00  0.00    +0.000 C 
ATOM      3  C   UNL     1      -2.716  10.675  18.225  0.00  0.00    +0.000 C 
ATOM      4  C   UNL     1      -1.927  11.503  19.264  0.00  0.00    +0.000 C 
ATOM      5  C   UNL     1      -1.231  12.551  18.408  0.00  0.00    +0.000 C 
ATOM      6  O   UNL     1      -0.550  13.476  18.826  0.00  0.00    +0.000 OA
ATOM      7  N   UNL     1      -1.460  12.297  17.100  0.00  0.00    +0.000 N 
ATOM      8  C   UNL     1      -2.881  12.262  20.187  0.00  0.00    +0.000 C 
ATOM      9  O   UNL     1      -4.021  12.565  19.839  0.00  0.00    +0.000 OA
ATOM     10  N   UNL     1      -2.344  12.635  21.404  0.00  0.00    +0.000 N 
ATOM     11  C   UNL     1      -1.677  11.691  22.164  0.00  0.00    +0.000 C 
ATOM     12  O   UNL     1      -1.773  11.584  23.382  0.00  0.00    +0.000 OA
ATOM     13  C   UNL     1      -0.797  10.766  21.410  0.00  0.00    +0.000 A 
ATOM     14  C   UNL     1       0.196  10.056  22.106  0.00  0.00    +0.000 A 
ATOM     15  C   UNL     1       1.133   9.293  21.409  0.00  0.00    +0.000 A 
ATOM     16  C   UNL     1       1.068   9.224  20.022  0.00  0.00    +0.000 A 
ATOM     17  C   UNL     1       0.065   9.912  19.346  0.00  0.00    +0.000 A 
ATOM     18  F   UNL     1       0.043   9.841  18.008  0.00  0.00    +0.000 F 
ATOM     19  C   UNL     1      -0.886  10.692  20.017  0.00  0.00    +0.000 A 
ATOM     20  H   UNL     1      -1.076  12.849  16.351  0.00  0.00    +0.000 HD
ENDROOT
BRANCH  10  21
ATOM     21  C   UNL     1      -2.894  13.805  22.078  0.00  0.00    +0.000 C 
BRANCH  21  22
ATOM     22  C   UNL     1      -1.764  14.698  22.554  0.00  0.00    +0.000 A 
ATOM     23  C   UNL     1      -0.857  15.264  21.643  0.00  0.00    +0.000 A 
ATOM     24  C   UNL     1       0.110  16.172  22.081  0.00  0.00    +0.000 A 
ATOM     25  C   UNL     1       0.178  16.523  23.429  0.00  0.00    +0.000 A 
ATOM     26 BR   UNL     1       1.454  17.796  24.004  0.00  0.00    +0.000 Br
ATOM     27  C   UNL     1      -0.699  15.959  24.350  0.00  0.00    +0.000 A 
ATOM     28  C   UNL     1      -1.659  15.052  23.904  0.00  0.00    +0.000 A 
ATOM     29  F   UNL     1      -2.505  14.520  24.797  0.00  0.00    +0.000 F 
ENDBRANCH  21  22
ENDBRANCH  10  21
TORSDOF 2
ENDMDL
MODEL 5
REMARK VINA RESULT:      -7.1      6.248      8.757
REMARK  Name = 
REMARK  2 active torsions:
REMARK  status: ('A' for Active; 'I' for Inactive)
REMARK    1  A    between atoms: N_10  and  C_11
REMARK    2  A    between atoms: C_11  and  C_12
REMARK                            x       y       z     vdW  Elec       q    Type
REMARK                         _______ _______ _______ _____ _____    ______ ____
ROOT
ATOM      1  O   UNL     1      -3.200  11.209  16.103  0.00  0.00    +0.000 OA
ATOM      2  C   UNL     1      -2.521  11.435  17.087  0.00  0.00    +0.000 C 
ATOM      3  C   UNL     1      -2.686  10.763  18.427  0.00  0.00    +0.000 C 
ATOM      4  C   UNL     1      -1.551  11.361  19.288  0.00  0.00    +0.000 C 
ATOM      5  C   UNL     1      -0.936  12.403  18.366  0.00  0.00    +0.000 C 
ATOM      6  O   UNL     1      -0.042  13.181  18.665  0.00  0.00    +0.000 OA
ATOM      7  N   UNL     1      -1.514  12.332  17.147  0.00  0.00    +0.000 N 
ATOM      8  C   UNL     1      -2.123  12.123  20.484  0.00  0.00    +0.000 C 
ATOM      9  O   UNL     1      -3.255  12.606  20.468  0.00  0.00    +0.000 OA
ATOM     10  N   UNL     1      -1.254  12.283  21.546  0.00  0.00    +0.000 N 
ATOM     11  C   UNL     1      -0.572  11.182  22.031  0.00  0.00    +0.000 C 
ATOM     12  O   UNL     1      -0.381  10.950  23.219  0.00  0.00    +0.000 OA
ATOM     13  C   UNL     1      -0.054  10.246  21.004  0.00  0.00    +0.000 A 
ATOM     14  C   UNL     1       0.960   9.342  21.360  0.00  0.00    +0.000 A 
ATOM     15  C   UNL     1       1.572   8.552  20.387  0.00  0.00    +0.000 A 
ATOM     16  C   UNL     1       1.159   8.650  19.063  0.00  0.00    +0.000 A 
ATOM     17  C   UNL     1       0.137   9.532  18.726  0.00  0.00    +0.000 A 
ATOM     18  F   UNL     1      -0.223   9.618  17.438  0.00  0.00    +0.000 F 
ATOM     19  C   UNL     1      -0.492  10.344  19.680  0.00  0.00    +0.000 A 
ATOM     20  H   UNL     1      -1.247  12.913  16.370  0.00  0.00    +0.000 HD
ENDROOT
BRANCH  10  21
ATOM     21  C   UNL     1      -1.438  13.429  22.429  0.00  0.00    +0.000 C 
BRANCH  21  22
ATOM     22  C   UNL     1      -0.818  14.662  21.801  0.00  0.00    +0.000 A 
ATOM     23  C   UNL     1      -1.606  15.772  21.456  0.00  0.00    +0.000 A 
ATOM     24  C   UNL     1      -1.010  16.943  20.982  0.00  0.00    +0.000 A 
ATOM     25  C   UNL     1       0.377  17.016  20.852  0.00  0.00    +0.000 A 
ATOM     26 BR   UNL     1       1.181  18.624  20.264  0.00  0.00    +0.000 Br
ATOM     27  C   UNL     1       1.173  15.921  21.172  0.00  0.00    +0.000 A 
ATOM     28  C   UNL     1       0.569  14.757  21.641  0.00  0.00    +0.000 A 
ATOM     29  F   UNL     1       1.345  13.710  21.955  0.00  0.00    +0.000 F 
ENDBRANCH  21  22
ENDBRANCH  10  21
TORSDOF 2
ENDMDL
MODEL 6
REMARK VINA RESULT:      -7.1      6.490      9.712
REMARK  Name = 
REMARK  2 active torsions:
REMARK  status: ('A' for Active; 'I' for Inactive)
REMARK    1  A    between atoms: N_10  and  C_11
REMARK    2  A    between atoms: C_11  and  C_12
REMARK                            x       y       z     vdW  Elec       q    Type
REMARK                         _______ _______ _______ _____ _____    ______ ____
ROOT
ATOM      1  O   UNL     1       0.971   9.389  17.855  0.00  0.00    +0.000 OA
ATOM      2  C   UNL     1       0.370  10.158  18.582  0.00  0.00    +0.000 C 
ATOM      3  C   UNL     1       0.920  10.757  19.852  0.00  0.00    +0.000 C 
ATOM      4  C   UNL     1      -0.208  11.692  20.345  0.00  0.00    +0.000 C 
ATOM      5  C   UNL     1      -1.330  11.424  19.352  0.00  0.00    +0.000 C 
ATOM      6  O   UNL     1      -2.456  11.897  19.403  0.00  0.00    +0.000 OA
ATOM      7  N   UNL     1      -0.891  10.593  18.381  0.00  0.00    +0.000 N 
ATOM      8  C   UNL     1      -0.724  11.243  21.712  0.00  0.00    +0.000 C 
ATOM      9  O   UNL     1      -0.626  10.078  22.095  0.00  0.00    +0.000 OA
ATOM     10  N   UNL     1      -1.361  12.224  22.447  0.00  0.00    +0.000 N 
ATOM     11  C   UNL     1      -0.747  13.453  22.607  0.00  0.00    +0.000 C 
ATOM     12  O   UNL     1      -0.736  14.095  23.651  0.00  0.00    +0.000 OA
ATOM     13  C   UNL     1      -0.068  13.991  21.403  0.00  0.00    +0.000 A 
ATOM     14  C   UNL     1       0.230  15.362  21.349  0.00  0.00    +0.000 A 
ATOM     15  C   UNL     1       0.733  15.927  20.177  0.00  0.00    +0.000 A 
ATOM     16  C   UNL     1       0.955  15.120  19.066  0.00  0.00    +0.000 A 
ATOM     17  C   UNL     1       0.677  13.758  19.140  0.00  0.00    +0.000 A 
ATOM     18  F   UNL     1       0.883  13.012  18.045  0.00  0.00    +0.000 F 
ATOM     19  C   UNL     1       0.166  13.163  20.301  0.00  0.00    +0.000 A 
ATOM     20  H   UNL     1      -1.458  10.298  17.603  0.00  0.00    +0.000 HD
ENDROOT
BRANCH  10  21
ATOM     21  C   UNL     1      -2.366  11.819  23.424  0.00  0.00    +0.000 C 
BRANCH  21  22
ATOM     22  C   UNL     1      -3.677  12.522  23.127  0.00  0.00    +0.000 A 
ATOM     23  C   UNL     1      -4.005  12.920  21.821  0.00  0.00    +0.000 A 
ATOM     24  C   UNL     1      -5.260  13.465  21.542  0.00  0.00    +0.000 A 
ATOM     25  C   UNL     1      -6.198  13.614  22.564  0.00  0.00    +0.000 A 
ATOM     26 BR   UNL     1      -7.916  14.300  22.167  0.00  0.00    +0.000 Br
ATOM     27  C   UNL     1      -5.886  13.242  23.867  0.00  0.00    +0.000 A 
ATOM     28  C   UNL     1      -4.630  12.702  24.136  0.00  0.00    +0.000 A 
ATOM     29  F   UNL     1      -4.342  12.339  25.393  0.00  0.00    +0.000 F 
ENDBRANCH  21  22
ENDBRANCH  10  21
TORSDOF 2
ENDMDL
MODEL 7
REMARK VINA RESULT:      -6.9      7.448      9.994
REMARK  Name = 
REMARK  2 active torsions:
REMARK  status: ('A' for Active; 'I' for Inactive)
REMARK    1  A    between atoms: N_10  and  C_11
REMARK    2  A    between atoms: C_11  and  C_12
REMARK                            x       y       z     vdW  Elec       q    Type
REMARK                         _______ _______ _______ _____ _____    ______ ____
ROOT
ATOM      1  O   UNL     1      -4.589  14.251  23.375  0.00  0.00    +0.000 OA
ATOM      2  C   UNL     1      -3.751  13.905  22.563  0.00  0.00    +0.000 C 
ATOM      3  C   UNL     1      -3.310  12.483  22.326  0.00  0.00    +0.000 C 
ATOM      4  C   UNL     1      -2.291  12.595  21.169  0.00  0.00    +0.000 C 
ATOM      5  C   UNL     1      -2.180  14.097  20.958  0.00  0.00    +0.000 C 
ATOM      6  O   UNL     1      -1.418  14.654  20.180  0.00  0.00    +0.000 OA
ATOM      7  N   UNL     1      -3.069  14.737  21.748  0.00  0.00    +0.000 N 
ATOM      8  C   UNL     1      -0.910  12.116  21.617  0.00  0.00    +0.000 C 
ATOM      9  O   UNL     1      -0.563  12.139  22.798  0.00  0.00    +0.000 OA
ATOM     10  N   UNL     1      -0.067  11.725  20.595  0.00  0.00    +0.000 N 
ATOM     11  C   UNL     1      -0.532  10.842  19.638  0.00  0.00    +0.000 C 
ATOM     12  O   UNL     1       0.120   9.915  19.170  0.00  0.00    +0.000 OA
ATOM     13  C   UNL     1      -1.922  11.073  19.176  0.00  0.00    +0.000 A 
ATOM     14  C   UNL     1      -2.337  10.501  17.962  0.00  0.00    +0.000 A 
ATOM     15  C   UNL     1      -3.586  10.817  17.426  0.00  0.00    +0.000 A 
ATOM     16  C   UNL     1      -4.426  11.688  18.110  0.00  0.00    +0.000 A 
ATOM     17  C   UNL     1      -4.014  12.229  19.324  0.00  0.00    +0.000 A 
ATOM     18  F   UNL     1      -4.839  13.081  19.948  0.00  0.00    +0.000 F 
ATOM     19  C   UNL     1      -2.764  11.936  19.885  0.00  0.00    +0.000 A 
ATOM     20  H   UNL     1      -3.189  15.736  21.756  0.00  0.00    +0.000 HD
ENDROOT
BRANCH  10  21
ATOM     21  C   UNL     1       1.373  11.825  20.804  0.00  0.00    +0.000 C 
BRANCH  21  22
ATOM     22  C   UNL     1       1.922  13.002  20.021  0.00  0.00    +0.000 A 
ATOM     23  C   UNL     1       2.346  12.850  18.690  0.00  0.00    +0.000 A 
ATOM     24  C   UNL     1       2.745  13.962  17.945  0.00  0.00    +0.000 A 
ATOM     25  C   UNL     1       2.720  15.233  18.520  0.00  0.00    +0.000 A 
ATOM     26 BR   UNL     1       3.207  16.740  17.485  0.00  0.00    +0.000 Br
ATOM     27  C   UNL     1       2.320  15.401  19.841  0.00  0.00    +0.000 A 
ATOM     28  C   UNL     1       1.927  14.286  20.578  0.00  0.00    +0.000 A 
ATOM     29  F   UNL     1       1.536  14.458  21.848  0.00  0.00    +0.000 F 
ENDBRANCH  21  22
ENDBRANCH  10  21
TORSDOF 2
ENDMDL
MODEL 8
REMARK VINA RESULT:      -6.8      7.587     11.573
REMARK  Name = 
REMARK  2 active torsions:
REMARK  status: ('A' for Active; 'I' for Inactive)
REMARK    1  A    between atoms: N_10  and  C_11
REMARK    2  A    between atoms: C_11  and  C_12
REMARK                            x       y       z     vdW  Elec       q    Type
REMARK                         _______ _______ _______ _____ _____    ______ ____
ROOT
ATOM      1  O   UNL     1      -6.068  12.393  24.505  0.00  0.00    +0.000 OA
ATOM      2  C   UNL     1      -4.990  12.704  24.034  0.00  0.00    +0.000 C 
ATOM      3  C   UNL     1      -4.691  14.011  23.344  0.00  0.00    +0.000 C 
ATOM      4  C   UNL     1      -3.188  13.916  22.998  0.00  0.00    +0.000 C 
ATOM      5  C   UNL     1      -2.828  12.502  23.428  0.00  0.00    +0.000 C 
ATOM      6  O   UNL     1      -1.742  11.963  23.269  0.00  0.00    +0.000 OA
ATOM      7  N   UNL     1      -3.887  11.927  24.039  0.00  0.00    +0.000 N 
ATOM      8  C   UNL     1      -2.977  13.976  21.485  0.00  0.00    +0.000 C 
ATOM      9  O   UNL     1      -3.854  13.636  20.690  0.00  0.00    +0.000 OA
ATOM     10  N   UNL     1      -1.716  14.372  21.085  0.00  0.00    +0.000 N 
ATOM     11  C   UNL     1      -1.161  15.513  21.637  0.00  0.00    +0.000 C 
ATOM     12  O   UNL     1      -0.520  16.349  21.009  0.00  0.00    +0.000 OA
ATOM     13  C   UNL     1      -1.384  15.694  23.091  0.00  0.00    +0.000 A 
ATOM     14  C   UNL     1      -0.554  16.580  23.799  0.00  0.00    +0.000 A 
ATOM     15  C   UNL     1      -0.638  16.664  25.189  0.00  0.00    +0.000 A 
ATOM     16  C   UNL     1      -1.563  15.879  25.869  0.00  0.00    +0.000 A 
ATOM     17  C   UNL     1      -2.395  15.023  25.155  0.00  0.00    +0.000 A 
ATOM     18  F   UNL     1      -3.261  14.265  25.843  0.00  0.00    +0.000 F 
ATOM     19  C   UNL     1      -2.330  14.912  23.760  0.00  0.00    +0.000 A 
ATOM     20  H   UNL     1      -3.868  10.998  24.427  0.00  0.00    +0.000 HD
ENDROOT
BRANCH  10  21
ATOM     21  C   UNL     1      -1.220  13.916  19.791  0.00  0.00    +0.000 C 
BRANCH  21  22
ATOM     22  C   UNL     1      -0.555  12.563  19.948  0.00  0.00    +0.000 A 
ATOM     23  C   UNL     1       0.619  12.417  20.705  0.00  0.00    +0.000 A 
ATOM     24  C   UNL     1       1.161  11.151  20.935  0.00  0.00    +0.000 A 
ATOM     25  C   UNL     1       0.532  10.019  20.413  0.00  0.00    +0.000 A 
ATOM     26 BR   UNL     1       1.239   8.302  20.777  0.00  0.00    +0.000 Br
ATOM     27  C   UNL     1      -0.622  10.144  19.647  0.00  0.00    +0.000 A 
ATOM     28  C   UNL     1      -1.152  11.412  19.421  0.00  0.00    +0.000 A 
ATOM     29  F   UNL     1      -2.269  11.522  18.688  0.00  0.00    +0.000 F 
ENDBRANCH  21  22
ENDBRANCH  10  21
TORSDOF 2
ENDMDL
MODEL 9
REMARK VINA RESULT:      -6.8      6.991      9.734
REMARK  Name = 
REMARK  2 active torsions:
REMARK  status: ('A' for Active; 'I' for Inactive)
REMARK    1  A    between atoms: N_10  and  C_11
REMARK    2  A    between atoms: C_11  and  C_12
REMARK                            x       y       z     vdW  Elec       q    Type
REMARK                         _______ _______ _______ _____ _____    ______ ____
ROOT
ATOM      1  O   UNL     1      -4.573  14.325  22.726  0.00  0.00    +0.000 OA
ATOM      2  C   UNL     1      -3.687  13.914  22.000  0.00  0.00    +0.000 C 
ATOM      3  C   UNL     1      -3.255  12.472  21.892  0.00  0.00    +0.000 C 
ATOM      4  C   UNL     1      -2.156  12.492  20.805  0.00  0.00    +0.000 C 
ATOM      5  C   UNL     1      -2.004  13.975  20.501  0.00  0.00    +0.000 C 
ATOM      6  O   UNL     1      -1.181  14.467  19.743  0.00  0.00    +0.000 OA
ATOM      7  N   UNL     1      -2.936  14.678  21.181  0.00  0.00    +0.000 N 
ATOM      8  C   UNL     1      -0.818  12.028  21.381  0.00  0.00    +0.000 C 
ATOM      9  O   UNL     1      -0.554  12.128  22.579  0.00  0.00    +0.000 OA
ATOM     10  N   UNL     1       0.087  11.557  20.450  0.00  0.00    +0.000 N 
ATOM     11  C   UNL     1      -0.326  10.616  19.524  0.00  0.00    +0.000 C 
ATOM     12  O   UNL     1       0.341   9.651  19.168  0.00  0.00    +0.000 OA
ATOM     13  C   UNL     1      -1.676  10.832  18.951  0.00  0.00    +0.000 A 
ATOM     14  C   UNL     1      -2.016  10.183  17.752  0.00  0.00    +0.000 A 
ATOM     15  C   UNL     1      -3.218  10.477  17.109  0.00  0.00    +0.000 A 
ATOM     16  C   UNL     1      -4.089  11.403  17.672  0.00  0.00    +0.000 A 
ATOM     17  C   UNL     1      -3.753  12.022  18.872  0.00  0.00    +0.000 A 
ATOM     18  F   UNL     1      -4.604  12.925  19.377  0.00  0.00    +0.000 F 
ATOM     19  C   UNL     1      -2.550  11.752  19.538  0.00  0.00    +0.000 A 
ATOM     20  H   UNL     1      -3.038  15.678  21.112  0.00  0.00    +0.000 HD
ENDROOT
BRANCH  10  21
ATOM     21  C   UNL     1       1.511  11.653  20.753  0.00  0.00    +0.000 C 
BRANCH  21  22
ATOM     22  C   UNL     1       2.072  12.931  20.162  0.00  0.00    +0.000 A 
ATOM     23  C   UNL     1       2.297  14.061  20.966  0.00  0.00    +0.000 A 
ATOM     24  C   UNL     1       2.917  15.195  20.436  0.00  0.00    +0.000 A 
ATOM     25  C   UNL     1       3.321  15.208  19.100  0.00  0.00    +0.000 A 
ATOM     26 BR   UNL     1       4.212  16.724  18.404  0.00  0.00    +0.000 Br
ATOM     27  C   UNL     1       3.092  14.105  18.284  0.00  0.00    +0.000 A 
ATOM     28  C   UNL     1       2.470  12.980  18.821  0.00  0.00    +0.000 A 
ATOM     29  F   UNL     1       2.260  11.920  18.029  0.00  0.00    +0.000 F 
ENDBRANCH  21  22
ENDBRANCH  10  21
TORSDOF 2
ENDMDL
