MODEL 1
REMARK VINA RESULT:      -9.2      0.000      0.000
REMARK  Name = 
REMARK  6 active torsions:
REMARK  status: ('A' for Active; 'I' for Inactive)
REMARK    1  A    between atoms: C_2  and  O_3
REMARK    2  A    between atoms: C_2  and  C_17
REMARK    3  A    between atoms: O_3  and  N_4
REMARK    4  A    between atoms: C_5  and  C_6
REMARK    5  A    between atoms: C_19  and  N_20
REMARK    6  A    between atoms: C_24  and  N_25
REMARK                            x       y       z     vdW  Elec       q    Type
REMARK                         _______ _______ _______ _____ _____    ______ ____
ROOT
ATOM      1  O   UNL     1       2.471   3.524  17.003  0.00  0.00    +0.000 OA
ATOM      2  C   UNL     1       3.207   4.042  17.835  0.00  0.00    +0.000 C 
ENDROOT
BRANCH   2   3
ATOM      3  C   UNL     1       4.576   4.509  17.460  0.00  0.00    +0.000 A 
ATOM      4  C   UNL     1       4.954   4.402  16.108  0.00  0.00    +0.000 A 
ATOM      5  C   UNL     1       6.249   4.763  15.701  0.00  0.00    +0.000 A 
ATOM      6  C   UNL     1       7.170   5.270  16.622  0.00  0.00    +0.000 A 
ATOM      7  C   UNL     1       6.780   5.399  17.964  0.00  0.00    +0.000 A 
ATOM      8  C   UNL     1       5.494   5.018  18.389  0.00  0.00    +0.000 A 
BRANCH   5   9
ATOM      9  N   UNL     1       6.657   4.567  14.302  0.00  0.00    +0.000 N 
ATOM     10  O   UNL     1       7.507   5.339  13.837  0.00  0.00    +0.000 OA
ATOM     11  O   UNL     1       6.115   3.652  13.672  0.00  0.00    +0.000 OA
ENDBRANCH   5   9
BRANCH   7  12
ATOM     12  N   UNL     1       7.743   5.930  18.942  0.00  0.00    +0.000 N 
ATOM     13  O   UNL     1       7.978   5.246  19.946  0.00  0.00    +0.000 OA
ATOM     14  O   UNL     1       8.255   7.028  18.696  0.00  0.00    +0.000 OA
ENDBRANCH   7  12
ENDBRANCH   2   3
BRANCH   2  15
ATOM     15  O   UNL     1       2.936   4.256  19.161  0.00  0.00    +0.000 OA
BRANCH  15  16
ATOM     16  N   UNL     1       2.047   5.347  19.272  0.00  0.00    +0.000 NA
ATOM     17  C   UNL     1       2.589   6.337  19.911  0.00  0.00    +0.000 C 
BRANCH  17  18
ATOM     18  C   UNL     1       1.837   7.593  20.124  0.00  0.00    +0.000 A 
ATOM     19  C   UNL     1       1.208   7.833  21.349  0.00  0.00    +0.000 A 
ATOM     20  C   UNL     1       0.493   9.022  21.555  0.00  0.00    +0.000 A 
ATOM     21  C   UNL     1      -0.149   9.293  22.778  0.00  0.00    +0.000 A 
ATOM     22  C   UNL     1      -0.848  10.485  22.959  0.00  0.00    +0.000 A 
ATOM     23  C   UNL     1      -0.909  11.409  21.922  0.00  0.00    +0.000 A 
ATOM     24  C   UNL     1      -0.272  11.136  20.708  0.00  0.00    +0.000 A 
ATOM     25  C   UNL     1       0.431   9.955  20.500  0.00  0.00    +0.000 A 
ATOM     26  N   UNL     1       1.030   9.733  19.316  0.00  0.00    +0.000 NA
ATOM     27  C   UNL     1       1.713   8.573  19.150  0.00  0.00    +0.000 A 
ATOM     28 CL   UNL     1       2.411   8.449  17.582  0.00  0.00    +0.000 Cl
ENDBRANCH  17  18
ENDBRANCH  15  16
ENDBRANCH   2  15
TORSDOF 6
ENDMDL
MODEL 2
REMARK VINA RESULT:      -8.9      0.219      2.871
REMARK  Name = 
REMARK  6 active torsions:
REMARK  status: ('A' for Active; 'I' for Inactive)
REMARK    1  A    between atoms: C_2  and  O_3
REMARK    2  A    between atoms: C_2  and  C_17
REMARK    3  A    between atoms: O_3  and  N_4
REMARK    4  A    between atoms: C_5  and  C_6
REMARK    5  A    between atoms: C_19  and  N_20
REMARK    6  A    between atoms: C_24  and  N_25
REMARK                            x       y       z     vdW  Elec       q    Type
REMARK                         _______ _______ _______ _____ _____    ______ ____
ROOT
ATOM      1  O   UNL     1       2.400   3.489  16.892  0.00  0.00    +0.000 OA
ATOM      2  C   UNL     1       3.175   4.061  17.650  0.00  0.00    +0.000 C 
ENDROOT
BRANCH   2   3
ATOM      3  C   UNL     1       4.561   4.406  17.211  0.00  0.00    +0.000 A 
ATOM      4  C   UNL     1       5.453   4.888  18.188  0.00  0.00    +0.000 A 
ATOM      5  C   UNL     1       6.750   5.291  17.830  0.00  0.00    +0.000 A 
ATOM      6  C   UNL     1       7.190   5.184  16.507  0.00  0.00    +0.000 A 
ATOM      7  C   UNL     1       6.306   4.679  15.542  0.00  0.00    +0.000 A 
ATOM      8  C   UNL     1       4.996   4.295  15.883  0.00  0.00    +0.000 A 
BRANCH   5   9
ATOM      9  N   UNL     1       7.642   5.871  18.845  0.00  0.00    +0.000 N 
ATOM     10  O   UNL     1       7.856   5.209  19.869  0.00  0.00    +0.000 OA
ATOM     11  O   UNL     1       8.113   6.992  18.618  0.00  0.00    +0.000 OA
ENDBRANCH   5   9
BRANCH   7  12
ATOM     12  N   UNL     1       6.758   4.564  14.147  0.00  0.00    +0.000 N 
ATOM     13  O   UNL     1       7.665   5.317  13.772  0.00  0.00    +0.000 OA
ATOM     14  O   UNL     1       6.199   3.720  13.436  0.00  0.00    +0.000 OA
ENDBRANCH   7  12
ENDBRANCH   2   3
BRANCH   2  15
ATOM     15  O   UNL     1       2.936   4.443  18.944  0.00  0.00    +0.000 OA
BRANCH  15  16
ATOM     16  N   UNL     1       2.210   5.654  18.932  0.00  0.00    +0.000 NA
ATOM     17  C   UNL     1       2.318   6.283  20.061  0.00  0.00    +0.000 C 
BRANCH  17  18
ATOM     18  C   UNL     1       1.650   7.588  20.259  0.00  0.00    +0.000 A 
ATOM     19  C   UNL     1       0.998   7.864  21.464  0.00  0.00    +0.000 A 
ATOM     20  C   UNL     1       0.362   9.099  21.656  0.00  0.00    +0.000 A 
ATOM     21  C   UNL     1      -0.301   9.408  22.859  0.00  0.00    +0.000 A 
ATOM     22  C   UNL     1      -0.919  10.645  23.027  0.00  0.00    +0.000 A 
ATOM     23  C   UNL     1      -0.879  11.578  21.996  0.00  0.00    +0.000 A 
ATOM     24  C   UNL     1      -0.223  11.267  20.802  0.00  0.00    +0.000 A 
ATOM     25  C   UNL     1       0.403  10.041  20.607  0.00  0.00    +0.000 A 
ATOM     26  N   UNL     1       1.024   9.784  19.442  0.00  0.00    +0.000 NA
ATOM     27  C   UNL     1       1.628   8.580  19.289  0.00  0.00    +0.000 A 
ATOM     28 CL   UNL     1       2.369   8.417  17.745  0.00  0.00    +0.000 Cl
ENDBRANCH  17  18
ENDBRANCH  15  16
ENDBRANCH   2  15
TORSDOF 6
ENDMDL
MODEL 3
REMARK VINA RESULT:      -8.8      0.932      3.043
REMARK  Name = 
REMARK  6 active torsions:
REMARK  status: ('A' for Active; 'I' for Inactive)
REMARK    1  A    between atoms: C_2  and  O_3
REMARK    2  A    between atoms: C_2  and  C_17
REMARK    3  A    between atoms: O_3  and  N_4
REMARK    4  A    between atoms: C_5  and  C_6
REMARK    5  A    between atoms: C_19  and  N_20
REMARK    6  A    between atoms: C_24  and  N_25
REMARK                            x       y       z     vdW  Elec       q    Type
REMARK                         _______ _______ _______ _____ _____    ______ ____
ROOT
ATOM      1  O   UNL     1       2.984   2.231  17.933  0.00  0.00    +0.000 OA
ATOM      2  C   UNL     1       3.484   3.218  18.460  0.00  0.00    +0.000 C 
ENDROOT
BRANCH   2   3
ATOM      3  C   UNL     1       4.723   3.840  17.900  0.00  0.00    +0.000 A 
ATOM      4  C   UNL     1       5.625   4.424  18.809  0.00  0.00    +0.000 A 
ATOM      5  C   UNL     1       6.776   5.081  18.344  0.00  0.00    +0.000 A 
ATOM      6  C   UNL     1       7.065   5.132  16.977  0.00  0.00    +0.000 A 
ATOM      7  C   UNL     1       6.175   4.525  16.078  0.00  0.00    +0.000 A 
ATOM      8  C   UNL     1       5.006   3.885  16.528  0.00  0.00    +0.000 A 
BRANCH   5   9
ATOM      9  N   UNL     1       7.667   5.760  19.297  0.00  0.00    +0.000 N 
ATOM     10  O   UNL     1       7.795   5.258  20.422  0.00  0.00    +0.000 OA
ATOM     11  O   UNL     1       8.222   6.798  18.921  0.00  0.00    +0.000 OA
ENDBRANCH   5   9
BRANCH   7  12
ATOM     12  N   UNL     1       6.468   4.575  14.637  0.00  0.00    +0.000 N 
ATOM     13  O   UNL     1       5.774   3.880  13.884  0.00  0.00    +0.000 OA
ATOM     14  O   UNL     1       7.392   5.310  14.270  0.00  0.00    +0.000 OA
ENDBRANCH   7  12
ENDBRANCH   2   3
BRANCH   2  15
ATOM     15  O   UNL     1       3.042   3.872  19.580  0.00  0.00    +0.000 OA
BRANCH  15  16
ATOM     16  N   UNL     1       2.358   5.041  19.183  0.00  0.00    +0.000 NA
ATOM     17  C   UNL     1       2.743   6.072  19.868  0.00  0.00    +0.000 C 
BRANCH  17  18
ATOM     18  C   UNL     1       2.167   7.409  19.601  0.00  0.00    +0.000 A 
ATOM     19  C   UNL     1       1.333   8.012  20.546  0.00  0.00    +0.000 A 
ATOM     20  C   UNL     1       0.783   9.279  20.296  0.00  0.00    +0.000 A 
ATOM     21  C   UNL     1      -0.059   9.914  21.228  0.00  0.00    +0.000 A 
ATOM     22  C   UNL     1      -0.586  11.175  20.958  0.00  0.00    +0.000 A 
ATOM     23  C   UNL     1      -0.277  11.806  19.758  0.00  0.00    +0.000 A 
ATOM     24  C   UNL     1       0.556  11.171  18.832  0.00  0.00    +0.000 A 
ATOM     25  C   UNL     1       1.097   9.913  19.076  0.00  0.00    +0.000 A 
ATOM     26  N   UNL     1       1.895   9.339  18.158  0.00  0.00    +0.000 NA
ATOM     27  C   UNL     1       2.409   8.114  18.432  0.00  0.00    +0.000 A 
ATOM     28 CL   UNL     1       3.402   7.528  17.155  0.00  0.00    +0.000 Cl
ENDBRANCH  17  18
ENDBRANCH  15  16
ENDBRANCH   2  15
TORSDOF 6
ENDMDL
MODEL 4
REMARK VINA RESULT:      -8.7      1.474      2.095
REMARK  Name = 
REMARK  6 active torsions:
REMARK  status: ('A' for Active; 'I' for Inactive)
REMARK    1  A    between atoms: C_2  and  O_3
REMARK    2  A    between atoms: C_2  and  C_17
REMARK    3  A    between atoms: O_3  and  N_4
REMARK    4  A    between atoms: C_5  and  C_6
REMARK    5  A    between atoms: C_19  and  N_20
REMARK    6  A    between atoms: C_24  and  N_25
REMARK                            x       y       z     vdW  Elec       q    Type
REMARK                         _______ _______ _______ _____ _____    ______ ____
ROOT
ATOM      1  O   UNL     1       3.688   2.188  18.444  0.00  0.00    +0.000 OA
ATOM      2  C   UNL     1       3.669   3.151  17.686  0.00  0.00    +0.000 C 
ENDROOT
BRANCH   2   3
ATOM      3  C   UNL     1       4.915   3.926  17.402  0.00  0.00    +0.000 A 
ATOM      4  C   UNL     1       5.333   4.018  16.061  0.00  0.00    +0.000 A 
ATOM      5  C   UNL     1       6.530   4.676  15.733  0.00  0.00    +0.000 A 
ATOM      6  C   UNL     1       7.304   5.284  16.725  0.00  0.00    +0.000 A 
ATOM      7  C   UNL     1       6.869   5.212  18.058  0.00  0.00    +0.000 A 
ATOM      8  C   UNL     1       5.685   4.535  18.403  0.00  0.00    +0.000 A 
BRANCH   5   9
ATOM      9  N   UNL     1       6.998   4.692  14.339  0.00  0.00    +0.000 N 
ATOM     10  O   UNL     1       7.859   5.526  14.031  0.00  0.00    +0.000 OA
ATOM     11  O   UNL     1       6.491   3.879  13.557  0.00  0.00    +0.000 OA
ENDBRANCH   5   9
BRANCH   7  12
ATOM     12  N   UNL     1       7.678   5.847  19.110  0.00  0.00    +0.000 N 
ATOM     13  O   UNL     1       7.697   5.309  20.225  0.00  0.00    +0.000 OA
ATOM     14  O   UNL     1       8.287   6.881  18.813  0.00  0.00    +0.000 OA
ENDBRANCH   7  12
ENDBRANCH   2   3
BRANCH   2  15
ATOM     15  O   UNL     1       2.583   3.664  17.025  0.00  0.00    +0.000 OA
BRANCH  15  16
ATOM     16  N   UNL     1       1.946   4.605  17.861  0.00  0.00    +0.000 NA
ATOM     17  C   UNL     1       2.652   5.686  17.982  0.00  0.00    +0.000 C 
BRANCH  17  18
ATOM     18  C   UNL     1       2.159   6.816  18.801  0.00  0.00    +0.000 A 
ATOM     19  C   UNL     1       1.987   8.076  18.222  0.00  0.00    +0.000 A 
ATOM     20  C   UNL     1       1.522   9.151  18.995  0.00  0.00    +0.000 A 
ATOM     21  C   UNL     1       1.336  10.431  18.441  0.00  0.00    +0.000 A 
ATOM     22  C   UNL     1       0.866  11.480  19.230  0.00  0.00    +0.000 A 
ATOM     23  C   UNL     1       0.582  11.256  20.572  0.00  0.00    +0.000 A 
ATOM     24  C   UNL     1       0.770   9.983  21.120  0.00  0.00    +0.000 A 
ATOM     25  C   UNL     1       1.237   8.919  20.357  0.00  0.00    +0.000 A 
ATOM     26  N   UNL     1       1.403   7.711  20.925  0.00  0.00    +0.000 NA
ATOM     27  C   UNL     1       1.855   6.694  20.149  0.00  0.00    +0.000 A 
ATOM     28 CL   UNL     1       2.012   5.226  21.030  0.00  0.00    +0.000 Cl
ENDBRANCH  17  18
ENDBRANCH  15  16
ENDBRANCH   2  15
TORSDOF 6
ENDMDL
MODEL 5
REMARK VINA RESULT:      -8.2      3.121      4.483
REMARK  Name = 
REMARK  6 active torsions:
REMARK  status: ('A' for Active; 'I' for Inactive)
REMARK    1  A    between atoms: C_2  and  O_3
REMARK    2  A    between atoms: C_2  and  C_17
REMARK    3  A    between atoms: O_3  and  N_4
REMARK    4  A    between atoms: C_5  and  C_6
REMARK    5  A    between atoms: C_19  and  N_20
REMARK    6  A    between atoms: C_24  and  N_25
REMARK                            x       y       z     vdW  Elec       q    Type
REMARK                         _______ _______ _______ _____ _____    ______ ____
ROOT
ATOM      1  O   UNL     1       2.376   7.261  19.645  0.00  0.00    +0.000 OA
ATOM      2  C   UNL     1       2.871   7.356  18.528  0.00  0.00    +0.000 C 
ENDROOT
BRANCH   2   3
ATOM      3  C   UNL     1       3.588   6.200  17.908  0.00  0.00    +0.000 A 
ATOM      4  C   UNL     1       3.010   4.924  18.049  0.00  0.00    +0.000 A 
ATOM      5  C   UNL     1       3.666   3.788  17.545  0.00  0.00    +0.000 A 
ATOM      6  C   UNL     1       4.880   3.909  16.864  0.00  0.00    +0.000 A 
ATOM      7  C   UNL     1       5.438   5.187  16.703  0.00  0.00    +0.000 A 
ATOM      8  C   UNL     1       4.805   6.330  17.224  0.00  0.00    +0.000 A 
BRANCH   5   9
ATOM      9  N   UNL     1       3.093   2.453  17.773  0.00  0.00    +0.000 N 
ATOM     10  O   UNL     1       1.964   2.226  17.319  0.00  0.00    +0.000 OA
ATOM     11  O   UNL     1       3.771   1.643  18.417  0.00  0.00    +0.000 OA
ENDBRANCH   5   9
BRANCH   7  12
ATOM     12  N   UNL     1       6.717   5.325  15.989  0.00  0.00    +0.000 N 
ATOM     13  O   UNL     1       7.010   4.454  15.160  0.00  0.00    +0.000 OA
ATOM     14  O   UNL     1       7.418   6.306  16.264  0.00  0.00    +0.000 OA
ENDBRANCH   7  12
ENDBRANCH   2   3
BRANCH   2  15
ATOM     15  O   UNL     1       2.872   8.458  17.714  0.00  0.00    +0.000 OA
BRANCH  15  16
ATOM     16  N   UNL     1       1.545   8.912  17.563  0.00  0.00    +0.000 NA
ATOM     17  C   UNL     1       1.190   9.677  18.547  0.00  0.00    +0.000 C 
BRANCH  17  18
ATOM     18  C   UNL     1      -0.162  10.280  18.580  0.00  0.00    +0.000 A 
ATOM     19  C   UNL     1      -1.044  10.074  17.516  0.00  0.00    +0.000 A 
ATOM     20  C   UNL     1      -2.326  10.645  17.541  0.00  0.00    +0.000 A 
ATOM     21  C   UNL     1      -3.238  10.454  16.487  0.00  0.00    +0.000 A 
ATOM     22  C   UNL     1      -4.508  11.027  16.540  0.00  0.00    +0.000 A 
ATOM     23  C   UNL     1      -4.870  11.791  17.643  0.00  0.00    +0.000 A 
ATOM     24  C   UNL     1      -3.961  11.982  18.688  0.00  0.00    +0.000 A 
ATOM     25  C   UNL     1      -2.688  11.422  18.661  0.00  0.00    +0.000 A 
ATOM     26  N   UNL     1      -1.845  11.630  19.688  0.00  0.00    +0.000 NA
ATOM     27  C   UNL     1      -0.613  11.063  19.631  0.00  0.00    +0.000 A 
ATOM     28 CL   UNL     1       0.334  11.431  21.019  0.00  0.00    +0.000 Cl
ENDBRANCH  17  18
ENDBRANCH  15  16
ENDBRANCH   2  15
TORSDOF 6
ENDMDL
MODEL 6
REMARK VINA RESULT:      -8.1      0.947      2.994
REMARK  Name = 
REMARK  6 active torsions:
REMARK  status: ('A' for Active; 'I' for Inactive)
REMARK    1  A    between atoms: C_2  and  O_3
REMARK    2  A    between atoms: C_2  and  C_17
REMARK    3  A    between atoms: O_3  and  N_4
REMARK    4  A    between atoms: C_5  and  C_6
REMARK    5  A    between atoms: C_19  and  N_20
REMARK    6  A    between atoms: C_24  and  N_25
REMARK                            x       y       z     vdW  Elec       q    Type
REMARK                         _______ _______ _______ _____ _____    ______ ____
ROOT
ATOM      1  O   UNL     1       3.186   2.308  17.929  0.00  0.00    +0.000 OA
ATOM      2  C   UNL     1       3.855   3.093  18.590  0.00  0.00    +0.000 C 
ENDROOT
BRANCH   2   3
ATOM      3  C   UNL     1       5.035   3.787  17.990  0.00  0.00    +0.000 A 
ATOM      4  C   UNL     1       5.906   4.463  18.865  0.00  0.00    +0.000 A 
ATOM      5  C   UNL     1       6.998   5.188  18.361  0.00  0.00    +0.000 A 
ATOM      6  C   UNL     1       7.261   5.220  16.989  0.00  0.00    +0.000 A 
ATOM      7  C   UNL     1       6.404   4.522  16.123  0.00  0.00    +0.000 A 
ATOM      8  C   UNL     1       5.292   3.812  16.613  0.00  0.00    +0.000 A 
BRANCH   5   9
ATOM      9  N   UNL     1       7.851   5.959  19.279  0.00  0.00    +0.000 N 
ATOM     10  O   UNL     1       8.355   7.007  18.852  0.00  0.00    +0.000 OA
ATOM     11  O   UNL     1       8.023   5.505  20.415  0.00  0.00    +0.000 OA
ENDBRANCH   5   9
BRANCH   7  12
ATOM     12  N   UNL     1       6.669   4.550  14.676  0.00  0.00    +0.000 N 
ATOM     13  O   UNL     1       7.519   5.349  14.262  0.00  0.00    +0.000 OA
ATOM     14  O   UNL     1       6.024   3.771  13.965  0.00  0.00    +0.000 OA
ENDBRANCH   7  12
ENDBRANCH   2   3
BRANCH   2  15
ATOM     15  O   UNL     1       3.667   3.440  19.902  0.00  0.00    +0.000 OA
BRANCH  15  16
ATOM     16  N   UNL     1       3.510   4.840  19.984  0.00  0.00    +0.000 NA
ATOM     17  C   UNL     1       2.262   5.182  19.908  0.00  0.00    +0.000 C 
BRANCH  17  18
ATOM     18  C   UNL     1       1.869   6.607  19.993  0.00  0.00    +0.000 A 
ATOM     19  C   UNL     1       1.092   7.055  21.064  0.00  0.00    +0.000 A 
ATOM     20  C   UNL     1       0.716   8.404  21.148  0.00  0.00    +0.000 A 
ATOM     21  C   UNL     1      -0.064   8.887  22.215  0.00  0.00    +0.000 A 
ATOM     22  C   UNL     1      -0.418  10.233  22.278  0.00  0.00    +0.000 A 
ATOM     23  C   UNL     1       0.002  11.101  21.277  0.00  0.00    +0.000 A 
ATOM     24  C   UNL     1       0.774  10.618  20.216  0.00  0.00    +0.000 A 
ATOM     25  C   UNL     1       1.142   9.280  20.128  0.00  0.00    +0.000 A 
ATOM     26  N   UNL     1       1.887   8.858  19.090  0.00  0.00    +0.000 NA
ATOM     27  C   UNL     1       2.233   7.547  19.040  0.00  0.00    +0.000 A 
ATOM     28 CL   UNL     1       3.178   7.179  17.651  0.00  0.00    +0.000 Cl
ENDBRANCH  17  18
ENDBRANCH  15  16
ENDBRANCH   2  15
TORSDOF 6
ENDMDL
MODEL 7
REMARK VINA RESULT:      -8.1      1.108      3.034
REMARK  Name = 
REMARK  6 active torsions:
REMARK  status: ('A' for Active; 'I' for Inactive)
REMARK    1  A    between atoms: C_2  and  O_3
REMARK    2  A    between atoms: C_2  and  C_17
REMARK    3  A    between atoms: O_3  and  N_4
REMARK    4  A    between atoms: C_5  and  C_6
REMARK    5  A    between atoms: C_19  and  N_20
REMARK    6  A    between atoms: C_24  and  N_25
REMARK                            x       y       z     vdW  Elec       q    Type
REMARK                         _______ _______ _______ _____ _____    ______ ____
ROOT
ATOM      1  O   UNL     1       5.148   3.255  19.758  0.00  0.00    +0.000 OA
ATOM      2  C   UNL     1       4.698   3.720  18.718  0.00  0.00    +0.000 C 
ENDROOT
BRANCH   2   3
ATOM      3  C   UNL     1       5.582   4.455  17.762  0.00  0.00    +0.000 A 
ATOM      4  C   UNL     1       6.312   5.550  18.262  0.00  0.00    +0.000 A 
ATOM      5  C   UNL     1       7.111   6.323  17.402  0.00  0.00    +0.000 A 
ATOM      6  C   UNL     1       7.226   5.995  16.048  0.00  0.00    +0.000 A 
ATOM      7  C   UNL     1       6.516   4.887  15.562  0.00  0.00    +0.000 A 
ATOM      8  C   UNL     1       5.693   4.119  16.406  0.00  0.00    +0.000 A 
BRANCH   5   9
ATOM      9  N   UNL     1       7.802   7.514  17.920  0.00  0.00    +0.000 N 
ATOM     10  O   UNL     1       8.495   7.380  18.937  0.00  0.00    +0.000 OA
ATOM     11  O   UNL     1       7.636   8.579  17.313  0.00  0.00    +0.000 OA
ENDBRANCH   5   9
BRANCH   7  12
ATOM     12  N   UNL     1       6.628   4.534  14.137  0.00  0.00    +0.000 N 
ATOM     13  O   UNL     1       5.964   3.572  13.729  0.00  0.00    +0.000 OA
ATOM     14  O   UNL     1       7.380   5.223  13.439  0.00  0.00    +0.000 OA
ENDBRANCH   7  12
ENDBRANCH   2   3
BRANCH   2  15
ATOM     15  O   UNL     1       3.400   3.671  18.282  0.00  0.00    +0.000 OA
BRANCH  15  16
ATOM     16  N   UNL     1       2.874   4.980  18.275  0.00  0.00    +0.000 NA
ATOM     17  C   UNL     1       2.658   5.412  19.478  0.00  0.00    +0.000 C 
BRANCH  17  18
ATOM     18  C   UNL     1       2.124   6.774  19.702  0.00  0.00    +0.000 A 
ATOM     19  C   UNL     1       1.361   7.047  20.841  0.00  0.00    +0.000 A 
ATOM     20  C   UNL     1       0.852   8.336  21.057  0.00  0.00    +0.000 A 
ATOM     21  C   UNL     1       0.082   8.643  22.195  0.00  0.00    +0.000 A 
ATOM     22  C   UNL     1      -0.407   9.933  22.389  0.00  0.00    +0.000 A 
ATOM     23  C   UNL     1      -0.130  10.921  21.450  0.00  0.00    +0.000 A 
ATOM     24  C   UNL     1       0.632  10.612  20.319  0.00  0.00    +0.000 A 
ATOM     25  C   UNL     1       1.132   9.333  20.100  0.00  0.00    +0.000 A 
ATOM     26  N   UNL     1       1.862   9.080  18.999  0.00  0.00    +0.000 NA
ATOM     27  C   UNL     1       2.339   7.823  18.821  0.00  0.00    +0.000 A 
ATOM     28 CL   UNL     1       3.245   7.673  17.366  0.00  0.00    +0.000 Cl
ENDBRANCH  17  18
ENDBRANCH  15  16
ENDBRANCH   2  15
TORSDOF 6
ENDMDL
MODEL 8
REMARK VINA RESULT:      -8.0      3.191      4.583
REMARK  Name = 
REMARK  6 active torsions:
REMARK  status: ('A' for Active; 'I' for Inactive)
REMARK    1  A    between atoms: C_2  and  O_3
REMARK    2  A    between atoms: C_2  and  C_17
REMARK    3  A    between atoms: O_3  and  N_4
REMARK    4  A    between atoms: C_5  and  C_6
REMARK    5  A    between atoms: C_19  and  N_20
REMARK    6  A    between atoms: C_24  and  N_25
REMARK                            x       y       z     vdW  Elec       q    Type
REMARK                         _______ _______ _______ _____ _____    ______ ____
ROOT
ATOM      1  O   UNL     1       2.151   7.224  20.038  0.00  0.00    +0.000 OA
ATOM      2  C   UNL     1       2.692   7.235  18.938  0.00  0.00    +0.000 C 
ENDROOT
BRANCH   2   3
ATOM      3  C   UNL     1       3.388   6.021  18.415  0.00  0.00    +0.000 A 
ATOM      4  C   UNL     1       4.654   6.200  17.825  0.00  0.00    +0.000 A 
ATOM      5  C   UNL     1       5.334   5.110  17.256  0.00  0.00    +0.000 A 
ATOM      6  C   UNL     1       4.784   3.826  17.300  0.00  0.00    +0.000 A 
ATOM      7  C   UNL     1       3.534   3.649  17.912  0.00  0.00    +0.000 A 
ATOM      8  C   UNL     1       2.831   4.736  18.464  0.00  0.00    +0.000 A 
BRANCH   5   9
ATOM      9  N   UNL     1       6.616   5.326  16.569  0.00  0.00    +0.000 N 
ATOM     10  O   UNL     1       6.694   6.279  15.783  0.00  0.00    +0.000 OA
ATOM     11  O   UNL     1       7.533   4.532  16.809  0.00  0.00    +0.000 OA
ENDBRANCH   5   9
BRANCH   7  12
ATOM     12  N   UNL     1       2.945   2.301  17.962  0.00  0.00    +0.000 N 
ATOM     13  O   UNL     1       3.711   1.334  17.865  0.00  0.00    +0.000 OA
ATOM     14  O   UNL     1       1.719   2.222  18.098  0.00  0.00    +0.000 OA
ENDBRANCH   7  12
ENDBRANCH   2   3
BRANCH   2  15
ATOM     15  O   UNL     1       2.765   8.287  18.063  0.00  0.00    +0.000 OA
BRANCH  15  16
ATOM     16  N   UNL     1       1.460   8.761  17.812  0.00  0.00    +0.000 NA
ATOM     17  C   UNL     1       1.073   9.593  18.727  0.00  0.00    +0.000 C 
BRANCH  17  18
ATOM     18  C   UNL     1      -0.262  10.228  18.649  0.00  0.00    +0.000 A 
ATOM     19  C   UNL     1      -1.077  10.006  17.536  0.00  0.00    +0.000 A 
ATOM     20  C   UNL     1      -2.342  10.606  17.456  0.00  0.00    +0.000 A 
ATOM     21  C   UNL     1      -3.187  10.400  16.349  0.00  0.00    +0.000 A 
ATOM     22  C   UNL     1      -4.443  11.003  16.298  0.00  0.00    +0.000 A 
ATOM     23  C   UNL     1      -4.858  11.813  17.349  0.00  0.00    +0.000 A 
ATOM     24  C   UNL     1      -4.016  12.018  18.445  0.00  0.00    +0.000 A 
ATOM     25  C   UNL     1      -2.758  11.429  18.523  0.00  0.00    +0.000 A 
ATOM     26  N   UNL     1      -1.980  11.653  19.597  0.00  0.00    +0.000 NA
ATOM     27  C   UNL     1      -0.762  11.057  19.641  0.00  0.00    +0.000 A 
ATOM     28 CL   UNL     1       0.100  11.450  21.077  0.00  0.00    +0.000 Cl
ENDBRANCH  17  18
ENDBRANCH  15  16
ENDBRANCH   2  15
TORSDOF 6
ENDMDL
MODEL 9
REMARK VINA RESULT:      -7.8      2.528      4.103
REMARK  Name = 
REMARK  6 active torsions:
REMARK  status: ('A' for Active; 'I' for Inactive)
REMARK    1  A    between atoms: C_2  and  O_3
REMARK    2  A    between atoms: C_2  and  C_17
REMARK    3  A    between atoms: O_3  and  N_4
REMARK    4  A    between atoms: C_5  and  C_6
REMARK    5  A    between atoms: C_19  and  N_20
REMARK    6  A    between atoms: C_24  and  N_25
REMARK                            x       y       z     vdW  Elec       q    Type
REMARK                         _______ _______ _______ _____ _____    ______ ____
ROOT
ATOM      1  O   UNL     1       2.354   7.709  19.586  0.00  0.00    +0.000 OA
ATOM      2  C   UNL     1       2.597   7.657  18.386  0.00  0.00    +0.000 C 
ENDROOT
BRANCH   2   3
ATOM      3  C   UNL     1       3.287   6.470  17.796  0.00  0.00    +0.000 A 
ATOM      4  C   UNL     1       2.672   5.214  17.954  0.00  0.00    +0.000 A 
ATOM      5  C   UNL     1       3.300   4.050  17.480  0.00  0.00    +0.000 A 
ATOM      6  C   UNL     1       4.525   4.123  16.810  0.00  0.00    +0.000 A 
ATOM      7  C   UNL     1       5.121   5.382  16.633  0.00  0.00    +0.000 A 
ATOM      8  C   UNL     1       4.515   6.552  17.125  0.00  0.00    +0.000 A 
BRANCH   5   9
ATOM      9  N   UNL     1       2.687   2.736  17.725  0.00  0.00    +0.000 N 
ATOM     10  O   UNL     1       1.456   2.690  17.849  0.00  0.00    +0.000 OA
ATOM     11  O   UNL     1       3.442   1.760  17.806  0.00  0.00    +0.000 OA
ENDBRANCH   5   9
BRANCH   7  12
ATOM     12  N   UNL     1       6.411   5.470  15.931  0.00  0.00    +0.000 N 
ATOM     13  O   UNL     1       6.394   5.762  14.729  0.00  0.00    +0.000 OA
ATOM     14  O   UNL     1       7.433   5.247  16.591  0.00  0.00    +0.000 OA
ENDBRANCH   7  12
ENDBRANCH   2   3
BRANCH   2  15
ATOM     15  O   UNL     1       2.316   8.610  17.443  0.00  0.00    +0.000 OA
BRANCH  15  16
ATOM     16  N   UNL     1       1.594   9.656  18.056  0.00  0.00    +0.000 NA
ATOM     17  C   UNL     1       0.319   9.423  18.044  0.00  0.00    +0.000 C 
BRANCH  17  18
ATOM     18  C   UNL     1      -0.626  10.385  18.654  0.00  0.00    +0.000 A 
ATOM     19  C   UNL     1      -0.404  10.854  19.952  0.00  0.00    +0.000 A 
ATOM     20  C   UNL     1      -1.298  11.765  20.535  0.00  0.00    +0.000 A 
ATOM     21  C   UNL     1      -1.101  12.258  21.839  0.00  0.00    +0.000 A 
ATOM     22  C   UNL     1      -2.000  13.167  22.393  0.00  0.00    +0.000 A 
ATOM     23  C   UNL     1      -3.097  13.587  21.649  0.00  0.00    +0.000 A 
ATOM     24  C   UNL     1      -3.292  13.093  20.356  0.00  0.00    +0.000 A 
ATOM     25  C   UNL     1      -2.411  12.185  19.778  0.00  0.00    +0.000 A 
ATOM     26  N   UNL     1      -2.635  11.737  18.530  0.00  0.00    +0.000 NA
ATOM     27  C   UNL     1      -1.752  10.857  17.997  0.00  0.00    +0.000 A 
ATOM     28 CL   UNL     1      -2.189  10.385  16.401  0.00  0.00    +0.000 Cl
ENDBRANCH  17  18
ENDBRANCH  15  16
ENDBRANCH   2  15
TORSDOF 6
ENDMDL
