MODEL 1
REMARK VINA RESULT:      -7.5      0.000      0.000
REMARK  Name = 
REMARK  2 active torsions:
REMARK  status: ('A' for Active; 'I' for Inactive)
REMARK    1  A    between atoms: C_18  and  C_19
REMARK    2  A    between atoms: C_19  and  C_20
REMARK                            x       y       z     vdW  Elec       q    Type
REMARK                         _______ _______ _______ _____ _____    ______ ____
ROOT
ATOM      1  N   UNL     1      -0.308   8.893  21.732  0.00  0.00    +0.000 NA
ATOM      2  C   UNL     1       0.639   9.477  21.074  0.00  0.00    +0.000 C 
ATOM      3  N   UNL     1       1.009  10.781  21.255  0.00  0.00    +0.000 N 
ATOM      4  C   UNL     1       0.234  11.804  21.721  0.00  0.00    +0.000 C 
ATOM      5  N   UNL     1      -0.823  11.605  22.445  0.00  0.00    +0.000 NA
ATOM      6  C   UNL     1      -1.782  12.737  22.417  0.00  0.00    +0.000 C 
ATOM      7  C   UNL     1      -3.125  12.313  23.041  0.00  0.00    +0.000 C 
ATOM      8  C   UNL     1      -4.395  12.649  22.248  0.00  0.00    +0.000 C 
ATOM      9  C   UNL     1      -4.185  12.657  20.743  0.00  0.00    +0.000 C 
ATOM     10  C   UNL     1      -3.102  13.679  20.401  0.00  0.00    +0.000 C 
ATOM     11  C   UNL     1      -1.822  13.095  20.928  0.00  0.00    +0.000 C 
ATOM     12  C   UNL     1      -0.512  13.799  20.704  0.00  0.00    +0.000 C 
ATOM     13  O   UNL     1      -0.341  14.809  20.041  0.00  0.00    +0.000 OA
ATOM     14  N   UNL     1       0.534  13.055  21.227  0.00  0.00    +0.000 N 
ATOM     15  N   UNL     1       1.409   8.806  20.146  0.00  0.00    +0.000 N 
ATOM     16  C   UNL     1       1.108   8.975  18.704  0.00  0.00    +0.000 C 
ATOM     17  C   UNL     1       2.226   8.363  17.834  0.00  0.00    +0.000 C 
ATOM     18  C   UNL     1       2.619   6.924  18.238  0.00  0.00    +0.000 C 
ATOM     19  C   UNL     1       2.868   6.915  19.750  0.00  0.00    +0.000 C 
ATOM     20  C   UNL     1       1.637   7.393  20.492  0.00  0.00    +0.000 C 
ATOM     21  H   UNL     1      -0.703   9.608  22.369  0.00  0.00    +0.000 HD
ATOM     22  H   UNL     1       1.721  11.039  20.588  0.00  0.00    +0.000 HD
ATOM     23  H   UNL     1       1.446  13.300  20.884  0.00  0.00    +0.000 HD
ENDROOT
BRANCH  18  24
ATOM     24  C   UNL     1       1.556   5.892  17.780  0.00  0.00    +0.000 C 
BRANCH  24  25
ATOM     25  C   UNL     1       1.871   4.448  18.111  0.00  0.00    +0.000 A 
ATOM     26  C   UNL     1       2.877   3.762  17.413  0.00  0.00    +0.000 A 
ATOM     27  C   UNL     1       3.191   2.440  17.729  0.00  0.00    +0.000 A 
ATOM     28  C   UNL     1       2.502   1.783  18.745  0.00  0.00    +0.000 A 
ATOM     29  C   UNL     1       1.493   2.448  19.440  0.00  0.00    +0.000 A 
ATOM     30  C   UNL     1       1.179   3.773  19.126  0.00  0.00    +0.000 A 
ENDBRANCH  24  25
ENDBRANCH  18  24
TORSDOF 2
ENDMDL
MODEL 2
REMARK VINA RESULT:      -7.4      3.008      4.607
REMARK  Name = 
REMARK  2 active torsions:
REMARK  status: ('A' for Active; 'I' for Inactive)
REMARK    1  A    between atoms: C_18  and  C_19
REMARK    2  A    between atoms: C_19  and  C_20
REMARK                            x       y       z     vdW  Elec       q    Type
REMARK                         _______ _______ _______ _____ _____    ______ ____
ROOT
ATOM      1  N   UNL     1      -2.455  12.109  21.837  0.00  0.00    +0.000 NA
ATOM      2  C   UNL     1      -2.344  12.284  20.562  0.00  0.00    +0.000 C 
ATOM      3  N   UNL     1      -3.185  13.065  19.817  0.00  0.00    +0.000 N 
ATOM      4  C   UNL     1      -4.484  13.381  20.096  0.00  0.00    +0.000 C 
ATOM      5  N   UNL     1      -4.973  13.332  21.296  0.00  0.00    +0.000 NA
ATOM      6  C   UNL     1      -6.451  13.202  21.330  0.00  0.00    +0.000 C 
ATOM      7  C   UNL     1      -6.922  12.851  22.753  0.00  0.00    +0.000 C 
ATOM      8  C   UNL     1      -7.914  11.687  22.887  0.00  0.00    +0.000 C 
ATOM      9  C   UNL     1      -7.742  10.619  21.820  0.00  0.00    +0.000 C 
ATOM     10  C   UNL     1      -7.917  11.262  20.445  0.00  0.00    +0.000 C 
ATOM     11  C   UNL     1      -6.710  12.138  20.259  0.00  0.00    +0.000 C 
ATOM     12  C   UNL     1      -6.498  12.883  18.969  0.00  0.00    +0.000 C 
ATOM     13  O   UNL     1      -7.188  12.798  17.967  0.00  0.00    +0.000 OA
ATOM     14  N   UNL     1      -5.299  13.577  19.002  0.00  0.00    +0.000 N 
ATOM     15  N   UNL     1      -1.316  11.725  19.830  0.00  0.00    +0.000 N 
ATOM     16  C   UNL     1      -1.579  10.497  19.042  0.00  0.00    +0.000 C 
ATOM     17  C   UNL     1      -0.395  10.183  18.103  0.00  0.00    +0.000 C 
ATOM     18  C   UNL     1       0.984  10.210  18.802  0.00  0.00    +0.000 C 
ATOM     19  C   UNL     1       1.084  11.520  19.589  0.00  0.00    +0.000 C 
ATOM     20  C   UNL     1      -0.054  11.629  20.583  0.00  0.00    +0.000 C 
ATOM     21  H   UNL     1      -3.288  12.649  22.134  0.00  0.00    +0.000 HD
ATOM     22  H   UNL     1      -2.950  12.999  18.839  0.00  0.00    +0.000 HD
ATOM     23  H   UNL     1      -4.948  13.865  18.106  0.00  0.00    +0.000 HD
ENDROOT
BRANCH  18  24
ATOM     24  C   UNL     1       1.207   8.946  19.672  0.00  0.00    +0.000 C 
BRANCH  24  25
ATOM     25  C   UNL     1       2.148   7.914  19.087  0.00  0.00    +0.000 A 
ATOM     26  C   UNL     1       2.830   8.173  17.888  0.00  0.00    +0.000 A 
ATOM     27  C   UNL     1       3.718   7.238  17.355  0.00  0.00    +0.000 A 
ATOM     28  C   UNL     1       3.936   6.030  18.012  0.00  0.00    +0.000 A 
ATOM     29  C   UNL     1       3.259   5.754  19.199  0.00  0.00    +0.000 A 
ATOM     30  C   UNL     1       2.370   6.691  19.734  0.00  0.00    +0.000 A 
ENDBRANCH  24  25
ENDBRANCH  18  24
TORSDOF 2
ENDMDL
MODEL 3
REMARK VINA RESULT:      -7.4      2.183      3.469
REMARK  Name = 
REMARK  2 active torsions:
REMARK  status: ('A' for Active; 'I' for Inactive)
REMARK    1  A    between atoms: C_18  and  C_19
REMARK    2  A    between atoms: C_19  and  C_20
REMARK                            x       y       z     vdW  Elec       q    Type
REMARK                         _______ _______ _______ _____ _____    ______ ____
ROOT
ATOM      1  N   UNL     1       0.375  12.631  21.477  0.00  0.00    +0.000 NA
ATOM      2  C   UNL     1      -0.211  12.517  20.331  0.00  0.00    +0.000 C 
ATOM      3  N   UNL     1      -1.237  13.319  19.909  0.00  0.00    +0.000 N 
ATOM      4  C   UNL     1      -2.132  13.995  20.687  0.00  0.00    +0.000 C 
ATOM      5  N   UNL     1      -1.888  14.308  21.922  0.00  0.00    +0.000 NA
ATOM      6  C   UNL     1      -3.112  14.558  22.723  0.00  0.00    +0.000 C 
ATOM      7  C   UNL     1      -2.763  14.623  24.221  0.00  0.00    +0.000 C 
ATOM      8  C   UNL     1      -3.635  13.792  25.173  0.00  0.00    +0.000 C 
ATOM      9  C   UNL     1      -4.185  12.525  24.539  0.00  0.00    +0.000 C 
ATOM     10  C   UNL     1      -5.014  12.906  23.313  0.00  0.00    +0.000 C 
ATOM     11  C   UNL     1      -4.022  13.400  22.299  0.00  0.00    +0.000 C 
ATOM     12  C   UNL     1      -4.473  13.799  20.920  0.00  0.00    +0.000 C 
ATOM     13  O   UNL     1      -5.602  13.691  20.473  0.00  0.00    +0.000 OA
ATOM     14  N   UNL     1      -3.386  14.167  20.143  0.00  0.00    +0.000 N 
ATOM     15  N   UNL     1       0.186  11.587  19.392  0.00  0.00    +0.000 N 
ATOM     16  C   UNL     1      -0.589  10.332  19.249  0.00  0.00    +0.000 C 
ATOM     17  C   UNL     1      -0.149   9.555  17.990  0.00  0.00    +0.000 C 
ATOM     18  C   UNL     1       1.381   9.377  17.865  0.00  0.00    +0.000 C 
ATOM     19  C   UNL     1       2.029  10.751  18.064  0.00  0.00    +0.000 C 
ATOM     20  C   UNL     1       1.637  11.333  19.406  0.00  0.00    +0.000 C 
ATOM     21  H   UNL     1      -0.100  13.409  21.971  0.00  0.00    +0.000 HD
ATOM     22  H   UNL     1      -1.582  13.005  19.015  0.00  0.00    +0.000 HD
ATOM     23  H   UNL     1      -3.553  14.176  19.153  0.00  0.00    +0.000 HD
ENDROOT
BRANCH  18  24
ATOM     24  C   UNL     1       1.911   8.296  18.842  0.00  0.00    +0.000 C 
BRANCH  24  25
ATOM     25  C   UNL     1       2.711   7.181  18.202  0.00  0.00    +0.000 A 
ATOM     26  C   UNL     1       3.858   7.471  17.447  0.00  0.00    +0.000 A 
ATOM     27  C   UNL     1       4.615   6.448  16.875  0.00  0.00    +0.000 A 
ATOM     28  C   UNL     1       4.235   5.119  17.048  0.00  0.00    +0.000 A 
ATOM     29  C   UNL     1       3.093   4.816  17.787  0.00  0.00    +0.000 A 
ATOM     30  C   UNL     1       2.335   5.840  18.361  0.00  0.00    +0.000 A 
ENDBRANCH  24  25
ENDBRANCH  18  24
TORSDOF 2
ENDMDL
MODEL 4
REMARK VINA RESULT:      -7.4      2.452      4.003
REMARK  Name = 
REMARK  2 active torsions:
REMARK  status: ('A' for Active; 'I' for Inactive)
REMARK    1  A    between atoms: C_18  and  C_19
REMARK    2  A    between atoms: C_19  and  C_20
REMARK                            x       y       z     vdW  Elec       q    Type
REMARK                         _______ _______ _______ _____ _____    ______ ____
ROOT
ATOM      1  N   UNL     1       2.194  10.405  17.789  0.00  0.00    +0.000 NA
ATOM      2  C   UNL     1       1.329   9.630  18.358  0.00  0.00    +0.000 C 
ATOM      3  N   UNL     1       0.057  10.010  18.688  0.00  0.00    +0.000 N 
ATOM      4  C   UNL     1      -0.386  11.273  18.953  0.00  0.00    +0.000 C 
ATOM      5  N   UNL     1       0.229  12.334  18.529  0.00  0.00    +0.000 NA
ATOM      6  C   UNL     1      -0.082  13.554  19.315  0.00  0.00    +0.000 C 
ATOM      7  C   UNL     1       0.899  14.684  18.952  0.00  0.00    +0.000 C 
ATOM      8  C   UNL     1       1.561  15.430  20.119  0.00  0.00    +0.000 C 
ATOM      9  C   UNL     1       1.767  14.564  21.351  0.00  0.00    +0.000 C 
ATOM     10  C   UNL     1       0.411  14.029  21.811  0.00  0.00    +0.000 C 
ATOM     11  C   UNL     1      -0.005  13.041  20.757  0.00  0.00    +0.000 C 
ATOM     12  C   UNL     1      -1.273  12.247  20.913  0.00  0.00    +0.000 C 
ATOM     13  O   UNL     1      -2.011  12.251  21.884  0.00  0.00    +0.000 OA
ATOM     14  N   UNL     1      -1.425  11.366  19.854  0.00  0.00    +0.000 N 
ATOM     15  N   UNL     1       1.605   8.309  18.645  0.00  0.00    +0.000 N 
ATOM     16  C   UNL     1       1.972   7.935  20.032  0.00  0.00    +0.000 C 
ATOM     17  C   UNL     1       1.984   6.402  20.203  0.00  0.00    +0.000 C 
ATOM     18  C   UNL     1       2.782   5.655  19.109  0.00  0.00    +0.000 C 
ATOM     19  C   UNL     1       2.306   6.172  17.749  0.00  0.00    +0.000 C 
ATOM     20  C   UNL     1       2.493   7.673  17.657  0.00  0.00    +0.000 C 
ATOM     21  H   UNL     1       1.728  11.323  17.670  0.00  0.00    +0.000 HD
ATOM     22  H   UNL     1      -0.413   9.267  19.181  0.00  0.00    +0.000 HD
ATOM     23  H   UNL     1      -2.076  10.617  20.013  0.00  0.00    +0.000 HD
ENDROOT
BRANCH  18  24
ATOM     24  C   UNL     1       4.311   5.794  19.323  0.00  0.00    +0.000 C 
BRANCH  24  25
ATOM     25  C   UNL     1       5.169   5.412  18.135  0.00  0.00    +0.000 A 
ATOM     26  C   UNL     1       4.913   4.228  17.426  0.00  0.00    +0.000 A 
ATOM     27  C   UNL     1       5.682   3.881  16.315  0.00  0.00    +0.000 A 
ATOM     28  C   UNL     1       6.720   4.710  15.897  0.00  0.00    +0.000 A 
ATOM     29  C   UNL     1       6.993   5.884  16.598  0.00  0.00    +0.000 A 
ATOM     30  C   UNL     1       6.222   6.234  17.710  0.00  0.00    +0.000 A 
ENDBRANCH  24  25
ENDBRANCH  18  24
TORSDOF 2
ENDMDL
MODEL 5
REMARK VINA RESULT:      -7.2      2.949      4.788
REMARK  Name = 
REMARK  2 active torsions:
REMARK  status: ('A' for Active; 'I' for Inactive)
REMARK    1  A    between atoms: C_18  and  C_19
REMARK    2  A    between atoms: C_19  and  C_20
REMARK                            x       y       z     vdW  Elec       q    Type
REMARK                         _______ _______ _______ _____ _____    ______ ____
ROOT
ATOM      1  N   UNL     1      -2.279  12.744  22.036  0.00  0.00    +0.000 NA
ATOM      2  C   UNL     1      -2.322  12.805  20.745  0.00  0.00    +0.000 C 
ATOM      3  N   UNL     1      -3.216  13.564  20.041  0.00  0.00    +0.000 N 
ATOM      4  C   UNL     1      -4.454  13.973  20.445  0.00  0.00    +0.000 C 
ATOM      5  N   UNL     1      -4.790  14.052  21.696  0.00  0.00    +0.000 NA
ATOM      6  C   UNL     1      -6.256  14.006  21.920  0.00  0.00    +0.000 C 
ATOM      7  C   UNL     1      -6.559  13.802  23.416  0.00  0.00    +0.000 C 
ATOM      8  C   UNL     1      -7.576  12.709  23.774  0.00  0.00    +0.000 C 
ATOM      9  C   UNL     1      -7.586  11.547  22.795  0.00  0.00    +0.000 C 
ATOM     10  C   UNL     1      -7.904  12.080  21.399  0.00  0.00    +0.000 C 
ATOM     11  C   UNL     1      -6.693  12.871  20.989  0.00  0.00    +0.000 C 
ATOM     12  C   UNL     1      -6.613  13.491  19.621  0.00  0.00    +0.000 C 
ATOM     13  O   UNL     1      -7.426  13.360  18.722  0.00  0.00    +0.000 OA
ATOM     14  N   UNL     1      -5.391  14.120  19.446  0.00  0.00    +0.000 N 
ATOM     15  N   UNL     1      -1.419  12.131  19.948  0.00  0.00    +0.000 N 
ATOM     16  C   UNL     1      -1.832  10.857  19.312  0.00  0.00    +0.000 C 
ATOM     17  C   UNL     1      -0.790  10.401  18.269  0.00  0.00    +0.000 C 
ATOM     18  C   UNL     1       0.666  10.412  18.789  0.00  0.00    +0.000 C 
ATOM     19  C   UNL     1       0.920  11.777  19.437  0.00  0.00    +0.000 C 
ATOM     20  C   UNL     1      -0.078  12.030  20.548  0.00  0.00    +0.000 C 
ATOM     21  H   UNL     1      -3.044  13.352  22.381  0.00  0.00    +0.000 HD
ATOM     22  H   UNL     1      -3.108  13.404  19.051  0.00  0.00    +0.000 HD
ATOM     23  H   UNL     1      -5.143  14.312  18.491  0.00  0.00    +0.000 HD
ENDROOT
BRANCH  18  24
ATOM     24  C   UNL     1       0.941   9.217  19.737  0.00  0.00    +0.000 C 
BRANCH  24  25
ATOM     25  C   UNL     1       1.911   8.181  19.209  0.00  0.00    +0.000 A 
ATOM     26  C   UNL     1       2.165   7.008  19.937  0.00  0.00    +0.000 A 
ATOM     27  C   UNL     1       3.038   6.037  19.445  0.00  0.00    +0.000 A 
ATOM     28  C   UNL     1       3.671   6.224  18.219  0.00  0.00    +0.000 A 
ATOM     29  C   UNL     1       3.437   7.388  17.489  0.00  0.00    +0.000 A 
ATOM     30  C   UNL     1       2.562   8.361  17.980  0.00  0.00    +0.000 A 
ENDBRANCH  24  25
ENDBRANCH  18  24
TORSDOF 2
ENDMDL
MODEL 6
REMARK VINA RESULT:      -7.2      2.979      4.957
REMARK  Name = 
REMARK  2 active torsions:
REMARK  status: ('A' for Active; 'I' for Inactive)
REMARK    1  A    between atoms: C_18  and  C_19
REMARK    2  A    between atoms: C_19  and  C_20
REMARK                            x       y       z     vdW  Elec       q    Type
REMARK                         _______ _______ _______ _____ _____    ______ ____
ROOT
ATOM      1  N   UNL     1      -2.250  13.278  22.331  0.00  0.00    +0.000 NA
ATOM      2  C   UNL     1      -2.302  13.354  21.042  0.00  0.00    +0.000 C 
ATOM      3  N   UNL     1      -3.180  14.145  20.352  0.00  0.00    +0.000 N 
ATOM      4  C   UNL     1      -4.403  14.583  20.772  0.00  0.00    +0.000 C 
ATOM      5  N   UNL     1      -4.726  14.657  22.026  0.00  0.00    +0.000 NA
ATOM      6  C   UNL     1      -6.192  14.649  22.262  0.00  0.00    +0.000 C 
ATOM      7  C   UNL     1      -6.488  14.437  23.758  0.00  0.00    +0.000 C 
ATOM      8  C   UNL     1      -7.532  13.369  24.113  0.00  0.00    +0.000 C 
ATOM      9  C   UNL     1      -7.581  12.218  23.122  0.00  0.00    +0.000 C 
ATOM     10  C   UNL     1      -7.896  12.775  21.734  0.00  0.00    +0.000 C 
ATOM     11  C   UNL     1      -6.667  13.536  21.322  0.00  0.00    +0.000 C 
ATOM     12  C   UNL     1      -6.581  14.169  19.961  0.00  0.00    +0.000 C 
ATOM     13  O   UNL     1      -7.405  14.070  19.067  0.00  0.00    +0.000 OA
ATOM     14  N   UNL     1      -5.344  14.767  19.782  0.00  0.00    +0.000 N 
ATOM     15  N   UNL     1      -1.424  12.664  20.230  0.00  0.00    +0.000 N 
ATOM     16  C   UNL     1      -1.876  11.409  19.583  0.00  0.00    +0.000 C 
ATOM     17  C   UNL     1      -0.856  10.936  18.526  0.00  0.00    +0.000 C 
ATOM     18  C   UNL     1       0.604  10.901  19.035  0.00  0.00    +0.000 C 
ATOM     19  C   UNL     1       0.901  12.251  19.695  0.00  0.00    +0.000 C 
ATOM     20  C   UNL     1      -0.081  12.520  20.817  0.00  0.00    +0.000 C 
ATOM     21  H   UNL     1      -2.995  13.902  22.689  0.00  0.00    +0.000 HD
ATOM     22  H   UNL     1      -3.084  13.993  19.361  0.00  0.00    +0.000 HD
ATOM     23  H   UNL     1      -5.098  14.962  18.827  0.00  0.00    +0.000 HD
ENDROOT
BRANCH  18  24
ATOM     24  C   UNL     1       0.854   9.689  19.968  0.00  0.00    +0.000 C 
BRANCH  24  25
ATOM     25  C   UNL     1       1.684   8.572  19.370  0.00  0.00    +0.000 A 
ATOM     26  C   UNL     1       2.259   8.717  18.098  0.00  0.00    +0.000 A 
ATOM     27  C   UNL     1       3.047   7.704  17.550  0.00  0.00    +0.000 A 
ATOM     28  C   UNL     1       3.269   6.530  18.265  0.00  0.00    +0.000 A 
ATOM     29  C   UNL     1       2.696   6.367  19.526  0.00  0.00    +0.000 A 
ATOM     30  C   UNL     1       1.908   7.382  20.076  0.00  0.00    +0.000 A 
ENDBRANCH  24  25
ENDBRANCH  18  24
TORSDOF 2
ENDMDL
MODEL 7
REMARK VINA RESULT:      -7.0      6.130      9.889
REMARK  Name = 
REMARK  2 active torsions:
REMARK  status: ('A' for Active; 'I' for Inactive)
REMARK    1  A    between atoms: C_18  and  C_19
REMARK    2  A    between atoms: C_19  and  C_20
REMARK                            x       y       z     vdW  Elec       q    Type
REMARK                         _______ _______ _______ _____ _____    ______ ____
ROOT
ATOM      1  N   UNL     1       5.249  14.307  17.810  0.00  0.00    +0.000 NA
ATOM      2  C   UNL     1       5.140  14.884  18.961  0.00  0.00    +0.000 C 
ATOM      3  N   UNL     1       6.183  15.456  19.637  0.00  0.00    +0.000 N 
ATOM      4  C   UNL     1       7.507  15.136  19.538  0.00  0.00    +0.000 C 
ATOM      5  N   UNL     1       8.006  14.542  18.499  0.00  0.00    +0.000 NA
ATOM      6  C   UNL     1       9.283  13.839  18.774  0.00  0.00    +0.000 C 
ATOM      7  C   UNL     1       9.651  12.922  17.593  0.00  0.00    +0.000 C 
ATOM      8  C   UNL     1      10.053  11.480  17.933  0.00  0.00    +0.000 C 
ATOM      9  C   UNL     1       9.368  10.939  19.177  0.00  0.00    +0.000 C 
ATOM     10  C   UNL     1       9.709  11.841  20.362  0.00  0.00    +0.000 C 
ATOM     11  C   UNL     1       8.987  13.132  20.101  0.00  0.00    +0.000 C 
ATOM     12  C   UNL     1       9.030  14.249  21.108  0.00  0.00    +0.000 C 
ATOM     13  O   UNL     1       9.548  14.204  22.211  0.00  0.00    +0.000 OA
ATOM     14  N   UNL     1       8.252  15.314  20.683  0.00  0.00    +0.000 N 
ATOM     15  N   UNL     1       3.925  15.021  19.602  0.00  0.00    +0.000 N 
ATOM     16  C   UNL     1       3.580  14.087  20.700  0.00  0.00    +0.000 C 
ATOM     17  C   UNL     1       2.317  14.560  21.448  0.00  0.00    +0.000 C 
ATOM     18  C   UNL     1       1.133  14.916  20.519  0.00  0.00    +0.000 C 
ATOM     19  C   UNL     1       1.659  15.859  19.433  0.00  0.00    +0.000 C 
ATOM     20  C   UNL     1       2.797  15.208  18.673  0.00  0.00    +0.000 C 
ATOM     21  H   UNL     1       6.251  14.360  17.553  0.00  0.00    +0.000 HD
ATOM     22  H   UNL     1       5.878  15.784  20.540  0.00  0.00    +0.000 HD
ATOM     23  H   UNL     1       8.000  15.971  21.400  0.00  0.00    +0.000 HD
ENDROOT
BRANCH  18  24
ATOM     24  C   UNL     1       0.448  13.645  19.956  0.00  0.00    +0.000 C 
BRANCH  24  25
ATOM     25  C   UNL     1       0.017  12.628  20.993  0.00  0.00    +0.000 A 
ATOM     26  C   UNL     1      -0.873  12.990  22.017  0.00  0.00    +0.000 A 
ATOM     27  C   UNL     1      -1.295  12.054  22.960  0.00  0.00    +0.000 A 
ATOM     28  C   UNL     1      -0.833  10.742  22.897  0.00  0.00    +0.000 A 
ATOM     29  C   UNL     1       0.059  10.370  21.892  0.00  0.00    +0.000 A 
ATOM     30  C   UNL     1       0.481  11.307  20.945  0.00  0.00    +0.000 A 
ENDBRANCH  24  25
ENDBRANCH  18  24
TORSDOF 2
ENDMDL
MODEL 8
REMARK VINA RESULT:      -6.9      5.927      9.583
REMARK  Name = 
REMARK  2 active torsions:
REMARK  status: ('A' for Active; 'I' for Inactive)
REMARK    1  A    between atoms: C_18  and  C_19
REMARK    2  A    between atoms: C_19  and  C_20
REMARK                            x       y       z     vdW  Elec       q    Type
REMARK                         _______ _______ _______ _____ _____    ______ ____
ROOT
ATOM      1  N   UNL     1       4.900  14.112  17.766  0.00  0.00    +0.000 NA
ATOM      2  C   UNL     1       4.756  14.728  18.893  0.00  0.00    +0.000 C 
ATOM      3  N   UNL     1       5.761  15.395  19.540  0.00  0.00    +0.000 N 
ATOM      4  C   UNL     1       7.103  15.161  19.445  0.00  0.00    +0.000 C 
ATOM      5  N   UNL     1       7.638  14.560  18.428  0.00  0.00    +0.000 NA
ATOM      6  C   UNL     1       8.960  13.955  18.724  0.00  0.00    +0.000 C 
ATOM      7  C   UNL     1       9.385  13.017  17.578  0.00  0.00    +0.000 C 
ATOM      8  C   UNL     1       9.884  11.621  17.975  0.00  0.00    +0.000 C 
ATOM      9  C   UNL     1       9.240  11.086  19.243  0.00  0.00    +0.000 C 
ATOM     10  C   UNL     1       9.524  12.056  20.389  0.00  0.00    +0.000 C 
ATOM     11  C   UNL     1       8.716  13.285  20.080  0.00  0.00    +0.000 C 
ATOM     12  C   UNL     1       8.688  14.442  21.040  0.00  0.00    +0.000 C 
ATOM     13  O   UNL     1       9.211  14.477  22.142  0.00  0.00    +0.000 OA
ATOM     14  N   UNL     1       7.839  15.435  20.578  0.00  0.00    +0.000 N 
ATOM     15  N   UNL     1       3.537  14.809  19.535  0.00  0.00    +0.000 N 
ATOM     16  C   UNL     1       3.259  13.899  20.672  0.00  0.00    +0.000 C 
ATOM     17  C   UNL     1       1.969  14.317  21.408  0.00  0.00    +0.000 C 
ATOM     18  C   UNL     1       0.762  14.555  20.473  0.00  0.00    +0.000 C 
ATOM     19  C   UNL     1       1.220  15.485  19.346  0.00  0.00    +0.000 C 
ATOM     20  C   UNL     1       2.396  14.882  18.606  0.00  0.00    +0.000 C 
ATOM     21  H   UNL     1       5.896  14.222  17.500  0.00  0.00    +0.000 HD
ATOM     22  H   UNL     1       5.437  15.738  20.430  0.00  0.00    +0.000 HD
ATOM     23  H   UNL     1       7.545  16.101  21.269  0.00  0.00    +0.000 HD
ENDROOT
BRANCH  18  24
ATOM     24  C   UNL     1       0.161  13.219  19.966  0.00  0.00    +0.000 C 
BRANCH  24  25
ATOM     25  C   UNL     1      -0.182  12.212  21.044  0.00  0.00    +0.000 A 
ATOM     26  C   UNL     1       0.483  10.977  21.101  0.00  0.00    +0.000 A 
ATOM     27  C   UNL     1       0.192  10.054  22.106  0.00  0.00    +0.000 A 
ATOM     28  C   UNL     1      -0.770  10.351  23.068  0.00  0.00    +0.000 A 
ATOM     29  C   UNL     1      -1.446  11.570  23.019  0.00  0.00    +0.000 A 
ATOM     30  C   UNL     1      -1.154  12.495  22.013  0.00  0.00    +0.000 A 
ENDBRANCH  24  25
ENDBRANCH  18  24
TORSDOF 2
ENDMDL
MODEL 9
REMARK VINA RESULT:      -6.9      3.166      8.944
REMARK  Name = 
REMARK  2 active torsions:
REMARK  status: ('A' for Active; 'I' for Inactive)
REMARK    1  A    between atoms: C_18  and  C_19
REMARK    2  A    between atoms: C_19  and  C_20
REMARK                            x       y       z     vdW  Elec       q    Type
REMARK                         _______ _______ _______ _____ _____    ______ ____
ROOT
ATOM      1  N   UNL     1       2.459   7.680  17.853  0.00  0.00    +0.000 NA
ATOM      2  C   UNL     1       2.163   7.934  19.085  0.00  0.00    +0.000 C 
ATOM      3  N   UNL     1       2.625   7.210  20.151  0.00  0.00    +0.000 N 
ATOM      4  C   UNL     1       3.021   5.904  20.154  0.00  0.00    +0.000 C 
ATOM      5  N   UNL     1       3.408   5.288  19.080  0.00  0.00    +0.000 NA
ATOM      6  C   UNL     1       3.301   3.811  19.173  0.00  0.00    +0.000 C 
ATOM      7  C   UNL     1       3.485   3.176  17.781  0.00  0.00    +0.000 C 
ATOM      8  C   UNL     1       2.449   2.127  17.355  0.00  0.00    +0.000 C 
ATOM      9  C   UNL     1       1.068   2.367  17.943  0.00  0.00    +0.000 C 
ATOM     10  C   UNL     1       1.174   2.367  19.468  0.00  0.00    +0.000 C 
ATOM     11  C   UNL     1       1.923   3.623  19.815  0.00  0.00    +0.000 C 
ATOM     12  C   UNL     1       2.153   4.002  21.252  0.00  0.00    +0.000 C 
ATOM     13  O   UNL     1       1.714   3.421  22.230  0.00  0.00    +0.000 OA
ATOM     14  N   UNL     1       2.812   5.219  21.332  0.00  0.00    +0.000 N 
ATOM     15  N   UNL     1       1.377   9.009  19.445  0.00  0.00    +0.000 N 
ATOM     16  C   UNL     1      -0.052   8.781  19.768  0.00  0.00    +0.000 C 
ATOM     17  C   UNL     1      -0.683  10.044  20.390  0.00  0.00    +0.000 C 
ATOM     18  C   UNL     1      -0.409  11.341  19.594  0.00  0.00    +0.000 C 
ATOM     19  C   UNL     1       1.097  11.411  19.321  0.00  0.00    +0.000 C 
ATOM     20  C   UNL     1       1.557  10.179  18.569  0.00  0.00    +0.000 C 
ATOM     21  H   UNL     1       3.070   6.844  17.867  0.00  0.00    +0.000 HD
ATOM     22  H   UNL     1       2.212   7.546  21.007  0.00  0.00    +0.000 HD
ATOM     23  H   UNL     1       2.758   5.676  22.225  0.00  0.00    +0.000 HD
ENDROOT
BRANCH  18  24
ATOM     24  C   UNL     1      -1.274  11.415  18.310  0.00  0.00    +0.000 C 
BRANCH  24  25
ATOM     25  C   UNL     1      -2.765  11.554  18.541  0.00  0.00    +0.000 A 
ATOM     26  C   UNL     1      -3.251  12.365  19.578  0.00  0.00    +0.000 A 
ATOM     27  C   UNL     1      -4.622  12.518  19.782  0.00  0.00    +0.000 A 
ATOM     28  C   UNL     1      -5.529  11.861  18.953  0.00  0.00    +0.000 A 
ATOM     29  C   UNL     1      -5.060  11.044  17.925  0.00  0.00    +0.000 A 
ATOM     30  C   UNL     1      -3.687  10.891  17.719  0.00  0.00    +0.000 A 
ENDBRANCH  24  25
ENDBRANCH  18  24
TORSDOF 2
ENDMDL
