MODEL 1
REMARK VINA RESULT:      -7.6      0.000      0.000
REMARK  Name = 
REMARK  4 active torsions:
REMARK  status: ('A' for Active; 'I' for Inactive)
REMARK    1  A    between atoms: C_1  and  C_2
REMARK    2  A    between atoms: C_6  and  C_7
REMARK    3  A    between atoms: C_7  and  S_8
REMARK    4  A    between atoms: S_8  and  C_9
REMARK                            x       y       z     vdW  Elec       q    Type
REMARK                         _______ _______ _______ _____ _____    ______ ____
ROOT
ATOM      1  S   UNL     1       5.612   5.717  17.791  0.00  0.00    +0.000 S 
ENDROOT
BRANCH   1   2
ATOM      2  C   UNL     1       6.040   5.264  16.166  0.00  0.00    +0.000 A 
ATOM      3  N   UNL     1       7.097   5.688  15.492  0.00  0.00    +0.000 NA
ATOM      4  C   UNL     1       6.989   5.047  14.272  0.00  0.00    +0.000 A 
ATOM      5  C   UNL     1       7.793   5.072  13.123  0.00  0.00    +0.000 A 
ATOM      6  C   UNL     1       7.406   4.290  12.019  0.00  0.00    +0.000 A 
ATOM      7  C   UNL     1       6.249   3.502  12.058  0.00  0.00    +0.000 A 
ATOM      8  C   UNL     1       5.437   3.467  13.196  0.00  0.00    +0.000 A 
ATOM      9  C   UNL     1       5.856   4.254  14.263  0.00  0.00    +0.000 A 
ATOM     10  O   UNL     1       5.244   4.388  15.470  0.00  0.00    +0.000 OA
ENDBRANCH   1   2
BRANCH   1  11
ATOM     11  C   UNL     1       5.288   4.125  18.589  0.00  0.00    +0.000 C 
BRANCH  11  17
ATOM     12  C   UNL     1       1.500   2.655  21.600  0.00  0.00    +0.000 C 
ATOM     13  C   UNL     1       1.968   3.217  20.290  0.00  0.00    +0.000 A 
ATOM     14  C   UNL     1       1.053   3.544  19.283  0.00  0.00    +0.000 A 
ATOM     15  C   UNL     1       1.500   4.054  18.066  0.00  0.00    +0.000 A 
ATOM     16  C   UNL     1       2.865   4.250  17.844  0.00  0.00    +0.000 A 
ATOM     17  C   UNL     1       3.803   3.940  18.839  0.00  0.00    +0.000 A 
ATOM     18  C   UNL     1       3.339   3.415  20.058  0.00  0.00    +0.000 A 
ENDBRANCH  11  17
ENDBRANCH   1  11
TORSDOF 3
ENDMDL
MODEL 2
REMARK VINA RESULT:      -7.5      1.766      7.208
REMARK  Name = 
REMARK  4 active torsions:
REMARK  status: ('A' for Active; 'I' for Inactive)
REMARK    1  A    between atoms: C_1  and  C_2
REMARK    2  A    between atoms: C_6  and  C_7
REMARK    3  A    between atoms: C_7  and  S_8
REMARK    4  A    between atoms: S_8  and  C_9
REMARK                            x       y       z     vdW  Elec       q    Type
REMARK                         _______ _______ _______ _____ _____    ______ ____
ROOT
ATOM      1  S   UNL     1       5.097   5.955  16.360  0.00  0.00    +0.000 S 
ENDROOT
BRANCH   1   2
ATOM      2  C   UNL     1       3.913   5.176  17.371  0.00  0.00    +0.000 A 
ATOM      3  N   UNL     1       3.293   4.039  17.107  0.00  0.00    +0.000 NA
ATOM      4  C   UNL     1       2.468   3.851  18.200  0.00  0.00    +0.000 A 
ATOM      5  C   UNL     1       1.557   2.835  18.528  0.00  0.00    +0.000 A 
ATOM      6  C   UNL     1       0.855   2.934  19.743  0.00  0.00    +0.000 A 
ATOM      7  C   UNL     1       1.053   4.016  20.610  0.00  0.00    +0.000 A 
ATOM      8  C   UNL     1       1.956   5.036  20.297  0.00  0.00    +0.000 A 
ATOM      9  C   UNL     1       2.629   4.899  19.088  0.00  0.00    +0.000 A 
ATOM     10  O   UNL     1       3.551   5.751  18.564  0.00  0.00    +0.000 OA
ENDBRANCH   1   2
BRANCH   1  11
ATOM     11  C   UNL     1       6.292   4.635  16.035  0.00  0.00    +0.000 C 
BRANCH  11  17
ATOM     12  C   UNL     1       5.343   2.459  11.570  0.00  0.00    +0.000 C 
ATOM     13  C   UNL     1       6.119   3.450  12.388  0.00  0.00    +0.000 A 
ATOM     14  C   UNL     1       7.115   4.238  11.803  0.00  0.00    +0.000 A 
ATOM     15  C   UNL     1       7.837   5.146  12.574  0.00  0.00    +0.000 A 
ATOM     16  C   UNL     1       7.567   5.281  13.938  0.00  0.00    +0.000 A 
ATOM     17  C   UNL     1       6.567   4.510  14.549  0.00  0.00    +0.000 A 
ATOM     18  C   UNL     1       5.854   3.590  13.760  0.00  0.00    +0.000 A 
ENDBRANCH  11  17
ENDBRANCH   1  11
TORSDOF 3
ENDMDL
MODEL 3
REMARK VINA RESULT:      -7.5      2.923      4.352
REMARK  Name = 
REMARK  4 active torsions:
REMARK  status: ('A' for Active; 'I' for Inactive)
REMARK    1  A    between atoms: C_1  and  C_2
REMARK    2  A    between atoms: C_6  and  C_7
REMARK    3  A    between atoms: C_7  and  S_8
REMARK    4  A    between atoms: S_8  and  C_9
REMARK                            x       y       z     vdW  Elec       q    Type
REMARK                         _______ _______ _______ _____ _____    ______ ____
ROOT
ATOM      1  S   UNL     1       3.332   2.069  18.295  0.00  0.00    +0.000 S 
ENDROOT
BRANCH   1   2
ATOM      2  C   UNL     1       4.548   3.314  18.261  0.00  0.00    +0.000 A 
ATOM      3  N   UNL     1       5.223   3.771  19.303  0.00  0.00    +0.000 NA
ATOM      4  C   UNL     1       6.053   4.734  18.761  0.00  0.00    +0.000 A 
ATOM      5  C   UNL     1       7.013   5.580  19.338  0.00  0.00    +0.000 A 
ATOM      6  C   UNL     1       7.709   6.470  18.499  0.00  0.00    +0.000 A 
ATOM      7  C   UNL     1       7.457   6.517  17.122  0.00  0.00    +0.000 A 
ATOM      8  C   UNL     1       6.503   5.681  16.533  0.00  0.00    +0.000 A 
ATOM      9  C   UNL     1       5.840   4.817  17.397  0.00  0.00    +0.000 A 
ATOM     10  O   UNL     1       4.878   3.913  17.070  0.00  0.00    +0.000 OA
ENDBRANCH   1   2
BRANCH   1  11
ATOM     11  C   UNL     1       1.791   2.995  18.081  0.00  0.00    +0.000 C 
BRANCH  11  17
ATOM     12  C   UNL     1       2.741   7.956  17.825  0.00  0.00    +0.000 C 
ATOM     13  C   UNL     1       2.352   6.753  18.633  0.00  0.00    +0.000 A 
ATOM     14  C   UNL     1       2.101   6.862  20.005  0.00  0.00    +0.000 A 
ATOM     15  C   UNL     1       1.752   5.736  20.748  0.00  0.00    +0.000 A 
ATOM     16  C   UNL     1       1.644   4.490  20.127  0.00  0.00    +0.000 A 
ATOM     17  C   UNL     1       1.881   4.353  18.751  0.00  0.00    +0.000 A 
ATOM     18  C   UNL     1       2.243   5.496  18.017  0.00  0.00    +0.000 A 
ENDBRANCH  11  17
ENDBRANCH   1  11
TORSDOF 3
ENDMDL
MODEL 4
REMARK VINA RESULT:      -7.5      0.994      1.047
REMARK  Name = 
REMARK  4 active torsions:
REMARK  status: ('A' for Active; 'I' for Inactive)
REMARK    1  A    between atoms: C_1  and  C_2
REMARK    2  A    between atoms: C_6  and  C_7
REMARK    3  A    between atoms: C_7  and  S_8
REMARK    4  A    between atoms: S_8  and  C_9
REMARK                            x       y       z     vdW  Elec       q    Type
REMARK                         _______ _______ _______ _____ _____    ______ ____
ROOT
ATOM      1  S   UNL     1       5.999   5.784  17.891  0.00  0.00    +0.000 S 
ENDROOT
BRANCH   1   2
ATOM      2  C   UNL     1       6.278   5.299  16.243  0.00  0.00    +0.000 A 
ATOM      3  N   UNL     1       7.291   5.677  15.481  0.00  0.00    +0.000 NA
ATOM      4  C   UNL     1       7.061   5.028  14.282  0.00  0.00    +0.000 A 
ATOM      5  C   UNL     1       7.770   5.012  13.072  0.00  0.00    +0.000 A 
ATOM      6  C   UNL     1       7.267   4.233  12.013  0.00  0.00    +0.000 A 
ATOM      7  C   UNL     1       6.090   3.489  12.155  0.00  0.00    +0.000 A 
ATOM      8  C   UNL     1       5.372   3.496  13.356  0.00  0.00    +0.000 A 
ATOM      9  C   UNL     1       5.904   4.277  14.375  0.00  0.00    +0.000 A 
ATOM     10  O   UNL     1       5.396   4.446  15.625  0.00  0.00    +0.000 OA
ENDBRANCH   1   2
BRANCH   1  11
ATOM     11  C   UNL     1       5.345   4.280  18.657  0.00  0.00    +0.000 C 
BRANCH  11  17
ATOM     12  C   UNL     1       1.429   2.682  21.429  0.00  0.00    +0.000 C 
ATOM     13  C   UNL     1       2.135   3.791  20.705  0.00  0.00    +0.000 A 
ATOM     14  C   UNL     1       1.587   5.077  20.656  0.00  0.00    +0.000 A 
ATOM     15  C   UNL     1       2.245   6.095  19.970  0.00  0.00    +0.000 A 
ATOM     16  C   UNL     1       3.462   5.842  19.332  0.00  0.00    +0.000 A 
ATOM     17  C   UNL     1       4.038   4.564  19.374  0.00  0.00    +0.000 A 
ATOM     18  C   UNL     1       3.357   3.543  20.059  0.00  0.00    +0.000 A 
ENDBRANCH  11  17
ENDBRANCH   1  11
TORSDOF 3
ENDMDL
MODEL 5
REMARK VINA RESULT:      -7.4      2.915      4.357
REMARK  Name = 
REMARK  4 active torsions:
REMARK  status: ('A' for Active; 'I' for Inactive)
REMARK    1  A    between atoms: C_1  and  C_2
REMARK    2  A    between atoms: C_6  and  C_7
REMARK    3  A    between atoms: C_7  and  S_8
REMARK    4  A    between atoms: S_8  and  C_9
REMARK                            x       y       z     vdW  Elec       q    Type
REMARK                         _______ _______ _______ _____ _____    ______ ____
ROOT
ATOM      1  S   UNL     1       3.298   2.123  18.328  0.00  0.00    +0.000 S 
ENDROOT
BRANCH   1   2
ATOM      2  C   UNL     1       4.495   3.362  18.081  0.00  0.00    +0.000 A 
ATOM      3  N   UNL     1       4.810   3.919  16.924  0.00  0.00    +0.000 NA
ATOM      4  C   UNL     1       5.797   4.830  17.255  0.00  0.00    +0.000 A 
ATOM      5  C   UNL     1       6.540   5.733  16.480  0.00  0.00    +0.000 A 
ATOM      6  C   UNL     1       7.491   6.544  17.127  0.00  0.00    +0.000 A 
ATOM      7  C   UNL     1       7.698   6.457  18.509  0.00  0.00    +0.000 A 
ATOM      8  C   UNL     1       6.966   5.561  19.294  0.00  0.00    +0.000 A 
ATOM      9  C   UNL     1       6.037   4.780  18.616  0.00  0.00    +0.000 A 
ATOM     10  O   UNL     1       5.209   3.843  19.151  0.00  0.00    +0.000 OA
ENDBRANCH   1   2
BRANCH   1  11
ATOM     11  C   UNL     1       1.736   3.028  18.193  0.00  0.00    +0.000 C 
BRANCH  11  17
ATOM     12  C   UNL     1       2.740   7.968  17.786  0.00  0.00    +0.000 C 
ATOM     13  C   UNL     1       2.351   6.792  18.633  0.00  0.00    +0.000 A 
ATOM     14  C   UNL     1       2.124   6.941  20.005  0.00  0.00    +0.000 A 
ATOM     15  C   UNL     1       1.774   5.840  20.784  0.00  0.00    +0.000 A 
ATOM     16  C   UNL     1       1.641   4.579  20.199  0.00  0.00    +0.000 A 
ATOM     17  C   UNL     1       1.853   4.402  18.824  0.00  0.00    +0.000 A 
ATOM     18  C   UNL     1       2.216   5.520  18.053  0.00  0.00    +0.000 A 
ENDBRANCH  11  17
ENDBRANCH   1  11
TORSDOF 3
ENDMDL
MODEL 6
REMARK VINA RESULT:      -7.3      1.306      1.775
REMARK  Name = 
REMARK  4 active torsions:
REMARK  status: ('A' for Active; 'I' for Inactive)
REMARK    1  A    between atoms: C_1  and  C_2
REMARK    2  A    between atoms: C_6  and  C_7
REMARK    3  A    between atoms: C_7  and  S_8
REMARK    4  A    between atoms: S_8  and  C_9
REMARK                            x       y       z     vdW  Elec       q    Type
REMARK                         _______ _______ _______ _____ _____    ______ ____
ROOT
ATOM      1  S   UNL     1       6.284   5.828  17.897  0.00  0.00    +0.000 S 
ENDROOT
BRANCH   1   2
ATOM      2  C   UNL     1       6.368   5.250  16.257  0.00  0.00    +0.000 A 
ATOM      3  N   UNL     1       5.568   4.353  15.706  0.00  0.00    +0.000 NA
ATOM      4  C   UNL     1       6.040   4.241  14.411  0.00  0.00    +0.000 A 
ATOM      5  C   UNL     1       5.624   3.459  13.323  0.00  0.00    +0.000 A 
ATOM      6  C   UNL     1       6.326   3.576  12.109  0.00  0.00    +0.000 A 
ATOM      7  C   UNL     1       7.414   4.449  11.981  0.00  0.00    +0.000 A 
ATOM      8  C   UNL     1       7.841   5.233  13.057  0.00  0.00    +0.000 A 
ATOM      9  C   UNL     1       7.120   5.088  14.236  0.00  0.00    +0.000 A 
ATOM     10  O   UNL     1       7.336   5.735  15.412  0.00  0.00    +0.000 OA
ENDBRANCH   1   2
BRANCH   1  11
ATOM     11  C   UNL     1       5.604   4.412  18.796  0.00  0.00    +0.000 C 
BRANCH  11  17
ATOM     12  C   UNL     1       1.423   2.986  21.259  0.00  0.00    +0.000 C 
ATOM     13  C   UNL     1       2.209   4.052  20.551  0.00  0.00    +0.000 A 
ATOM     14  C   UNL     1       1.684   5.338  20.386  0.00  0.00    +0.000 A 
ATOM     15  C   UNL     1       2.417   6.315  19.717  0.00  0.00    +0.000 A 
ATOM     16  C   UNL     1       3.686   6.020  19.210  0.00  0.00    +0.000 A 
ATOM     17  C   UNL     1       4.239   4.742  19.370  0.00  0.00    +0.000 A 
ATOM     18  C   UNL     1       3.483   3.762  20.038  0.00  0.00    +0.000 A 
ENDBRANCH  11  17
ENDBRANCH   1  11
TORSDOF 3
ENDMDL
MODEL 7
REMARK VINA RESULT:      -7.3      1.732      7.235
REMARK  Name = 
REMARK  4 active torsions:
REMARK  status: ('A' for Active; 'I' for Inactive)
REMARK    1  A    between atoms: C_1  and  C_2
REMARK    2  A    between atoms: C_6  and  C_7
REMARK    3  A    between atoms: C_7  and  S_8
REMARK    4  A    between atoms: S_8  and  C_9
REMARK                            x       y       z     vdW  Elec       q    Type
REMARK                         _______ _______ _______ _____ _____    ______ ____
ROOT
ATOM      1  S   UNL     1       5.138   5.884  16.514  0.00  0.00    +0.000 S 
ENDROOT
BRANCH   1   2
ATOM      2  C   UNL     1       4.214   5.216  17.830  0.00  0.00    +0.000 A 
ATOM      3  N   UNL     1       3.149   5.765  18.390  0.00  0.00    +0.000 NA
ATOM      4  C   UNL     1       2.789   4.860  19.370  0.00  0.00    +0.000 A 
ATOM      5  C   UNL     1       1.746   4.856  20.309  0.00  0.00    +0.000 A 
ATOM      6  C   UNL     1       1.644   3.764  21.190  0.00  0.00    +0.000 A 
ATOM      7  C   UNL     1       2.555   2.702  21.139  0.00  0.00    +0.000 A 
ATOM      8  C   UNL     1       3.601   2.692  20.209  0.00  0.00    +0.000 A 
ATOM      9  C   UNL     1       3.664   3.789  19.358  0.00  0.00    +0.000 A 
ATOM     10  O   UNL     1       4.579   4.011  18.377  0.00  0.00    +0.000 OA
ENDBRANCH   1   2
BRANCH   1  11
ATOM     11  C   UNL     1       6.324   4.569  16.137  0.00  0.00    +0.000 C 
BRANCH  11  17
ATOM     12  C   UNL     1       5.328   2.525  11.620  0.00  0.00    +0.000 C 
ATOM     13  C   UNL     1       6.112   3.491  12.459  0.00  0.00    +0.000 A 
ATOM     14  C   UNL     1       7.103   4.296  11.886  0.00  0.00    +0.000 A 
ATOM     15  C   UNL     1       7.833   5.181  12.677  0.00  0.00    +0.000 A 
ATOM     16  C   UNL     1       7.577   5.276  14.047  0.00  0.00    +0.000 A 
ATOM     17  C   UNL     1       6.583   4.488  14.645  0.00  0.00    +0.000 A 
ATOM     18  C   UNL     1       5.862   3.591  13.837  0.00  0.00    +0.000 A 
ENDBRANCH  11  17
ENDBRANCH   1  11
TORSDOF 3
ENDMDL
MODEL 8
REMARK VINA RESULT:      -7.2      1.000      1.059
REMARK  Name = 
REMARK  4 active torsions:
REMARK  status: ('A' for Active; 'I' for Inactive)
REMARK    1  A    between atoms: C_1  and  C_2
REMARK    2  A    between atoms: C_6  and  C_7
REMARK    3  A    between atoms: C_7  and  S_8
REMARK    4  A    between atoms: S_8  and  C_9
REMARK                            x       y       z     vdW  Elec       q    Type
REMARK                         _______ _______ _______ _____ _____    ______ ____
ROOT
ATOM      1  S   UNL     1       6.308   4.910  17.755  0.00  0.00    +0.000 S 
ENDROOT
BRANCH   1   2
ATOM      2  C   UNL     1       6.601   4.777  16.045  0.00  0.00    +0.000 A 
ATOM      3  N   UNL     1       7.425   5.530  15.336  0.00  0.00    +0.000 NA
ATOM      4  C   UNL     1       7.302   5.033  14.051  0.00  0.00    +0.000 A 
ATOM      5  C   UNL     1       7.911   5.398  12.841  0.00  0.00    +0.000 A 
ATOM      6  C   UNL     1       7.569   4.681  11.679  0.00  0.00    +0.000 A 
ATOM      7  C   UNL     1       6.646   3.630  11.720  0.00  0.00    +0.000 A 
ATOM      8  C   UNL     1       6.030   3.256  12.919  0.00  0.00    +0.000 A 
ATOM      9  C   UNL     1       6.397   3.989  14.042  0.00  0.00    +0.000 A 
ATOM     10  O   UNL     1       5.943   3.819  15.313  0.00  0.00    +0.000 OA
ENDBRANCH   1   2
BRANCH   1  11
ATOM     11  C   UNL     1       4.679   5.697  17.832  0.00  0.00    +0.000 C 
BRANCH  11  17
ATOM     12  C   UNL     1       1.064   3.759  20.790  0.00  0.00    +0.000 C 
ATOM     13  C   UNL     1       1.851   3.719  19.513  0.00  0.00    +0.000 A 
ATOM     14  C   UNL     1       1.617   2.723  18.559  0.00  0.00    +0.000 A 
ATOM     15  C   UNL     1       2.362   2.688  17.382  0.00  0.00    +0.000 A 
ATOM     16  C   UNL     1       3.345   3.652  17.143  0.00  0.00    +0.000 A 
ATOM     17  C   UNL     1       3.593   4.667  18.078  0.00  0.00    +0.000 A 
ATOM     18  C   UNL     1       2.841   4.683  19.266  0.00  0.00    +0.000 A 
ENDBRANCH  11  17
ENDBRANCH   1  11
TORSDOF 3
ENDMDL
MODEL 9
REMARK VINA RESULT:      -7.2      1.368      1.904
REMARK  Name = 
REMARK  4 active torsions:
REMARK  status: ('A' for Active; 'I' for Inactive)
REMARK    1  A    between atoms: C_1  and  C_2
REMARK    2  A    between atoms: C_6  and  C_7
REMARK    3  A    between atoms: C_7  and  S_8
REMARK    4  A    between atoms: S_8  and  C_9
REMARK                            x       y       z     vdW  Elec       q    Type
REMARK                         _______ _______ _______ _____ _____    ______ ____
ROOT
ATOM      1  S   UNL     1       6.707   6.079  17.689  0.00  0.00    +0.000 S 
ENDROOT
BRANCH   1   2
ATOM      2  C   UNL     1       6.650   5.392  16.091  0.00  0.00    +0.000 A 
ATOM      3  N   UNL     1       5.777   4.498  15.659  0.00  0.00    +0.000 NA
ATOM      4  C   UNL     1       6.150   4.281  14.345  0.00  0.00    +0.000 A 
ATOM      5  C   UNL     1       5.626   3.449  13.344  0.00  0.00    +0.000 A 
ATOM      6  C   UNL     1       6.243   3.455  12.079  0.00  0.00    +0.000 A 
ATOM      7  C   UNL     1       7.353   4.268  11.817  0.00  0.00    +0.000 A 
ATOM      8  C   UNL     1       7.888   5.101  12.805  0.00  0.00    +0.000 A 
ATOM      9  C   UNL     1       7.248   5.065  14.039  0.00  0.00    +0.000 A 
ATOM     10  O   UNL     1       7.574   5.777  15.150  0.00  0.00    +0.000 OA
ENDBRANCH   1   2
BRANCH   1  11
ATOM     11  C   UNL     1       5.970   4.784  18.718  0.00  0.00    +0.000 C 
BRANCH  11  17
ATOM     12  C   UNL     1       1.620   2.214  18.507  0.00  0.00    +0.000 C 
ATOM     13  C   UNL     1       2.355   3.521  18.446  0.00  0.00    +0.000 A 
ATOM     14  C   UNL     1       1.670   4.718  18.215  0.00  0.00    +0.000 A 
ATOM     15  C   UNL     1       2.364   5.924  18.149  0.00  0.00    +0.000 A 
ATOM     16  C   UNL     1       3.751   5.948  18.319  0.00  0.00    +0.000 A 
ATOM     17  C   UNL     1       4.461   4.763  18.561  0.00  0.00    +0.000 A 
ATOM     18  C   UNL     1       3.749   3.552  18.615  0.00  0.00    +0.000 A 
ENDBRANCH  11  17
ENDBRANCH   1  11
TORSDOF 3
ENDMDL
