MODEL 1
REMARK VINA RESULT:      -7.9      0.000      0.000
REMARK  Name = 
REMARK  5 active torsions:
REMARK  status: ('A' for Active; 'I' for Inactive)
REMARK    1  A    between atoms: O_1  and  C_2
REMARK    2  A    between atoms: C_2  and  C_3
REMARK    3  A    between atoms: C_6  and  N_7
REMARK    4  A    between atoms: N_12  and  C_13
REMARK    5  A    between atoms: C_13  and  C_14
REMARK                            x       y       z     vdW  Elec       q    Type
REMARK                         _______ _______ _______ _____ _____    ______ ____
ROOT
ATOM      1  N   UNL     1       1.955   7.102  19.559  0.00  0.00    +0.000 N 
ATOM      2  C   UNL     1       1.461   7.075  20.845  0.00  0.00    +0.000 A 
ATOM      3  N   UNL     1       1.024   8.251  21.238  0.00  0.00    +0.000 NA
ATOM      4  C   UNL     1       1.260   9.086  20.168  0.00  0.00    +0.000 A 
ATOM      5  C   UNL     1       1.023  10.466  19.986  0.00  0.00    +0.000 A 
ATOM      6  N   UNL     1       0.507  11.254  21.012  0.00  0.00    +0.000 N 
ATOM      7  N   UNL     1       1.369  11.013  18.793  0.00  0.00    +0.000 NA
ATOM      8  C   UNL     1       1.934  10.223  17.857  0.00  0.00    +0.000 A 
ATOM      9  N   UNL     1       2.203   8.907  17.929  0.00  0.00    +0.000 NA
ATOM     10  C   UNL     1       1.842   8.394  19.115  0.00  0.00    +0.000 A 
ATOM     11  H   UNL     1       0.136  10.678  21.764  0.00  0.00    +0.000 HD
ENDROOT
BRANCH   1  15
ATOM     12  C   UNL     1       2.051   4.024  20.250  0.00  0.00    +0.000 C 
ATOM     13  C   UNL     1       3.537   3.944  19.855  0.00  0.00    +0.000 C 
ATOM     14  C   UNL     1       3.819   5.439  19.546  0.00  0.00    +0.000 C 
ATOM     15  C   UNL     1       2.498   5.931  18.883  0.00  0.00    +0.000 C 
ATOM     16  C   UNL     1       1.640   4.633  18.903  0.00  0.00    +0.000 C 
ATOM     17  C   UNL     1       2.220   3.627  17.875  0.00  0.00    +0.000 C 
ATOM     18  C   UNL     1       3.559   3.207  18.503  0.00  0.00    +0.000 C 
ATOM     19 CL   UNL     1       3.704   1.446  18.675  0.00  0.00    +0.000 Cl
BRANCH  12  20
ATOM     20  C   UNL     1       1.315   2.758  20.656  0.00  0.00    +0.000 C 
BRANCH  20  21
ATOM     21  O   UNL     1       1.591   2.490  22.023  0.00  0.00    +0.000 OA
ATOM     22  H   UNL     1       2.557   2.514  22.127  0.00  0.00    +0.000 HD
ENDBRANCH  20  21
ENDBRANCH  12  20
ENDBRANCH   1  15
BRANCH   6  23
ATOM     23  C   UNL     1      -0.308  12.393  20.642  0.00  0.00    +0.000 C 
BRANCH  23  24
ATOM     24  C   UNL     1      -1.567  12.388  21.477  0.00  0.00    +0.000 A 
ATOM     25  C   UNL     1      -2.784  12.768  20.900  0.00  0.00    +0.000 A 
ATOM     26  C   UNL     1      -3.934  12.731  21.672  0.00  0.00    +0.000 A 
ATOM     27  N   UNL     1      -3.956  12.340  22.963  0.00  0.00    +0.000 NA
ATOM     28  C   UNL     1      -2.772  11.978  23.504  0.00  0.00    +0.000 A 
ATOM     29  C   UNL     1      -1.567  11.985  22.815  0.00  0.00    +0.000 A 
ENDBRANCH  23  24
ENDBRANCH   6  23
TORSDOF 5
ENDMDL
MODEL 2
REMARK VINA RESULT:      -7.9      0.929      1.959
REMARK  Name = 
REMARK  5 active torsions:
REMARK  status: ('A' for Active; 'I' for Inactive)
REMARK    1  A    between atoms: O_1  and  C_2
REMARK    2  A    between atoms: C_2  and  C_3
REMARK    3  A    between atoms: C_6  and  N_7
REMARK    4  A    between atoms: N_12  and  C_13
REMARK    5  A    between atoms: C_13  and  C_14
REMARK                            x       y       z     vdW  Elec       q    Type
REMARK                         _______ _______ _______ _____ _____    ______ ____
ROOT
ATOM      1  N   UNL     1       2.440   7.449  18.496  0.00  0.00    +0.000 N 
ATOM      2  C   UNL     1       2.356   8.451  17.554  0.00  0.00    +0.000 A 
ATOM      3  N   UNL     1       1.752   9.523  18.016  0.00  0.00    +0.000 NA
ATOM      4  C   UNL     1       1.408   9.199  19.311  0.00  0.00    +0.000 A 
ATOM      5  C   UNL     1       0.729   9.929  20.311  0.00  0.00    +0.000 A 
ATOM      6  N   UNL     1       0.217  11.199  20.059  0.00  0.00    +0.000 N 
ATOM      7  N   UNL     1       0.541   9.326  21.513  0.00  0.00    +0.000 NA
ATOM      8  C   UNL     1       0.991   8.065  21.684  0.00  0.00    +0.000 A 
ATOM      9  N   UNL     1       1.643   7.287  20.802  0.00  0.00    +0.000 NA
ATOM     10  C   UNL     1       1.822   7.914  19.629  0.00  0.00    +0.000 A 
ATOM     11  H   UNL     1       0.590  11.579  19.192  0.00  0.00    +0.000 HD
ENDROOT
BRANCH   1  15
ATOM     12  C   UNL     1       1.817   4.494  19.414  0.00  0.00    +0.000 C 
ATOM     13  C   UNL     1       3.300   4.244  19.740  0.00  0.00    +0.000 C 
ATOM     14  C   UNL     1       3.883   5.656  19.467  0.00  0.00    +0.000 C 
ATOM     15  C   UNL     1       3.065   6.158  18.240  0.00  0.00    +0.000 C 
ATOM     16  C   UNL     1       2.123   4.947  17.980  0.00  0.00    +0.000 C 
ATOM     17  C   UNL     1       2.957   3.769  17.414  0.00  0.00    +0.000 C 
ATOM     18  C   UNL     1       3.816   3.332  18.611  0.00  0.00    +0.000 C 
ATOM     19 CL   UNL     1       3.638   1.604  18.978  0.00  0.00    +0.000 Cl
BRANCH  12  20
ATOM     20  C   UNL     1       0.818   3.357  19.550  0.00  0.00    +0.000 C 
BRANCH  20  21
ATOM     21  O   UNL     1       0.734   2.986  20.918  0.00  0.00    +0.000 OA
ATOM     22  H   UNL     1       1.635   2.763  21.206  0.00  0.00    +0.000 HD
ENDBRANCH  20  21
ENDBRANCH  12  20
ENDBRANCH   1  15
BRANCH   6  23
ATOM     23  C   UNL     1       0.150  12.130  21.167  0.00  0.00    +0.000 C 
BRANCH  23  24
ATOM     24  C   UNL     1      -1.282  12.234  21.635  0.00  0.00    +0.000 A 
ATOM     25  C   UNL     1      -1.595  11.981  22.976  0.00  0.00    +0.000 A 
ATOM     26  C   UNL     1      -2.909  12.108  23.395  0.00  0.00    +0.000 A 
ATOM     27  N   UNL     1      -3.921  12.472  22.581  0.00  0.00    +0.000 NA
ATOM     28  C   UNL     1      -3.602  12.711  21.290  0.00  0.00    +0.000 A 
ATOM     29  C   UNL     1      -2.317  12.606  20.774  0.00  0.00    +0.000 A 
ENDBRANCH  23  24
ENDBRANCH   6  23
TORSDOF 5
ENDMDL
MODEL 3
REMARK VINA RESULT:      -7.7      1.863      2.752
REMARK  Name = 
REMARK  5 active torsions:
REMARK  status: ('A' for Active; 'I' for Inactive)
REMARK    1  A    between atoms: O_1  and  C_2
REMARK    2  A    between atoms: C_2  and  C_3
REMARK    3  A    between atoms: C_6  and  N_7
REMARK    4  A    between atoms: N_12  and  C_13
REMARK    5  A    between atoms: C_13  and  C_14
REMARK                            x       y       z     vdW  Elec       q    Type
REMARK                         _______ _______ _______ _____ _____    ______ ____
ROOT
ATOM      1  N   UNL     1       2.741   7.288  18.965  0.00  0.00    +0.000 N 
ATOM      2  C   UNL     1       2.863   7.824  17.702  0.00  0.00    +0.000 A 
ATOM      3  N   UNL     1       2.098   8.879  17.529  0.00  0.00    +0.000 NA
ATOM      4  C   UNL     1       1.433   9.028  18.727  0.00  0.00    +0.000 A 
ATOM      5  C   UNL     1       0.470   9.967  19.153  0.00  0.00    +0.000 A 
ATOM      6  N   UNL     1      -0.022  10.943  18.290  0.00  0.00    +0.000 N 
ATOM      7  N   UNL     1      -0.005   9.852  20.420  0.00  0.00    +0.000 NA
ATOM      8  C   UNL     1       0.449   8.844  21.194  0.00  0.00    +0.000 A 
ATOM      9  N   UNL     1       1.358   7.902  20.886  0.00  0.00    +0.000 NA
ATOM     10  C   UNL     1       1.814   8.048  19.632  0.00  0.00    +0.000 A 
ATOM     11  H   UNL     1       0.552  11.014  17.453  0.00  0.00    +0.000 HD
ENDROOT
BRANCH   1  15
ATOM     12  C   UNL     1       2.714   4.238  18.156  0.00  0.00    +0.000 C 
ATOM     13  C   UNL     1       2.712   3.808  19.634  0.00  0.00    +0.000 C 
ATOM     14  C   UNL     1       2.614   5.195  20.323  0.00  0.00    +0.000 C 
ATOM     15  C   UNL     1       3.481   6.117  19.415  0.00  0.00    +0.000 C 
ATOM     16  C   UNL     1       3.962   5.115  18.326  0.00  0.00    +0.000 C 
ATOM     17  C   UNL     1       4.990   4.138  18.955  0.00  0.00    +0.000 C 
ATOM     18  C   UNL     1       4.135   3.285  19.906  0.00  0.00    +0.000 C 
ATOM     19 CL   UNL     1       4.307   1.546  19.595  0.00  0.00    +0.000 Cl
BRANCH  12  20
ATOM     20  C   UNL     1       2.792   3.180  17.067  0.00  0.00    +0.000 C 
BRANCH  20  21
ATOM     21  O   UNL     1       1.970   2.083  17.439  0.00  0.00    +0.000 OA
ATOM     22  H   UNL     1       2.291   1.768  18.301  0.00  0.00    +0.000 HD
ENDBRANCH  20  21
ENDBRANCH  12  20
ENDBRANCH   1  15
BRANCH   6  23
ATOM     23  C   UNL     1      -0.438  12.205  18.867  0.00  0.00    +0.000 C 
BRANCH  23  24
ATOM     24  C   UNL     1      -1.941  12.206  19.016  0.00  0.00    +0.000 A 
ATOM     25  C   UNL     1      -2.735  11.585  18.044  0.00  0.00    +0.000 A 
ATOM     26  C   UNL     1      -4.110  11.571  18.210  0.00  0.00    +0.000 A 
ATOM     27  N   UNL     1      -4.742  12.120  19.268  0.00  0.00    +0.000 NA
ATOM     28  C   UNL     1      -3.960  12.716  20.195  0.00  0.00    +0.000 A 
ATOM     29  C   UNL     1      -2.576  12.786  20.116  0.00  0.00    +0.000 A 
ENDBRANCH  23  24
ENDBRANCH   6  23
TORSDOF 5
ENDMDL
MODEL 4
REMARK VINA RESULT:      -7.6      2.348      3.871
REMARK  Name = 
REMARK  5 active torsions:
REMARK  status: ('A' for Active; 'I' for Inactive)
REMARK    1  A    between atoms: O_1  and  C_2
REMARK    2  A    between atoms: C_2  and  C_3
REMARK    3  A    between atoms: C_6  and  N_7
REMARK    4  A    between atoms: N_12  and  C_13
REMARK    5  A    between atoms: C_13  and  C_14
REMARK                            x       y       z     vdW  Elec       q    Type
REMARK                         _______ _______ _______ _____ _____    ______ ____
ROOT
ATOM      1  N   UNL     1       2.320   7.790  19.097  0.00  0.00    +0.000 N 
ATOM      2  C   UNL     1       2.512   8.274  17.822  0.00  0.00    +0.000 A 
ATOM      3  N   UNL     1       1.793   9.348  17.579  0.00  0.00    +0.000 NA
ATOM      4  C   UNL     1       1.085   9.563  18.742  0.00  0.00    +0.000 A 
ATOM      5  C   UNL     1       0.139  10.549  19.094  0.00  0.00    +0.000 A 
ATOM      6  N   UNL     1      -0.283  11.509  18.177  0.00  0.00    +0.000 N 
ATOM      7  N   UNL     1      -0.392  10.497  20.343  0.00  0.00    +0.000 NA
ATOM      8  C   UNL     1      -0.007   9.503  21.170  0.00  0.00    +0.000 A 
ATOM      9  N   UNL     1       0.881   8.519  20.934  0.00  0.00    +0.000 NA
ATOM     10  C   UNL     1       1.394   8.604  19.697  0.00  0.00    +0.000 A 
ATOM     11  H   UNL     1       0.327  11.530  17.363  0.00  0.00    +0.000 HD
ENDROOT
BRANCH   1  15
ATOM     12  C   UNL     1       2.625   4.814  18.091  0.00  0.00    +0.000 C 
ATOM     13  C   UNL     1       2.316   4.269  19.497  0.00  0.00    +0.000 C 
ATOM     14  C   UNL     1       1.999   5.593  20.241  0.00  0.00    +0.000 C 
ATOM     15  C   UNL     1       2.999   6.611  19.619  0.00  0.00    +0.000 C 
ATOM     16  C   UNL     1       3.759   5.715  18.599  0.00  0.00    +0.000 C 
ATOM     17  C   UNL     1       4.668   4.726  19.373  0.00  0.00    +0.000 C 
ATOM     18  C   UNL     1       3.667   3.773  20.045  0.00  0.00    +0.000 C 
ATOM     19 CL   UNL     1       3.990   2.070  19.660  0.00  0.00    +0.000 Cl
BRANCH  12  20
ATOM     20  C   UNL     1       2.995   3.850  16.977  0.00  0.00    +0.000 C 
BRANCH  20  21
ATOM     21  O   UNL     1       2.104   2.744  17.017  0.00  0.00    +0.000 OA
ATOM     22  H   UNL     1       1.788   2.669  17.933  0.00  0.00    +0.000 HD
ENDBRANCH  20  21
ENDBRANCH  12  20
ENDBRANCH   1  15
BRANCH   6  23
ATOM     23  C   UNL     1      -0.677  12.804  18.691  0.00  0.00    +0.000 C 
BRANCH  23  24
ATOM     24  C   UNL     1       0.497  13.750  18.594  0.00  0.00    +0.000 A 
ATOM     25  C   UNL     1       0.324  15.105  18.899  0.00  0.00    +0.000 A 
ATOM     26  C   UNL     1       1.418  15.952  18.832  0.00  0.00    +0.000 A 
ATOM     27  N   UNL     1       2.659  15.547  18.492  0.00  0.00    +0.000 NA
ATOM     28  C   UNL     1       2.807  14.236  18.200  0.00  0.00    +0.000 A 
ATOM     29  C   UNL     1       1.773  13.310  18.234  0.00  0.00    +0.000 A 
ENDBRANCH  23  24
ENDBRANCH   6  23
TORSDOF 5
ENDMDL
MODEL 5
REMARK VINA RESULT:      -7.5      4.296      9.041
REMARK  Name = 
REMARK  5 active torsions:
REMARK  status: ('A' for Active; 'I' for Inactive)
REMARK    1  A    between atoms: O_1  and  C_2
REMARK    2  A    between atoms: C_2  and  C_3
REMARK    3  A    between atoms: C_6  and  N_7
REMARK    4  A    between atoms: N_12  and  C_13
REMARK    5  A    between atoms: C_13  and  C_14
REMARK                            x       y       z     vdW  Elec       q    Type
REMARK                         _______ _______ _______ _____ _____    ______ ____
ROOT
ATOM      1  N   UNL     1      -0.442  11.187  21.989  0.00  0.00    +0.000 N 
ATOM      2  C   UNL     1      -0.521  10.262  23.007  0.00  0.00    +0.000 A 
ATOM      3  N   UNL     1       0.029   9.113  22.684  0.00  0.00    +0.000 NA
ATOM      4  C   UNL     1       0.470   9.289  21.391  0.00  0.00    +0.000 A 
ATOM      5  C   UNL     1       1.127   8.415  20.498  0.00  0.00    +0.000 A 
ATOM      6  N   UNL     1       1.392   7.092  20.842  0.00  0.00    +0.000 N 
ATOM      7  N   UNL     1       1.442   8.892  19.266  0.00  0.00    +0.000 NA
ATOM      8  C   UNL     1       1.098  10.159  18.954  0.00  0.00    +0.000 A 
ATOM      9  N   UNL     1       0.474  11.067  19.725  0.00  0.00    +0.000 NA
ATOM     10  C   UNL     1       0.185  10.569  20.938  0.00  0.00    +0.000 A 
ATOM     11  H   UNL     1       1.265   6.941  21.840  0.00  0.00    +0.000 HD
ENDROOT
BRANCH   1  15
ATOM     12  C   UNL     1      -3.073  12.418  23.221  0.00  0.00    +0.000 C 
ATOM     13  C   UNL     1      -3.296  13.288  21.971  0.00  0.00    +0.000 C 
ATOM     14  C   UNL     1      -2.130  12.787  21.077  0.00  0.00    +0.000 C 
ATOM     15  C   UNL     1      -0.973  12.540  22.091  0.00  0.00    +0.000 C 
ATOM     16  C   UNL     1      -1.647  12.943  23.434  0.00  0.00    +0.000 C 
ATOM     17  C   UNL     1      -1.843  14.481  23.460  0.00  0.00    +0.000 C 
ATOM     18  C   UNL     1      -2.931  14.721  22.402  0.00  0.00    +0.000 C 
ATOM     19 CL   UNL     1      -4.316  15.625  23.047  0.00  0.00    +0.000 Cl
BRANCH  12  20
ATOM     20  C   UNL     1      -4.013  12.557  24.408  0.00  0.00    +0.000 C 
BRANCH  20  21
ATOM     21  O   UNL     1      -5.337  12.284  23.974  0.00  0.00    +0.000 OA
ATOM     22  H   UNL     1      -5.519  12.879  23.226  0.00  0.00    +0.000 HD
ENDBRANCH  20  21
ENDBRANCH  12  20
ENDBRANCH   1  15
BRANCH   6  23
ATOM     23  C   UNL     1       2.564   6.467  20.264  0.00  0.00    +0.000 C 
BRANCH  23  24
ATOM     24  C   UNL     1       2.143   5.211  19.537  0.00  0.00    +0.000 A 
ATOM     25  C   UNL     1       1.396   4.237  20.210  0.00  0.00    +0.000 A 
ATOM     26  C   UNL     1       0.995   3.104  19.521  0.00  0.00    +0.000 A 
ATOM     27  N   UNL     1       1.277   2.880  18.221  0.00  0.00    +0.000 NA
ATOM     28  C   UNL     1       1.999   3.830  17.587  0.00  0.00    +0.000 A 
ATOM     29  C   UNL     1       2.451   4.996  18.192  0.00  0.00    +0.000 A 
ENDBRANCH  23  24
ENDBRANCH   6  23
TORSDOF 5
ENDMDL
MODEL 6
REMARK VINA RESULT:      -7.5      2.652      4.180
REMARK  Name = 
REMARK  5 active torsions:
REMARK  status: ('A' for Active; 'I' for Inactive)
REMARK    1  A    between atoms: O_1  and  C_2
REMARK    2  A    between atoms: C_2  and  C_3
REMARK    3  A    between atoms: C_6  and  N_7
REMARK    4  A    between atoms: N_12  and  C_13
REMARK    5  A    between atoms: C_13  and  C_14
REMARK                            x       y       z     vdW  Elec       q    Type
REMARK                         _______ _______ _______ _____ _____    ______ ____
ROOT
ATOM      1  N   UNL     1       2.447   7.360  19.091  0.00  0.00    +0.000 N 
ATOM      2  C   UNL     1       2.726   7.869  17.841  0.00  0.00    +0.000 A 
ATOM      3  N   UNL     1       2.175   9.046  17.645  0.00  0.00    +0.000 NA
ATOM      4  C   UNL     1       1.490   9.308  18.812  0.00  0.00    +0.000 A 
ATOM      5  C   UNL     1       0.692  10.406  19.203  0.00  0.00    +0.000 A 
ATOM      6  N   UNL     1       0.428  11.457  18.329  0.00  0.00    +0.000 N 
ATOM      7  N   UNL     1       0.142  10.374  20.444  0.00  0.00    +0.000 NA
ATOM      8  C   UNL     1       0.367   9.298  21.226  0.00  0.00    +0.000 A 
ATOM      9  N   UNL     1       1.105   8.207  20.950  0.00  0.00    +0.000 NA
ATOM     10  C   UNL     1       1.642   8.272  19.722  0.00  0.00    +0.000 A 
ATOM     11  H   UNL     1       1.046  11.426  17.522  0.00  0.00    +0.000 HD
ENDROOT
BRANCH   1  15
ATOM     12  C   UNL     1       3.249   4.666  17.655  0.00  0.00    +0.000 C 
ATOM     13  C   UNL     1       2.467   3.838  18.690  0.00  0.00    +0.000 C 
ATOM     14  C   UNL     1       1.831   4.979  19.529  0.00  0.00    +0.000 C 
ATOM     15  C   UNL     1       2.940   6.072  19.561  0.00  0.00    +0.000 C 
ATOM     16  C   UNL     1       4.068   5.393  18.731  0.00  0.00    +0.000 C 
ATOM     17  C   UNL     1       4.671   4.226  19.556  0.00  0.00    +0.000 C 
ATOM     18  C   UNL     1       3.539   3.186  19.583  0.00  0.00    +0.000 C 
ATOM     19 CL   UNL     1       4.065   1.598  18.988  0.00  0.00    +0.000 Cl
BRANCH  12  20
ATOM     20  C   UNL     1       4.055   3.955  16.580  0.00  0.00    +0.000 C 
BRANCH  20  21
ATOM     21  O   UNL     1       4.992   4.871  16.033  0.00  0.00    +0.000 OA
ATOM     22  H   UNL     1       4.656   5.131  15.159  0.00  0.00    +0.000 HD
ENDBRANCH  20  21
ENDBRANCH  12  20
ENDBRANCH   1  15
BRANCH   6  23
ATOM     23  C   UNL     1       0.220  12.772  18.901  0.00  0.00    +0.000 C 
BRANCH  23  24
ATOM     24  C   UNL     1       1.562  13.424  19.137  0.00  0.00    +0.000 A 
ATOM     25  C   UNL     1       1.964  13.734  20.441  0.00  0.00    +0.000 A 
ATOM     26  C   UNL     1       3.209  14.306  20.641  0.00  0.00    +0.000 A 
ATOM     27  N   UNL     1       4.076  14.582  19.644  0.00  0.00    +0.000 NA
ATOM     28  C   UNL     1       3.670  14.277  18.391  0.00  0.00    +0.000 A 
ATOM     29  C   UNL     1       2.441  13.707  18.089  0.00  0.00    +0.000 A 
ENDBRANCH  23  24
ENDBRANCH   6  23
TORSDOF 5
ENDMDL
MODEL 7
REMARK VINA RESULT:      -7.5      4.070      8.839
REMARK  Name = 
REMARK  5 active torsions:
REMARK  status: ('A' for Active; 'I' for Inactive)
REMARK    1  A    between atoms: O_1  and  C_2
REMARK    2  A    between atoms: C_2  and  C_3
REMARK    3  A    between atoms: C_6  and  N_7
REMARK    4  A    between atoms: N_12  and  C_13
REMARK    5  A    between atoms: C_13  and  C_14
REMARK                            x       y       z     vdW  Elec       q    Type
REMARK                         _______ _______ _______ _____ _____    ______ ____
ROOT
ATOM      1  N   UNL     1       0.308  10.772  21.220  0.00  0.00    +0.000 N 
ATOM      2  C   UNL     1       0.293   9.951  22.326  0.00  0.00    +0.000 A 
ATOM      3  N   UNL     1       0.825   8.773  22.082  0.00  0.00    +0.000 NA
ATOM      4  C   UNL     1       1.184   8.822  20.753  0.00  0.00    +0.000 A 
ATOM      5  C   UNL     1       1.786   7.863  19.910  0.00  0.00    +0.000 A 
ATOM      6  N   UNL     1       2.074   6.578  20.363  0.00  0.00    +0.000 N 
ATOM      7  N   UNL     1       2.023   8.217  18.620  0.00  0.00    +0.000 NA
ATOM      8  C   UNL     1       1.657   9.449  18.209  0.00  0.00    +0.000 A 
ATOM      9  N   UNL     1       1.081  10.430  18.926  0.00  0.00    +0.000 NA
ATOM     10  C   UNL     1       0.869  10.053  20.196  0.00  0.00    +0.000 A 
ATOM     11  H   UNL     1       2.010   6.525  21.377  0.00  0.00    +0.000 HD
ENDROOT
BRANCH   1  15
ATOM     12  C   UNL     1      -2.288  12.112  22.415  0.00  0.00    +0.000 C 
ATOM     13  C   UNL     1      -2.543  12.875  21.103  0.00  0.00    +0.000 C 
ATOM     14  C   UNL     1      -1.402  12.297  20.224  0.00  0.00    +0.000 C 
ATOM     15  C   UNL     1      -0.219  12.131  21.223  0.00  0.00    +0.000 C 
ATOM     16  C   UNL     1      -0.855  12.647  22.545  0.00  0.00    +0.000 C 
ATOM     17  C   UNL     1      -1.048  14.183  22.449  0.00  0.00    +0.000 C 
ATOM     18  C   UNL     1      -2.165  14.337  21.404  0.00  0.00    +0.000 C 
ATOM     19 CL   UNL     1      -3.530  15.297  22.008  0.00  0.00    +0.000 Cl
BRANCH  12  20
ATOM     20  C   UNL     1      -3.195  12.352  23.611  0.00  0.00    +0.000 C 
BRANCH  20  21
ATOM     21  O   UNL     1      -4.546  12.271  23.180  0.00  0.00    +0.000 OA
ATOM     22  H   UNL     1      -5.102  12.381  23.970  0.00  0.00    +0.000 HD
ENDBRANCH  20  21
ENDBRANCH  12  20
ENDBRANCH   1  15
BRANCH   6  23
ATOM     23  C   UNL     1       3.209   5.895  19.777  0.00  0.00    +0.000 C 
BRANCH  23  24
ATOM     24  C   UNL     1       2.718   4.672  19.038  0.00  0.00    +0.000 A 
ATOM     25  C   UNL     1       3.447   4.179  17.949  0.00  0.00    +0.000 A 
ATOM     26  C   UNL     1       2.998   3.041  17.301  0.00  0.00    +0.000 A 
ATOM     27  N   UNL     1       1.889   2.362  17.661  0.00  0.00    +0.000 NA
ATOM     28  C   UNL     1       1.197   2.853  18.713  0.00  0.00    +0.000 A 
ATOM     29  C   UNL     1       1.563   3.988  19.424  0.00  0.00    +0.000 A 
ENDBRANCH  23  24
ENDBRANCH   6  23
TORSDOF 5
ENDMDL
MODEL 8
REMARK VINA RESULT:      -7.5      4.205      8.819
REMARK  Name = 
REMARK  5 active torsions:
REMARK  status: ('A' for Active; 'I' for Inactive)
REMARK    1  A    between atoms: O_1  and  C_2
REMARK    2  A    between atoms: C_2  and  C_3
REMARK    3  A    between atoms: C_6  and  N_7
REMARK    4  A    between atoms: N_12  and  C_13
REMARK    5  A    between atoms: C_13  and  C_14
REMARK                            x       y       z     vdW  Elec       q    Type
REMARK                         _______ _______ _______ _____ _____    ______ ____
ROOT
ATOM      1  N   UNL     1       0.504  10.153  20.390  0.00  0.00    +0.000 N 
ATOM      2  C   UNL     1       0.505   9.465  21.583  0.00  0.00    +0.000 A 
ATOM      3  N   UNL     1       1.165   8.330  21.507  0.00  0.00    +0.000 NA
ATOM      4  C   UNL     1       1.597   8.266  20.200  0.00  0.00    +0.000 A 
ATOM      5  C   UNL     1       2.340   7.287  19.506  0.00  0.00    +0.000 A 
ATOM      6  N   UNL     1       2.727   6.099  20.123  0.00  0.00    +0.000 N 
ATOM      7  N   UNL     1       2.617   7.516  18.197  0.00  0.00    +0.000 NA
ATOM      8  C   UNL     1       2.156   8.648  17.625  0.00  0.00    +0.000 A 
ATOM      9  N   UNL     1       1.443   9.637  18.192  0.00  0.00    +0.000 NA
ATOM     10  C   UNL     1       1.194   9.386  19.487  0.00  0.00    +0.000 A 
ATOM     11  H   UNL     1       2.608   6.155  21.131  0.00  0.00    +0.000 HD
ENDROOT
BRANCH   1  15
ATOM     12  C   UNL     1       1.480  12.994  19.422  0.00  0.00    +0.000 C 
ATOM     13  C   UNL     1       0.735  13.684  20.578  0.00  0.00    +0.000 C 
ATOM     14  C   UNL     1       0.203  12.442  21.342  0.00  0.00    +0.000 C 
ATOM     15  C   UNL     1      -0.155  11.440  20.206  0.00  0.00    +0.000 C 
ATOM     16  C   UNL     1       0.222  12.260  18.939  0.00  0.00    +0.000 C 
ATOM     17  C   UNL     1      -0.803  13.410  18.757  0.00  0.00    +0.000 C 
ATOM     18  C   UNL     1      -0.490  14.355  19.928  0.00  0.00    +0.000 C 
ATOM     19 CL   UNL     1      -0.170  16.016  19.392  0.00  0.00    +0.000 Cl
BRANCH  12  20
ATOM     20  C   UNL     1       2.195  13.838  18.380  0.00  0.00    +0.000 C 
BRANCH  20  21
ATOM     21  O   UNL     1       2.537  13.009  17.279  0.00  0.00    +0.000 OA
ATOM     22  H   UNL     1       2.185  12.124  17.471  0.00  0.00    +0.000 HD
ENDBRANCH  20  21
ENDBRANCH  12  20
ENDBRANCH   1  15
BRANCH   6  23
ATOM     23  C   UNL     1       3.958   5.478  19.676  0.00  0.00    +0.000 C 
BRANCH  23  24
ATOM     24  C   UNL     1       3.645   4.105  19.129  0.00  0.00    +0.000 A 
ATOM     25  C   UNL     1       2.784   3.974  18.033  0.00  0.00    +0.000 A 
ATOM     26  C   UNL     1       2.530   2.710  17.527  0.00  0.00    +0.000 A 
ATOM     27  N   UNL     1       3.072   1.580  18.028  0.00  0.00    +0.000 NA
ATOM     28  C   UNL     1       3.899   1.726  19.086  0.00  0.00    +0.000 A 
ATOM     29  C   UNL     1       4.212   2.947  19.667  0.00  0.00    +0.000 A 
ENDBRANCH  23  24
ENDBRANCH   6  23
TORSDOF 5
ENDMDL
MODEL 9
REMARK VINA RESULT:      -7.5      0.799      1.020
REMARK  Name = 
REMARK  5 active torsions:
REMARK  status: ('A' for Active; 'I' for Inactive)
REMARK    1  A    between atoms: O_1  and  C_2
REMARK    2  A    between atoms: C_2  and  C_3
REMARK    3  A    between atoms: C_6  and  N_7
REMARK    4  A    between atoms: N_12  and  C_13
REMARK    5  A    between atoms: C_13  and  C_14
REMARK                            x       y       z     vdW  Elec       q    Type
REMARK                         _______ _______ _______ _____ _____    ______ ____
ROOT
ATOM      1  N   UNL     1       1.974   7.122  19.582  0.00  0.00    +0.000 N 
ATOM      2  C   UNL     1       1.523   7.099  20.884  0.00  0.00    +0.000 A 
ATOM      3  N   UNL     1       1.092   8.274  21.286  0.00  0.00    +0.000 NA
ATOM      4  C   UNL     1       1.288   9.106  20.204  0.00  0.00    +0.000 A 
ATOM      5  C   UNL     1       1.036  10.483  20.024  0.00  0.00    +0.000 A 
ATOM      6  N   UNL     1       0.550  11.273  21.063  0.00  0.00    +0.000 N 
ATOM      7  N   UNL     1       1.338  11.026  18.817  0.00  0.00    +0.000 NA
ATOM      8  C   UNL     1       1.877  10.235  17.866  0.00  0.00    +0.000 A 
ATOM      9  N   UNL     1       2.157   8.921  17.936  0.00  0.00    +0.000 NA
ATOM     10  C   UNL     1       1.838   8.412  19.136  0.00  0.00    +0.000 A 
ATOM     11  H   UNL     1       0.207  10.699  21.829  0.00  0.00    +0.000 HD
ENDROOT
BRANCH   1  15
ATOM     12  C   UNL     1       2.051   4.040  20.253  0.00  0.00    +0.000 C 
ATOM     13  C   UNL     1       3.532   3.950  19.844  0.00  0.00    +0.000 C 
ATOM     14  C   UNL     1       3.824   5.445  19.542  0.00  0.00    +0.000 C 
ATOM     15  C   UNL     1       2.501   5.951  18.894  0.00  0.00    +0.000 C 
ATOM     16  C   UNL     1       1.632   4.661  18.913  0.00  0.00    +0.000 C 
ATOM     17  C   UNL     1       2.195   3.656  17.874  0.00  0.00    +0.000 C 
ATOM     18  C   UNL     1       3.536   3.221  18.488  0.00  0.00    +0.000 C 
ATOM     19 CL   UNL     1       3.667   1.458  18.647  0.00  0.00    +0.000 Cl
BRANCH  12  20
ATOM     20  C   UNL     1       1.307   2.778  20.658  0.00  0.00    +0.000 C 
BRANCH  20  21
ATOM     21  O   UNL     1       1.676   2.439  21.987  0.00  0.00    +0.000 OA
ATOM     22  H   UNL     1       2.562   2.042  21.943  0.00  0.00    +0.000 HD
ENDBRANCH  20  21
ENDBRANCH  12  20
ENDBRANCH   1  15
BRANCH   6  23
ATOM     23  C   UNL     1      -0.284  12.405  20.715  0.00  0.00    +0.000 C 
BRANCH  23  24
ATOM     24  C   UNL     1      -1.102  12.802  21.922  0.00  0.00    +0.000 A 
ATOM     25  C   UNL     1      -0.722  13.914  22.683  0.00  0.00    +0.000 A 
ATOM     26  C   UNL     1      -1.499  14.280  23.770  0.00  0.00    +0.000 A 
ATOM     27  N   UNL     1      -2.619  13.628  24.143  0.00  0.00    +0.000 NA
ATOM     28  C   UNL     1      -2.970  12.557  23.397  0.00  0.00    +0.000 A 
ATOM     29  C   UNL     1      -2.256  12.109  22.295  0.00  0.00    +0.000 A 
ENDBRANCH  23  24
ENDBRANCH   6  23
TORSDOF 5
ENDMDL
