MODEL 1
REMARK VINA RESULT:      -8.5      0.000      0.000
REMARK  Name = 
REMARK  5 active torsions:
REMARK  status: ('A' for Active; 'I' for Inactive)
REMARK    1  A    between atoms: C_6  and  C_7
REMARK    2  A    between atoms: C_12  and  N_13
REMARK    3  A    between atoms: C_14  and  C_16
REMARK    4  A    between atoms: C_18  and  C_19
REMARK    5  A    between atoms: C_29  and  N_30
REMARK                            x       y       z     vdW  Elec       q    Type
REMARK                         _______ _______ _______ _____ _____    ______ ____
ROOT
ATOM      1  N   UNL     1       3.618   6.740  18.682  0.00  0.00    +0.000 N 
ATOM      2  C   UNL     1       2.441   7.408  18.357  0.00  0.00    +0.000 C 
ATOM      3  O   UNL     1       1.858   7.306  17.279  0.00  0.00    +0.000 OA
ATOM      4  H   UNL     1       3.841   6.669  19.676  0.00  0.00    +0.000 HD
ENDROOT
BRANCH   1  10
ATOM      5  C   UNL     1       4.234   4.561  17.666  0.00  0.00    +0.000 A 
ATOM      6  C   UNL     1       5.056   3.893  16.727  0.00  0.00    +0.000 A 
ATOM      7  C   UNL     1       5.988   4.593  15.980  0.00  0.00    +0.000 A 
ATOM      8  N   UNL     1       6.176   5.912  16.091  0.00  0.00    +0.000 NA
ATOM      9  C   UNL     1       5.375   6.560  16.974  0.00  0.00    +0.000 A 
ATOM     10  C   UNL     1       4.392   5.962  17.774  0.00  0.00    +0.000 A 
BRANCH   5  16
ATOM     11  N   UNL     1       2.545   2.960  21.782  0.00  0.00    +0.000 N 
ATOM     12  C   UNL     1       2.391   3.044  20.410  0.00  0.00    +0.000 A 
ATOM     13  N   UNL     1       1.233   2.634  19.902  0.00  0.00    +0.000 NA
ATOM     14  C   UNL     1       1.089   2.762  18.576  0.00  0.00    +0.000 A 
ATOM     15  C   UNL     1       2.050   3.308  17.763  0.00  0.00    +0.000 A 
ATOM     16  C   UNL     1       3.202   3.768  18.386  0.00  0.00    +0.000 A 
ATOM     17  N   UNL     1       3.382   3.615  19.716  0.00  0.00    +0.000 NA
ATOM     18  H   UNL     1       1.632   2.966  22.214  0.00  0.00    +0.000 HD
ATOM     19  H   UNL     1       3.202   3.664  22.088  0.00  0.00    +0.000 HD
ENDBRANCH   5  16
ENDBRANCH   1  10
BRANCH   2  20
ATOM     20  C   UNL     1       1.833   8.239  19.455  0.00  0.00    +0.000 A 
ATOM     21  N   UNL     1       1.529   9.524  19.107  0.00  0.00    +0.000 NA
ATOM     22  C   UNL     1       0.915  10.311  20.025  0.00  0.00    +0.000 A 
ATOM     23  C   UNL     1       0.616   9.828  21.299  0.00  0.00    +0.000 A 
ATOM     24  C   UNL     1       0.951   8.519  21.643  0.00  0.00    +0.000 A 
ATOM     25  C   UNL     1       1.609   7.695  20.732  0.00  0.00    +0.000 A 
BRANCH  22  26
ATOM     26  C   UNL     1       0.587  11.683  19.589  0.00  0.00    +0.000 A 
ATOM     27  C   UNL     1       1.286  12.815  20.043  0.00  0.00    +0.000 A 
ATOM     28  F   UNL     1       2.284  12.694  20.936  0.00  0.00    +0.000 F 
ATOM     29  C   UNL     1       0.985  14.110  19.610  0.00  0.00    +0.000 A 
ATOM     30  C   UNL     1      -0.049  14.317  18.708  0.00  0.00    +0.000 A 
ATOM     31  C   UNL     1      -0.772  13.224  18.245  0.00  0.00    +0.000 A 
ATOM     32  C   UNL     1      -0.455  11.934  18.680  0.00  0.00    +0.000 A 
ATOM     33  F   UNL     1      -1.182  10.926  18.170  0.00  0.00    +0.000 F 
ENDBRANCH  22  26
BRANCH  25  34
ATOM     34  N   UNL     1       1.814   6.355  21.086  0.00  0.00    +0.000 N 
ATOM     35  H   UNL     1       1.319   6.025  21.905  0.00  0.00    +0.000 HD
ATOM     36  H   UNL     1       2.793   6.060  21.039  0.00  0.00    +0.000 HD
ENDBRANCH  25  34
ENDBRANCH   2  20
TORSDOF 5
ENDMDL
MODEL 2
REMARK VINA RESULT:      -8.4      0.101      1.489
REMARK  Name = 
REMARK  5 active torsions:
REMARK  status: ('A' for Active; 'I' for Inactive)
REMARK    1  A    between atoms: C_6  and  C_7
REMARK    2  A    between atoms: C_12  and  N_13
REMARK    3  A    between atoms: C_14  and  C_16
REMARK    4  A    between atoms: C_18  and  C_19
REMARK    5  A    between atoms: C_29  and  N_30
REMARK                            x       y       z     vdW  Elec       q    Type
REMARK                         _______ _______ _______ _____ _____    ______ ____
ROOT
ATOM      1  N   UNL     1       3.689   6.760  18.666  0.00  0.00    +0.000 N 
ATOM      2  C   UNL     1       2.435   7.299  18.388  0.00  0.00    +0.000 C 
ATOM      3  O   UNL     1       1.790   7.068  17.367  0.00  0.00    +0.000 OA
ATOM      4  H   UNL     1       3.987   6.782  19.642  0.00  0.00    +0.000 HD
ENDROOT
BRANCH   1  10
ATOM      5  C   UNL     1       4.303   4.588  17.636  0.00  0.00    +0.000 A 
ATOM      6  C   UNL     1       5.128   3.925  16.696  0.00  0.00    +0.000 A 
ATOM      7  C   UNL     1       6.065   4.628  15.958  0.00  0.00    +0.000 A 
ATOM      8  N   UNL     1       6.256   5.945  16.081  0.00  0.00    +0.000 NA
ATOM      9  C   UNL     1       5.453   6.589  16.965  0.00  0.00    +0.000 A 
ATOM     10  C   UNL     1       4.465   5.988  17.756  0.00  0.00    +0.000 A 
BRANCH   5  16
ATOM     11  N   UNL     1       2.617   2.922  21.727  0.00  0.00    +0.000 N 
ATOM     12  C   UNL     1       2.457   3.037  20.358  0.00  0.00    +0.000 A 
ATOM     13  N   UNL     1       1.291   2.651  19.848  0.00  0.00    +0.000 NA
ATOM     14  C   UNL     1       1.142   2.808  18.525  0.00  0.00    +0.000 A 
ATOM     15  C   UNL     1       2.105   3.359  17.719  0.00  0.00    +0.000 A 
ATOM     16  C   UNL     1       3.266   3.793  18.345  0.00  0.00    +0.000 A 
ATOM     17  N   UNL     1       3.451   3.610  19.671  0.00  0.00    +0.000 NA
ATOM     18  H   UNL     1       1.706   2.930  22.164  0.00  0.00    +0.000 HD
ATOM     19  H   UNL     1       3.283   3.613  22.044  0.00  0.00    +0.000 HD
ENDBRANCH   5  16
ENDBRANCH   1  10
BRANCH   2  20
ATOM     20  C   UNL     1       1.833   8.153  19.472  0.00  0.00    +0.000 A 
ATOM     21  N   UNL     1       1.518   9.427  19.094  0.00  0.00    +0.000 NA
ATOM     22  C   UNL     1       0.908  10.233  19.999  0.00  0.00    +0.000 A 
ATOM     23  C   UNL     1       0.624   9.780  21.287  0.00  0.00    +0.000 A 
ATOM     24  C   UNL     1       0.970   8.482  21.660  0.00  0.00    +0.000 A 
ATOM     25  C   UNL     1       1.624   7.640  20.764  0.00  0.00    +0.000 A 
BRANCH  22  26
ATOM     26  C   UNL     1       0.568  11.593  19.532  0.00  0.00    +0.000 A 
ATOM     27  C   UNL     1      -0.473  11.848  18.623  0.00  0.00    +0.000 A 
ATOM     28  F   UNL     1      -1.196  10.841  18.105  0.00  0.00    +0.000 F 
ATOM     29  C   UNL     1      -0.804  13.140  18.202  0.00  0.00    +0.000 A 
ATOM     30  C   UNL     1      -0.085  14.229  18.673  0.00  0.00    +0.000 A 
ATOM     31  C   UNL     1       0.960  14.016  19.565  0.00  0.00    +0.000 A 
ATOM     32  C   UNL     1       1.276  12.720  19.983  0.00  0.00    +0.000 A 
ATOM     33  F   UNL     1       2.281  12.595  20.865  0.00  0.00    +0.000 F 
ENDBRANCH  22  26
BRANCH  25  34
ATOM     34  N   UNL     1       1.841   6.310  21.148  0.00  0.00    +0.000 N 
ATOM     35  H   UNL     1       1.495   5.597  20.517  0.00  0.00    +0.000 HD
ATOM     36  H   UNL     1       1.643   6.127  22.136  0.00  0.00    +0.000 HD
ENDBRANCH  25  34
ENDBRANCH   2  20
TORSDOF 5
ENDMDL
MODEL 3
REMARK VINA RESULT:      -8.4      2.467      4.890
REMARK  Name = 
REMARK  5 active torsions:
REMARK  status: ('A' for Active; 'I' for Inactive)
REMARK    1  A    between atoms: C_6  and  C_7
REMARK    2  A    between atoms: C_12  and  N_13
REMARK    3  A    between atoms: C_14  and  C_16
REMARK    4  A    between atoms: C_18  and  C_19
REMARK    5  A    between atoms: C_29  and  N_30
REMARK                            x       y       z     vdW  Elec       q    Type
REMARK                         _______ _______ _______ _____ _____    ______ ____
ROOT
ATOM      1  N   UNL     1       4.363   5.130  16.912  0.00  0.00    +0.000 N 
ATOM      2  C   UNL     1       4.200   4.327  18.038  0.00  0.00    +0.000 C 
ATOM      3  O   UNL     1       4.857   3.314  18.270  0.00  0.00    +0.000 OA
ATOM      4  H   UNL     1       3.985   6.077  16.970  0.00  0.00    +0.000 HD
ENDROOT
BRANCH   1  10
ATOM      5  C   UNL     1       6.568   5.192  15.775  0.00  0.00    +0.000 A 
ATOM      6  C   UNL     1       7.305   4.830  14.622  0.00  0.00    +0.000 A 
ATOM      7  C   UNL     1       6.693   4.170  13.569  0.00  0.00    +0.000 A 
ATOM      8  N   UNL     1       5.397   3.842  13.564  0.00  0.00    +0.000 NA
ATOM      9  C   UNL     1       4.691   4.168  14.676  0.00  0.00    +0.000 A 
ATOM     10  C   UNL     1       5.203   4.822  15.804  0.00  0.00    +0.000 A 
BRANCH   5  16
ATOM     11  N   UNL     1       8.144   9.163  17.799  0.00  0.00    +0.000 N 
ATOM     12  C   UNL     1       8.009   7.789  17.873  0.00  0.00    +0.000 A 
ATOM     13  N   UNL     1       8.311   7.209  19.031  0.00  0.00    +0.000 NA
ATOM     14  C   UNL     1       8.134   5.882  19.094  0.00  0.00    +0.000 A 
ATOM     15  C   UNL     1       7.644   5.137  18.052  0.00  0.00    +0.000 A 
ATOM     16  C   UNL     1       7.295   5.832  16.901  0.00  0.00    +0.000 A 
ATOM     17  N   UNL     1       7.499   7.164  16.805  0.00  0.00    +0.000 NA
ATOM     18  H   UNL     1       8.077   9.548  18.731  0.00  0.00    +0.000 HD
ATOM     19  H   UNL     1       7.503   9.524  17.106  0.00  0.00    +0.000 HD
ENDBRANCH   5  16
ENDBRANCH   1  10
BRANCH   2  20
ATOM     20  C   UNL     1       3.196   4.811  19.050  0.00  0.00    +0.000 A 
ATOM     21  N   UNL     1       2.904   6.143  18.981  0.00  0.00    +0.000 NA
ATOM     22  C   UNL     1       1.957   6.637  19.816  0.00  0.00    +0.000 A 
ATOM     23  C   UNL     1       1.308   5.812  20.734  0.00  0.00    +0.000 A 
ATOM     24  C   UNL     1       1.633   4.458  20.803  0.00  0.00    +0.000 A 
ATOM     25  C   UNL     1       2.623   3.926  19.980  0.00  0.00    +0.000 A 
BRANCH  22  26
ATOM     26  C   UNL     1       1.662   8.079  19.684  0.00  0.00    +0.000 A 
ATOM     27  C   UNL     1       1.799   8.776  18.471  0.00  0.00    +0.000 A 
ATOM     28  F   UNL     1       2.242   8.154  17.366  0.00  0.00    +0.000 F 
ATOM     29  C   UNL     1       1.497  10.136  18.347  0.00  0.00    +0.000 A 
ATOM     30  C   UNL     1       1.058  10.853  19.452  0.00  0.00    +0.000 A 
ATOM     31  C   UNL     1       0.922  10.201  20.672  0.00  0.00    +0.000 A 
ATOM     32  C   UNL     1       1.220   8.839  20.779  0.00  0.00    +0.000 A 
ATOM     33  F   UNL     1       1.040   8.273  21.984  0.00  0.00    +0.000 F 
ENDBRANCH  22  26
BRANCH  25  34
ATOM     34  N   UNL     1       2.826   2.540  20.005  0.00  0.00    +0.000 N 
ATOM     35  H   UNL     1       3.567   2.183  19.416  0.00  0.00    +0.000 HD
ATOM     36  H   UNL     1       1.960   1.994  19.967  0.00  0.00    +0.000 HD
ENDBRANCH  25  34
ENDBRANCH   2  20
TORSDOF 5
ENDMDL
MODEL 4
REMARK VINA RESULT:      -8.4      2.465      4.821
REMARK  Name = 
REMARK  5 active torsions:
REMARK  status: ('A' for Active; 'I' for Inactive)
REMARK    1  A    between atoms: C_6  and  C_7
REMARK    2  A    between atoms: C_12  and  N_13
REMARK    3  A    between atoms: C_14  and  C_16
REMARK    4  A    between atoms: C_18  and  C_19
REMARK    5  A    between atoms: C_29  and  N_30
REMARK                            x       y       z     vdW  Elec       q    Type
REMARK                         _______ _______ _______ _____ _____    ______ ____
ROOT
ATOM      1  N   UNL     1       4.357   5.133  16.915  0.00  0.00    +0.000 N 
ATOM      2  C   UNL     1       4.236   4.343  18.056  0.00  0.00    +0.000 C 
ATOM      3  O   UNL     1       4.929   3.357  18.296  0.00  0.00    +0.000 OA
ATOM      4  H   UNL     1       3.948   6.067  16.964  0.00  0.00    +0.000 HD
ENDROOT
BRANCH   1  10
ATOM      5  C   UNL     1       6.548   5.235  15.756  0.00  0.00    +0.000 A 
ATOM      6  C   UNL     1       7.282   4.880  14.598  0.00  0.00    +0.000 A 
ATOM      7  C   UNL     1       6.675   4.199  13.557  0.00  0.00    +0.000 A 
ATOM      8  N   UNL     1       5.387   3.841  13.568  0.00  0.00    +0.000 NA
ATOM      9  C   UNL     1       4.684   4.160  14.684  0.00  0.00    +0.000 A 
ATOM     10  C   UNL     1       5.192   4.835  15.802  0.00  0.00    +0.000 A 
BRANCH   5  16
ATOM     11  N   UNL     1       8.034   9.258  17.745  0.00  0.00    +0.000 N 
ATOM     12  C   UNL     1       7.941   7.881  17.825  0.00  0.00    +0.000 A 
ATOM     13  N   UNL     1       8.276   7.315  18.981  0.00  0.00    +0.000 NA
ATOM     14  C   UNL     1       8.140   5.984  19.050  0.00  0.00    +0.000 A 
ATOM     15  C   UNL     1       7.658   5.221  18.017  0.00  0.00    +0.000 A 
ATOM     16  C   UNL     1       7.272   5.901  16.870  0.00  0.00    +0.000 A 
ATOM     17  N   UNL     1       7.435   7.238  16.766  0.00  0.00    +0.000 NA
ATOM     18  H   UNL     1       7.968   9.645  18.676  0.00  0.00    +0.000 HD
ATOM     19  H   UNL     1       7.372   9.598  17.060  0.00  0.00    +0.000 HD
ENDBRANCH   5  16
ENDBRANCH   1  10
BRANCH   2  20
ATOM     20  C   UNL     1       3.229   4.810  19.074  0.00  0.00    +0.000 A 
ATOM     21  N   UNL     1       2.916   6.137  19.008  0.00  0.00    +0.000 NA
ATOM     22  C   UNL     1       1.965   6.616  19.848  0.00  0.00    +0.000 A 
ATOM     23  C   UNL     1       1.333   5.779  20.768  0.00  0.00    +0.000 A 
ATOM     24  C   UNL     1       1.680   4.430  20.833  0.00  0.00    +0.000 A 
ATOM     25  C   UNL     1       2.674   3.914  20.004  0.00  0.00    +0.000 A 
BRANCH  22  26
ATOM     26  C   UNL     1       1.647   8.053  19.720  0.00  0.00    +0.000 A 
ATOM     27  C   UNL     1       1.195   8.832  20.798  0.00  0.00    +0.000 A 
ATOM     28  F   UNL     1       0.999   8.283  22.009  0.00  0.00    +0.000 F 
ATOM     29  C   UNL     1       0.916  10.197  20.676  0.00  0.00    +0.000 A 
ATOM     30  C   UNL     1       1.070  10.829  19.450  0.00  0.00    +0.000 A 
ATOM     31  C   UNL     1       1.504  10.089  18.356  0.00  0.00    +0.000 A 
ATOM     32  C   UNL     1       1.786   8.727  18.495  0.00  0.00    +0.000 A 
ATOM     33  F   UNL     1       2.224   8.084  17.400  0.00  0.00    +0.000 F 
ENDBRANCH  22  26
BRANCH  25  34
ATOM     34  N   UNL     1       2.898   2.532  20.026  0.00  0.00    +0.000 N 
ATOM     35  H   UNL     1       2.940   2.097  20.940  0.00  0.00    +0.000 HD
ATOM     36  H   UNL     1       3.628   2.220  19.379  0.00  0.00    +0.000 HD
ENDBRANCH  25  34
ENDBRANCH   2  20
TORSDOF 5
ENDMDL
MODEL 5
REMARK VINA RESULT:      -8.3      2.473      4.725
REMARK  Name = 
REMARK  5 active torsions:
REMARK  status: ('A' for Active; 'I' for Inactive)
REMARK    1  A    between atoms: C_6  and  C_7
REMARK    2  A    between atoms: C_12  and  N_13
REMARK    3  A    between atoms: C_14  and  C_16
REMARK    4  A    between atoms: C_18  and  C_19
REMARK    5  A    between atoms: C_29  and  N_30
REMARK                            x       y       z     vdW  Elec       q    Type
REMARK                         _______ _______ _______ _____ _____    ______ ____
ROOT
ATOM      1  N   UNL     1       4.266   5.227  16.998  0.00  0.00    +0.000 N 
ATOM      2  C   UNL     1       4.171   4.496  18.181  0.00  0.00    +0.000 C 
ATOM      3  O   UNL     1       4.953   3.607  18.513  0.00  0.00    +0.000 OA
ATOM      4  H   UNL     1       3.757   6.112  16.969  0.00  0.00    +0.000 HD
ENDROOT
BRANCH   1  10
ATOM      5  C   UNL     1       6.508   5.455  15.961  0.00  0.00    +0.000 A 
ATOM      6  C   UNL     1       7.332   5.121  14.859  0.00  0.00    +0.000 A 
ATOM      7  C   UNL     1       6.837   4.366  13.809  0.00  0.00    +0.000 A 
ATOM      8  N   UNL     1       5.580   3.915  13.760  0.00  0.00    +0.000 NA
ATOM      9  C   UNL     1       4.792   4.214  14.823  0.00  0.00    +0.000 A 
ATOM     10  C   UNL     1       5.184   4.958  15.945  0.00  0.00    +0.000 A 
BRANCH   5  16
ATOM     11  N   UNL     1       8.497   5.345  20.248  0.00  0.00    +0.000 N 
ATOM     12  C   UNL     1       8.115   6.104  19.157  0.00  0.00    +0.000 A 
ATOM     13  N   UNL     1       8.541   7.363  19.114  0.00  0.00    +0.000 NA
ATOM     14  C   UNL     1       8.193   8.069  18.029  0.00  0.00    +0.000 A 
ATOM     15  C   UNL     1       7.465   7.546  16.991  0.00  0.00    +0.000 A 
ATOM     16  C   UNL     1       7.116   6.206  17.091  0.00  0.00    +0.000 A 
ATOM     17  N   UNL     1       7.425   5.486  18.192  0.00  0.00    +0.000 NA
ATOM     18  H   UNL     1       9.344   5.736  20.638  0.00  0.00    +0.000 HD
ATOM     19  H   UNL     1       8.523   4.369  19.983  0.00  0.00    +0.000 HD
ENDBRANCH   5  16
ENDBRANCH   1  10
BRANCH   2  20
ATOM     20  C   UNL     1       3.070   4.908  19.121  0.00  0.00    +0.000 A 
ATOM     21  N   UNL     1       2.803   6.247  19.145  0.00  0.00    +0.000 NA
ATOM     22  C   UNL     1       1.777   6.684  19.916  0.00  0.00    +0.000 A 
ATOM     23  C   UNL     1       1.022   5.793  20.679  0.00  0.00    +0.000 A 
ATOM     24  C   UNL     1       1.322   4.431  20.656  0.00  0.00    +0.000 A 
ATOM     25  C   UNL     1       2.388   3.955  19.897  0.00  0.00    +0.000 A 
BRANCH  22  26
ATOM     26  C   UNL     1       1.516   8.138  19.889  0.00  0.00    +0.000 A 
ATOM     27  C   UNL     1       1.505   8.887  18.700  0.00  0.00    +0.000 A 
ATOM     28  F   UNL     1       1.768   8.305  17.517  0.00  0.00    +0.000 F 
ATOM     29  C   UNL     1       1.236  10.259  18.678  0.00  0.00    +0.000 A 
ATOM     30  C   UNL     1       0.981  10.936  19.863  0.00  0.00    +0.000 A 
ATOM     31  C   UNL     1       0.996  10.231  21.061  0.00  0.00    +0.000 A 
ATOM     32  C   UNL     1       1.259   8.858  21.067  0.00  0.00    +0.000 A 
ATOM     33  F   UNL     1       1.231   8.241  22.260  0.00  0.00    +0.000 F 
ENDBRANCH  22  26
BRANCH  25  34
ATOM     34  N   UNL     1       2.570   2.568  19.814  0.00  0.00    +0.000 N 
ATOM     35  H   UNL     1       3.251   2.243  19.140  0.00  0.00    +0.000 HD
ATOM     36  H   UNL     1       1.695   2.035  19.818  0.00  0.00    +0.000 HD
ENDBRANCH  25  34
ENDBRANCH   2  20
TORSDOF 5
ENDMDL
MODEL 6
REMARK VINA RESULT:      -8.3      2.480      4.612
REMARK  Name = 
REMARK  5 active torsions:
REMARK  status: ('A' for Active; 'I' for Inactive)
REMARK    1  A    between atoms: C_6  and  C_7
REMARK    2  A    between atoms: C_12  and  N_13
REMARK    3  A    between atoms: C_14  and  C_16
REMARK    4  A    between atoms: C_18  and  C_19
REMARK    5  A    between atoms: C_29  and  N_30
REMARK                            x       y       z     vdW  Elec       q    Type
REMARK                         _______ _______ _______ _____ _____    ______ ____
ROOT
ATOM      1  N   UNL     1       4.273   5.232  17.017  0.00  0.00    +0.000 N 
ATOM      2  C   UNL     1       4.147   4.469  18.176  0.00  0.00    +0.000 C 
ATOM      3  O   UNL     1       4.898   3.546  18.486  0.00  0.00    +0.000 OA
ATOM      4  H   UNL     1       3.793   6.133  17.012  0.00  0.00    +0.000 HD
ENDROOT
BRANCH   1  10
ATOM      5  C   UNL     1       6.513   5.461  15.975  0.00  0.00    +0.000 A 
ATOM      6  C   UNL     1       7.334   5.129  14.871  0.00  0.00    +0.000 A 
ATOM      7  C   UNL     1       6.837   4.377  13.820  0.00  0.00    +0.000 A 
ATOM      8  N   UNL     1       5.579   3.927  13.772  0.00  0.00    +0.000 NA
ATOM      9  C   UNL     1       4.793   4.225  14.838  0.00  0.00    +0.000 A 
ATOM     10  C   UNL     1       5.189   4.965  15.961  0.00  0.00    +0.000 A 
BRANCH   5  16
ATOM     11  N   UNL     1       8.494   5.338  20.266  0.00  0.00    +0.000 N 
ATOM     12  C   UNL     1       8.119   6.099  19.175  0.00  0.00    +0.000 A 
ATOM     13  N   UNL     1       8.554   7.355  19.132  0.00  0.00    +0.000 NA
ATOM     14  C   UNL     1       8.213   8.063  18.046  0.00  0.00    +0.000 A 
ATOM     15  C   UNL     1       7.483   7.545  17.007  0.00  0.00    +0.000 A 
ATOM     16  C   UNL     1       7.124   6.207  17.106  0.00  0.00    +0.000 A 
ATOM     17  N   UNL     1       7.427   5.486  18.208  0.00  0.00    +0.000 NA
ATOM     18  H   UNL     1       9.343   5.722  20.658  0.00  0.00    +0.000 HD
ATOM     19  H   UNL     1       8.513   4.362  20.002  0.00  0.00    +0.000 HD
ENDBRANCH   5  16
ENDBRANCH   1  10
BRANCH   2  20
ATOM     20  C   UNL     1       3.054   4.889  19.123  0.00  0.00    +0.000 A 
ATOM     21  N   UNL     1       2.787   6.227  19.139  0.00  0.00    +0.000 NA
ATOM     22  C   UNL     1       1.768   6.671  19.916  0.00  0.00    +0.000 A 
ATOM     23  C   UNL     1       1.020   5.785  20.692  0.00  0.00    +0.000 A 
ATOM     24  C   UNL     1       1.319   4.424  20.676  0.00  0.00    +0.000 A 
ATOM     25  C   UNL     1       2.379   3.941  19.912  0.00  0.00    +0.000 A 
BRANCH  22  26
ATOM     26  C   UNL     1       1.507   8.124  19.879  0.00  0.00    +0.000 A 
ATOM     27  C   UNL     1       1.233   8.878  21.033  0.00  0.00    +0.000 A 
ATOM     28  F   UNL     1       1.165   8.289  22.239  0.00  0.00    +0.000 F 
ATOM     29  C   UNL     1       1.008  10.258  20.994  0.00  0.00    +0.000 A 
ATOM     30  C   UNL     1       1.036  10.932  19.781  0.00  0.00    +0.000 A 
ATOM     31  C   UNL     1       1.292  10.219  18.616  0.00  0.00    +0.000 A 
ATOM     32  C   UNL     1       1.523   8.840  18.670  0.00  0.00    +0.000 A 
ATOM     33  F   UNL     1       1.788   8.224  17.507  0.00  0.00    +0.000 F 
ENDBRANCH  22  26
BRANCH  25  34
ATOM     34  N   UNL     1       2.560   2.554  19.839  0.00  0.00    +0.000 N 
ATOM     35  H   UNL     1       2.570   2.054  20.719  0.00  0.00    +0.000 HD
ATOM     36  H   UNL     1       3.292   2.266  19.184  0.00  0.00    +0.000 HD
ENDBRANCH  25  34
ENDBRANCH   2  20
TORSDOF 5
ENDMDL
MODEL 7
REMARK VINA RESULT:      -8.3      0.977      1.363
REMARK  Name = 
REMARK  5 active torsions:
REMARK  status: ('A' for Active; 'I' for Inactive)
REMARK    1  A    between atoms: C_6  and  C_7
REMARK    2  A    between atoms: C_12  and  N_13
REMARK    3  A    between atoms: C_14  and  C_16
REMARK    4  A    between atoms: C_18  and  C_19
REMARK    5  A    between atoms: C_29  and  N_30
REMARK                            x       y       z     vdW  Elec       q    Type
REMARK                         _______ _______ _______ _____ _____    ______ ____
ROOT
ATOM      1  N   UNL     1       3.785   6.798  18.121  0.00  0.00    +0.000 N 
ATOM      2  C   UNL     1       2.402   6.943  18.187  0.00  0.00    +0.000 C 
ATOM      3  O   UNL     1       1.605   6.356  17.457  0.00  0.00    +0.000 OA
ATOM      4  H   UNL     1       4.313   7.092  18.944  0.00  0.00    +0.000 HD
ENDROOT
BRANCH   1  10
ATOM      5  C   UNL     1       4.641   4.666  17.183  0.00  0.00    +0.000 A 
ATOM      6  C   UNL     1       5.350   4.049  16.124  0.00  0.00    +0.000 A 
ATOM      7  C   UNL     1       5.882   4.806  15.094  0.00  0.00    +0.000 A 
ATOM      8  N   UNL     1       5.771   6.137  15.030  0.00  0.00    +0.000 NA
ATOM      9  C   UNL     1       5.074   6.731  16.031  0.00  0.00    +0.000 A 
ATOM     10  C   UNL     1       4.482   6.070  17.115  0.00  0.00    +0.000 A 
BRANCH   5  16
ATOM     11  N   UNL     1       1.088   1.819  18.457  0.00  0.00    +0.000 N 
ATOM     12  C   UNL     1       2.305   2.386  18.786  0.00  0.00    +0.000 A 
ATOM     13  N   UNL     1       2.923   1.915  19.866  0.00  0.00    +0.000 NA
ATOM     14  C   UNL     1       4.120   2.450  20.144  0.00  0.00    +0.000 A 
ATOM     15  C   UNL     1       4.717   3.408  19.364  0.00  0.00    +0.000 A 
ATOM     16  C   UNL     1       4.031   3.795  18.221  0.00  0.00    +0.000 A 
ATOM     17  N   UNL     1       2.807   3.295  17.942  0.00  0.00    +0.000 NA
ATOM     18  H   UNL     1       1.042   0.890  18.853  0.00  0.00    +0.000 HD
ATOM     19  H   UNL     1       0.941   1.900  17.460  0.00  0.00    +0.000 HD
ENDBRANCH   5  16
ENDBRANCH   1  10
BRANCH   2  20
ATOM     20  C   UNL     1       1.887   7.827  19.292  0.00  0.00    +0.000 A 
ATOM     21  N   UNL     1       1.483   9.070  18.896  0.00  0.00    +0.000 NA
ATOM     22  C   UNL     1       0.943   9.897  19.826  0.00  0.00    +0.000 A 
ATOM     23  C   UNL     1       0.817   9.496  21.156  0.00  0.00    +0.000 A 
ATOM     24  C   UNL     1       1.251   8.229  21.545  0.00  0.00    +0.000 A 
ATOM     25  C   UNL     1       1.838   7.368  20.620  0.00  0.00    +0.000 A 
BRANCH  22  26
ATOM     26  C   UNL     1       0.502  11.220  19.341  0.00  0.00    +0.000 A 
ATOM     27  C   UNL     1       1.216  12.403  19.598  0.00  0.00    +0.000 A 
ATOM     28  F   UNL     1       2.337  12.382  20.339  0.00  0.00    +0.000 F 
ATOM     29  C   UNL     1       0.805  13.650  19.118  0.00  0.00    +0.000 A 
ATOM     30  C   UNL     1      -0.358  13.756  18.367  0.00  0.00    +0.000 A 
ATOM     31  C   UNL     1      -1.098  12.610  18.101  0.00  0.00    +0.000 A 
ATOM     32  C   UNL     1      -0.671  11.368  18.582  0.00  0.00    +0.000 A 
ATOM     33  F   UNL     1      -1.425  10.303  18.263  0.00  0.00    +0.000 F 
ENDBRANCH  22  26
BRANCH  25  34
ATOM     34  N   UNL     1       2.146   6.066  21.036  0.00  0.00    +0.000 N 
ATOM     35  H   UNL     1       2.278   5.931  22.031  0.00  0.00    +0.000 HD
ATOM     36  H   UNL     1       2.847   5.600  20.453  0.00  0.00    +0.000 HD
ENDBRANCH  25  34
ENDBRANCH   2  20
TORSDOF 5
ENDMDL
MODEL 8
REMARK VINA RESULT:      -8.3      0.921      1.981
REMARK  Name = 
REMARK  5 active torsions:
REMARK  status: ('A' for Active; 'I' for Inactive)
REMARK    1  A    between atoms: C_6  and  C_7
REMARK    2  A    between atoms: C_12  and  N_13
REMARK    3  A    between atoms: C_14  and  C_16
REMARK    4  A    between atoms: C_18  and  C_19
REMARK    5  A    between atoms: C_29  and  N_30
REMARK                            x       y       z     vdW  Elec       q    Type
REMARK                         _______ _______ _______ _____ _____    ______ ____
ROOT
ATOM      1  N   UNL     1       3.791   6.770  18.189  0.00  0.00    +0.000 N 
ATOM      2  C   UNL     1       2.414   6.980  18.193  0.00  0.00    +0.000 C 
ATOM      3  O   UNL     1       1.628   6.453  17.408  0.00  0.00    +0.000 OA
ATOM      4  H   UNL     1       4.290   7.015  19.045  0.00  0.00    +0.000 HD
ENDROOT
BRANCH   1  10
ATOM      5  C   UNL     1       4.644   4.632  17.262  0.00  0.00    +0.000 A 
ATOM      6  C   UNL     1       5.369   4.012  16.216  0.00  0.00    +0.000 A 
ATOM      7  C   UNL     1       5.931   4.767  15.201  0.00  0.00    +0.000 A 
ATOM      8  N   UNL     1       5.836   6.099  15.139  0.00  0.00    +0.000 NA
ATOM      9  C   UNL     1       5.123   6.696  16.127  0.00  0.00    +0.000 A 
ATOM     10  C   UNL     1       4.501   6.038  17.196  0.00  0.00    +0.000 A 
BRANCH   5  16
ATOM     11  N   UNL     1       0.924   2.008  18.540  0.00  0.00    +0.000 N 
ATOM     12  C   UNL     1       2.192   2.466  18.849  0.00  0.00    +0.000 A 
ATOM     13  N   UNL     1       2.806   1.902  19.885  0.00  0.00    +0.000 NA
ATOM     14  C   UNL     1       4.049   2.331  20.142  0.00  0.00    +0.000 A 
ATOM     15  C   UNL     1       4.693   3.275  19.383  0.00  0.00    +0.000 A 
ATOM     16  C   UNL     1       4.002   3.764  18.283  0.00  0.00    +0.000 A 
ATOM     17  N   UNL     1       2.734   3.371  18.027  0.00  0.00    +0.000 NA
ATOM     18  H   UNL     1       0.820   1.069  18.898  0.00  0.00    +0.000 HD
ATOM     19  H   UNL     1       0.751   2.145  17.554  0.00  0.00    +0.000 HD
ENDBRANCH   5  16
ENDBRANCH   1  10
BRANCH   2  20
ATOM     20  C   UNL     1       1.887   7.856  19.299  0.00  0.00    +0.000 A 
ATOM     21  N   UNL     1       1.483   9.099  18.907  0.00  0.00    +0.000 NA
ATOM     22  C   UNL     1       0.932   9.919  19.837  0.00  0.00    +0.000 A 
ATOM     23  C   UNL     1       0.796   9.510  21.163  0.00  0.00    +0.000 A 
ATOM     24  C   UNL     1       1.232   8.243  21.549  0.00  0.00    +0.000 A 
ATOM     25  C   UNL     1       1.829   7.389  20.624  0.00  0.00    +0.000 A 
BRANCH  22  26
ATOM     26  C   UNL     1       0.491  11.244  19.355  0.00  0.00    +0.000 A 
ATOM     27  C   UNL     1      -0.642  11.420  18.542  0.00  0.00    +0.000 A 
ATOM     28  F   UNL     1      -1.367  10.365  18.134  0.00  0.00    +0.000 F 
ATOM     29  C   UNL     1      -1.067  12.679  18.107  0.00  0.00    +0.000 A 
ATOM     30  C   UNL     1      -0.354  13.815  18.466  0.00  0.00    +0.000 A 
ATOM     31  C   UNL     1       0.779  13.680  19.260  0.00  0.00    +0.000 A 
ATOM     32  C   UNL     1       1.188  12.415  19.694  0.00  0.00    +0.000 A 
ATOM     33  F   UNL     1       2.277  12.367  20.478  0.00  0.00    +0.000 F 
ENDBRANCH  22  26
BRANCH  25  34
ATOM     34  N   UNL     1       2.138   6.086  21.035  0.00  0.00    +0.000 N 
ATOM     35  H   UNL     1       1.475   5.642  21.658  0.00  0.00    +0.000 HD
ATOM     36  H   UNL     1       3.118   5.958  21.303  0.00  0.00    +0.000 HD
ENDBRANCH  25  34
ENDBRANCH   2  20
TORSDOF 5
ENDMDL
MODEL 9
REMARK VINA RESULT:      -8.1      2.119      4.132
REMARK  Name = 
REMARK  5 active torsions:
REMARK  status: ('A' for Active; 'I' for Inactive)
REMARK    1  A    between atoms: C_6  and  C_7
REMARK    2  A    between atoms: C_12  and  N_13
REMARK    3  A    between atoms: C_14  and  C_16
REMARK    4  A    between atoms: C_18  and  C_19
REMARK    5  A    between atoms: C_29  and  N_30
REMARK                            x       y       z     vdW  Elec       q    Type
REMARK                         _______ _______ _______ _____ _____    ______ ____
ROOT
ATOM      1  N   UNL     1       2.371   5.586  18.386  0.00  0.00    +0.000 N 
ATOM      2  C   UNL     1       2.319   6.445  19.481  0.00  0.00    +0.000 C 
ATOM      3  O   UNL     1       2.601   6.121  20.633  0.00  0.00    +0.000 OA
ATOM      4  H   UNL     1       2.405   6.025  17.465  0.00  0.00    +0.000 HD
ENDROOT
BRANCH   1  10
ATOM      5  C   UNL     1       3.890   3.632  18.202  0.00  0.00    +0.000 A 
ATOM      6  C   UNL     1       4.013   2.226  18.307  0.00  0.00    +0.000 A 
ATOM      7  C   UNL     1       2.916   1.442  18.621  0.00  0.00    +0.000 A 
ATOM      8  N   UNL     1       1.695   1.942  18.836  0.00  0.00    +0.000 NA
ATOM      9  C   UNL     1       1.576   3.291  18.757  0.00  0.00    +0.000 A 
ATOM     10  C   UNL     1       2.614   4.185  18.460  0.00  0.00    +0.000 A 
BRANCH   5  16
ATOM     11  N   UNL     1       7.900   5.509  19.858  0.00  0.00    +0.000 N 
ATOM     12  C   UNL     1       7.077   5.288  18.770  0.00  0.00    +0.000 A 
ATOM     13  N   UNL     1       7.567   5.581  17.568  0.00  0.00    +0.000 NA
ATOM     14  C   UNL     1       6.768   5.321  16.524  0.00  0.00    +0.000 A 
ATOM     15  C   UNL     1       5.523   4.759  16.649  0.00  0.00    +0.000 A 
ATOM     16  C   UNL     1       5.117   4.427  17.934  0.00  0.00    +0.000 A 
ATOM     17  N   UNL     1       5.892   4.713  19.004  0.00  0.00    +0.000 NA
ATOM     18  H   UNL     1       8.863   5.490  19.550  0.00  0.00    +0.000 HD
ATOM     19  H   UNL     1       7.645   4.875  20.604  0.00  0.00    +0.000 HD
ENDBRANCH   5  16
ENDBRANCH   1  10
BRANCH   2  20
ATOM     20  C   UNL     1       1.966   7.876  19.176  0.00  0.00    +0.000 A 
ATOM     21  N   UNL     1       1.142   8.474  20.086  0.00  0.00    +0.000 NA
ATOM     22  C   UNL     1       0.836   9.784  19.913  0.00  0.00    +0.000 A 
ATOM     23  C   UNL     1       1.337  10.500  18.825  0.00  0.00    +0.000 A 
ATOM     24  C   UNL     1       2.161   9.868  17.896  0.00  0.00    +0.000 A 
ATOM     25  C   UNL     1       2.469   8.516  18.029  0.00  0.00    +0.000 A 
BRANCH  22  26
ATOM     26  C   UNL     1      -0.039  10.388  20.938  0.00  0.00    +0.000 A 
ATOM     27  C   UNL     1      -0.974  11.396  20.644  0.00  0.00    +0.000 A 
ATOM     28  F   UNL     1      -1.090  11.883  19.397  0.00  0.00    +0.000 F 
ATOM     29  C   UNL     1      -1.815  11.949  21.614  0.00  0.00    +0.000 A 
ATOM     30  C   UNL     1      -1.735  11.515  22.931  0.00  0.00    +0.000 A 
ATOM     31  C   UNL     1      -0.814  10.528  23.263  0.00  0.00    +0.000 A 
ATOM     32  C   UNL     1       0.016   9.979  22.281  0.00  0.00    +0.000 A 
ATOM     33  F   UNL     1       0.862   9.013  22.673  0.00  0.00    +0.000 F 
ENDBRANCH  22  26
BRANCH  25  34
ATOM     34  N   UNL     1       3.397   7.961  17.138  0.00  0.00    +0.000 N 
ATOM     35  H   UNL     1       4.221   7.541  17.549  0.00  0.00    +0.000 HD
ATOM     36  H   UNL     1       3.588   8.547  16.321  0.00  0.00    +0.000 HD
ENDBRANCH  25  34
ENDBRANCH   2  20
TORSDOF 5
ENDMDL
