MODEL 1
REMARK VINA RESULT:      -8.5      0.000      0.000
REMARK  Name = 
REMARK  1 active torsions:
REMARK  status: ('A' for Active; 'I' for Inactive)
REMARK    1  A    between atoms: C_4  and  C_5
REMARK                            x       y       z     vdW  Elec       q    Type
REMARK                         _______ _______ _______ _____ _____    ______ ____
ROOT
ATOM      1  N   UNL     1       6.309   3.400  13.775  0.00  0.00    +0.000 N 
ATOM      2  C   UNL     1       6.298   4.160  14.926  0.00  0.00    +0.000 A 
ATOM      3  N   UNL     1       5.420   3.799  15.872  0.00  0.00    +0.000 NA
ATOM      4  C   UNL     1       5.397   4.492  17.040  0.00  0.00    +0.000 A 
ATOM      5  C   UNL     1       6.264   5.561  17.221  0.00  0.00    +0.000 A 
ATOM      6  C   UNL     1       6.625   6.511  18.199  0.00  0.00    +0.000 A 
ATOM      7  N   UNL     1       7.603   7.331  17.791  0.00  0.00    +0.000 NA
ATOM      8  N   UNL     1       7.872   6.892  16.543  0.00  0.00    +0.000 N 
ATOM      9  C   UNL     1       7.097   5.836  16.155  0.00  0.00    +0.000 A 
ATOM     10  N   UNL     1       7.155   5.188  14.984  0.00  0.00    +0.000 NA
ATOM     11  H   UNL     1       5.423   2.931  13.651  0.00  0.00    +0.000 HD
ATOM     12  H   UNL     1       6.676   3.929  12.998  0.00  0.00    +0.000 HD
ATOM     13  H   UNL     1       8.603   7.341  16.007  0.00  0.00    +0.000 HD
ENDROOT
BRANCH   4  14
ATOM     14  C   UNL     1       4.495   4.017  18.066  0.00  0.00    +0.000 A 
ATOM     15  C   UNL     1       4.702   3.442  19.305  0.00  0.00    +0.000 A 
ATOM     16  C   UNL     1       3.425   3.241  19.887  0.00  0.00    +0.000 A 
ATOM     17  C   UNL     1       2.947   2.739  21.109  0.00  0.00    +0.000 A 
ATOM     18  C   UNL     1       1.561   2.701  21.323  0.00  0.00    +0.000 A 
ATOM     19  C   UNL     1       0.669   3.149  20.345  0.00  0.00    +0.000 A 
ATOM     20  C   UNL     1       1.127   3.656  19.125  0.00  0.00    +0.000 A 
ATOM     21  C   UNL     1       2.507   3.685  18.944  0.00  0.00    +0.000 A 
ATOM     22  O   UNL     1       3.153   4.152  17.841  0.00  0.00    +0.000 OA
ENDBRANCH   4  14
TORSDOF 1
ENDMDL
MODEL 2
REMARK VINA RESULT:      -8.5      0.611      1.365
REMARK  Name = 
REMARK  1 active torsions:
REMARK  status: ('A' for Active; 'I' for Inactive)
REMARK    1  A    between atoms: C_4  and  C_5
REMARK                            x       y       z     vdW  Elec       q    Type
REMARK                         _______ _______ _______ _____ _____    ______ ____
ROOT
ATOM      1  N   UNL     1       6.257   3.341  13.662  0.00  0.00    +0.000 N 
ATOM      2  C   UNL     1       6.206   4.140  14.785  0.00  0.00    +0.000 A 
ATOM      3  N   UNL     1       5.211   3.892  15.649  0.00  0.00    +0.000 NA
ATOM      4  C   UNL     1       5.139   4.625  16.790  0.00  0.00    +0.000 A 
ATOM      5  C   UNL     1       6.080   5.618  17.027  0.00  0.00    +0.000 A 
ATOM      6  C   UNL     1       6.431   6.567  18.011  0.00  0.00    +0.000 A 
ATOM      7  N   UNL     1       7.515   7.281  17.680  0.00  0.00    +0.000 NA
ATOM      8  N   UNL     1       7.861   6.776  16.477  0.00  0.00    +0.000 N 
ATOM      9  C   UNL     1       7.033   5.781  16.042  0.00  0.00    +0.000 A 
ATOM     10  N   UNL     1       7.144   5.088  14.900  0.00  0.00    +0.000 NA
ATOM     11  H   UNL     1       5.347   2.949  13.463  0.00  0.00    +0.000 HD
ATOM     12  H   UNL     1       6.744   3.808  12.912  0.00  0.00    +0.000 HD
ATOM     13  H   UNL     1       8.678   7.139  16.005  0.00  0.00    +0.000 HD
ENDROOT
BRANCH   4  14
ATOM     14  C   UNL     1       4.102   4.269  17.734  0.00  0.00    +0.000 A 
ATOM     15  C   UNL     1       2.726   4.382  17.703  0.00  0.00    +0.000 A 
ATOM     16  C   UNL     1       2.236   3.803  18.900  0.00  0.00    +0.000 A 
ATOM     17  C   UNL     1       0.967   3.575  19.459  0.00  0.00    +0.000 A 
ATOM     18  C   UNL     1       0.888   2.948  20.712  0.00  0.00    +0.000 A 
ATOM     19  C   UNL     1       2.042   2.559  21.397  0.00  0.00    +0.000 A 
ATOM     20  C   UNL     1       3.313   2.774  20.854  0.00  0.00    +0.000 A 
ATOM     21  C   UNL     1       3.359   3.393  19.608  0.00  0.00    +0.000 A 
ATOM     22  O   UNL     1       4.489   3.677  18.904  0.00  0.00    +0.000 OA
ENDBRANCH   4  14
TORSDOF 1
ENDMDL
MODEL 3
REMARK VINA RESULT:      -8.4      1.165      2.859
REMARK  Name = 
REMARK  1 active torsions:
REMARK  status: ('A' for Active; 'I' for Inactive)
REMARK    1  A    between atoms: C_4  and  C_5
REMARK                            x       y       z     vdW  Elec       q    Type
REMARK                         _______ _______ _______ _____ _____    ______ ____
ROOT
ATOM      1  N   UNL     1       7.938   7.604  18.223  0.00  0.00    +0.000 N 
ATOM      2  C   UNL     1       7.295   6.669  17.438  0.00  0.00    +0.000 A 
ATOM      3  N   UNL     1       6.219   6.076  17.976  0.00  0.00    +0.000 NA
ATOM      4  C   UNL     1       5.527   5.177  17.229  0.00  0.00    +0.000 A 
ATOM      5  C   UNL     1       5.955   4.882  15.942  0.00  0.00    +0.000 A 
ATOM      6  C   UNL     1       5.585   4.096  14.830  0.00  0.00    +0.000 A 
ATOM      7  N   UNL     1       6.418   4.242  13.791  0.00  0.00    +0.000 NA
ATOM      8  N   UNL     1       7.322   5.136  14.244  0.00  0.00    +0.000 N 
ATOM      9  C   UNL     1       7.090   5.548  15.525  0.00  0.00    +0.000 A 
ATOM     10  N   UNL     1       7.809   6.437  16.223  0.00  0.00    +0.000 NA
ATOM     11  H   UNL     1       7.746   7.438  19.201  0.00  0.00    +0.000 HD
ATOM     12  H   UNL     1       8.902   7.706  17.941  0.00  0.00    +0.000 HD
ATOM     13  H   UNL     1       8.067   5.440  13.632  0.00  0.00    +0.000 HD
ENDROOT
BRANCH   4  14
ATOM     14  C   UNL     1       4.326   4.625  17.815  0.00  0.00    +0.000 A 
ATOM     15  C   UNL     1       3.352   3.772  17.331  0.00  0.00    +0.000 A 
ATOM     16  C   UNL     1       2.443   3.537  18.393  0.00  0.00    +0.000 A 
ATOM     17  C   UNL     1       1.283   2.765  18.569  0.00  0.00    +0.000 A 
ATOM     18  C   UNL     1       0.639   2.793  19.815  0.00  0.00    +0.000 A 
ATOM     19  C   UNL     1       1.134   3.574  20.864  0.00  0.00    +0.000 A 
ATOM     20  C   UNL     1       2.291   4.346  20.708  0.00  0.00    +0.000 A 
ATOM     21  C   UNL     1       2.909   4.292  19.462  0.00  0.00    +0.000 A 
ATOM     22  O   UNL     1       4.047   4.953  19.113  0.00  0.00    +0.000 OA
ENDBRANCH   4  14
TORSDOF 1
ENDMDL
MODEL 4
REMARK VINA RESULT:      -8.3      0.762      2.584
REMARK  Name = 
REMARK  1 active torsions:
REMARK  status: ('A' for Active; 'I' for Inactive)
REMARK    1  A    between atoms: C_4  and  C_5
REMARK                            x       y       z     vdW  Elec       q    Type
REMARK                         _______ _______ _______ _____ _____    ______ ____
ROOT
ATOM      1  N   UNL     1       8.039   7.743  18.118  0.00  0.00    +0.000 N 
ATOM      2  C   UNL     1       7.366   6.703  17.512  0.00  0.00    +0.000 A 
ATOM      3  N   UNL     1       6.471   6.049  18.266  0.00  0.00    +0.000 NA
ATOM      4  C   UNL     1       5.755   5.042  17.704  0.00  0.00    +0.000 A 
ATOM      5  C   UNL     1       5.974   4.703  16.376  0.00  0.00    +0.000 A 
ATOM      6  C   UNL     1       5.495   3.814  15.391  0.00  0.00    +0.000 A 
ATOM      7  N   UNL     1       6.110   3.967  14.210  0.00  0.00    +0.000 NA
ATOM      8  N   UNL     1       6.983   4.970  14.445  0.00  0.00    +0.000 N 
ATOM      9  C   UNL     1       6.941   5.442  15.726  0.00  0.00    +0.000 A 
ATOM     10  N   UNL     1       7.677   6.440  16.236  0.00  0.00    +0.000 NA
ATOM     11  H   UNL     1       8.043   7.626  19.122  0.00  0.00    +0.000 HD
ATOM     12  H   UNL     1       8.921   7.916  17.660  0.00  0.00    +0.000 HD
ATOM     13  H   UNL     1       7.571   5.300  13.692  0.00  0.00    +0.000 HD
ENDROOT
BRANCH   4  14
ATOM     14  C   UNL     1       4.741   4.420  18.527  0.00  0.00    +0.000 A 
ATOM     15  C   UNL     1       4.802   3.506  19.561  0.00  0.00    +0.000 A 
ATOM     16  C   UNL     1       3.476   3.314  20.024  0.00  0.00    +0.000 A 
ATOM     17  C   UNL     1       2.867   2.560  21.040  0.00  0.00    +0.000 A 
ATOM     18  C   UNL     1       1.474   2.640  21.193  0.00  0.00    +0.000 A 
ATOM     19  C   UNL     1       0.703   3.447  20.353  0.00  0.00    +0.000 A 
ATOM     20  C   UNL     1       1.293   4.208  19.338  0.00  0.00    +0.000 A 
ATOM     21  C   UNL     1       2.676   4.112  19.215  0.00  0.00    +0.000 A 
ATOM     22  O   UNL     1       3.440   4.780  18.308  0.00  0.00    +0.000 OA
ENDBRANCH   4  14
TORSDOF 1
ENDMDL
MODEL 5
REMARK VINA RESULT:      -8.2      1.000      2.911
REMARK  Name = 
REMARK  1 active torsions:
REMARK  status: ('A' for Active; 'I' for Inactive)
REMARK    1  A    between atoms: C_4  and  C_5
REMARK                            x       y       z     vdW  Elec       q    Type
REMARK                         _______ _______ _______ _____ _____    ______ ____
ROOT
ATOM      1  N   UNL     1       7.854   7.921  17.911  0.00  0.00    +0.000 N 
ATOM      2  C   UNL     1       7.195   6.831  17.380  0.00  0.00    +0.000 A 
ATOM      3  N   UNL     1       6.197   6.321  18.115  0.00  0.00    +0.000 NA
ATOM      4  C   UNL     1       5.491   5.271  17.619  0.00  0.00    +0.000 A 
ATOM      5  C   UNL     1       5.826   4.745  16.379  0.00  0.00    +0.000 A 
ATOM      6  C   UNL     1       5.405   3.747  15.475  0.00  0.00    +0.000 A 
ATOM      7  N   UNL     1       6.141   3.715  14.357  0.00  0.00    +0.000 NA
ATOM      8  N   UNL     1       7.035   4.708  14.548  0.00  0.00    +0.000 N 
ATOM      9  C   UNL     1       6.889   5.353  15.743  0.00  0.00    +0.000 A 
ATOM     10  N   UNL     1       7.618   6.384  16.191  0.00  0.00    +0.000 NA
ATOM     11  H   UNL     1       7.751   7.942  18.916  0.00  0.00    +0.000 HD
ATOM     12  H   UNL     1       8.785   7.997  17.530  0.00  0.00    +0.000 HD
ATOM     13  H   UNL     1       7.712   4.910  13.825  0.00  0.00    +0.000 HD
ENDROOT
BRANCH   4  14
ATOM     14  C   UNL     1       4.370   4.806  18.405  0.00  0.00    +0.000 A 
ATOM     15  C   UNL     1       3.020   5.097  18.378  0.00  0.00    +0.000 A 
ATOM     16  C   UNL     1       2.400   4.280  19.357  0.00  0.00    +0.000 A 
ATOM     17  C   UNL     1       1.085   4.071  19.804  0.00  0.00    +0.000 A 
ATOM     18  C   UNL     1       0.864   3.142  20.832  0.00  0.00    +0.000 A 
ATOM     19  C   UNL     1       1.926   2.438  21.406  0.00  0.00    +0.000 A 
ATOM     20  C   UNL     1       3.242   2.630  20.971  0.00  0.00    +0.000 A 
ATOM     21  C   UNL     1       3.428   3.554  19.947  0.00  0.00    +0.000 A 
ATOM     22  O   UNL     1       4.620   3.873  19.374  0.00  0.00    +0.000 OA
ENDBRANCH   4  14
TORSDOF 1
ENDMDL
MODEL 6
REMARK VINA RESULT:      -8.0      4.720      6.030
REMARK  Name = 
REMARK  1 active torsions:
REMARK  status: ('A' for Active; 'I' for Inactive)
REMARK    1  A    between atoms: C_4  and  C_5
REMARK                            x       y       z     vdW  Elec       q    Type
REMARK                         _______ _______ _______ _____ _____    ______ ____
ROOT
ATOM      1  N   UNL     1       1.389   2.673  21.954  0.00  0.00    +0.000 N 
ATOM      2  C   UNL     1       2.244   3.335  21.097  0.00  0.00    +0.000 A 
ATOM      3  N   UNL     1       1.886   4.575  20.735  0.00  0.00    +0.000 NA
ATOM      4  C   UNL     1       2.713   5.284  19.924  0.00  0.00    +0.000 A 
ATOM      5  C   UNL     1       3.895   4.707  19.477  0.00  0.00    +0.000 A 
ATOM      6  C   UNL     1       5.028   5.022  18.699  0.00  0.00    +0.000 A 
ATOM      7  N   UNL     1       5.908   4.014  18.632  0.00  0.00    +0.000 NA
ATOM      8  N   UNL     1       5.332   3.052  19.383  0.00  0.00    +0.000 N 
ATOM      9  C   UNL     1       4.126   3.416  19.909  0.00  0.00    +0.000 A 
ATOM     10  N   UNL     1       3.341   2.675  20.703  0.00  0.00    +0.000 NA
ATOM     11  H   UNL     1       0.456   3.053  21.886  0.00  0.00    +0.000 HD
ATOM     12  H   UNL     1       1.499   1.674  21.869  0.00  0.00    +0.000 HD
ATOM     13  H   UNL     1       5.813   2.172  19.513  0.00  0.00    +0.000 HD
ENDROOT
BRANCH   4  14
ATOM     14  C   UNL     1       2.330   6.646  19.626  0.00  0.00    +0.000 A 
ATOM     15  C   UNL     1       2.440   7.425  18.491  0.00  0.00    +0.000 A 
ATOM     16  C   UNL     1       1.830   8.671  18.783  0.00  0.00    +0.000 A 
ATOM     17  C   UNL     1       1.584   9.859  18.074  0.00  0.00    +0.000 A 
ATOM     18  C   UNL     1       0.927  10.910  18.732  0.00  0.00    +0.000 A 
ATOM     19  C   UNL     1       0.525  10.786  20.065  0.00  0.00    +0.000 A 
ATOM     20  C   UNL     1       0.758   9.609  20.785  0.00  0.00    +0.000 A 
ATOM     21  C   UNL     1       1.407   8.583  20.103  0.00  0.00    +0.000 A 
ATOM     22  O   UNL     1       1.712   7.360  20.616  0.00  0.00    +0.000 OA
ENDBRANCH   4  14
TORSDOF 1
ENDMDL
MODEL 7
REMARK VINA RESULT:      -7.9      1.093      1.152
REMARK  Name = 
REMARK  1 active torsions:
REMARK  status: ('A' for Active; 'I' for Inactive)
REMARK    1  A    between atoms: C_4  and  C_5
REMARK                            x       y       z     vdW  Elec       q    Type
REMARK                         _______ _______ _______ _____ _____    ______ ____
ROOT
ATOM      1  N   UNL     1       6.348   3.386  13.493  0.00  0.00    +0.000 N 
ATOM      2  C   UNL     1       6.292   4.225  14.587  0.00  0.00    +0.000 A 
ATOM      3  N   UNL     1       5.273   4.030  15.437  0.00  0.00    +0.000 NA
ATOM      4  C   UNL     1       5.194   4.805  16.549  0.00  0.00    +0.000 A 
ATOM      5  C   UNL     1       6.153   5.784  16.773  0.00  0.00    +0.000 A 
ATOM      6  C   UNL     1       6.505   6.758  17.730  0.00  0.00    +0.000 A 
ATOM      7  N   UNL     1       7.612   7.436  17.399  0.00  0.00    +0.000 NA
ATOM      8  N   UNL     1       7.972   6.881  16.222  0.00  0.00    +0.000 N 
ATOM      9  C   UNL     1       7.131   5.890  15.804  0.00  0.00    +0.000 A 
ATOM     10  N   UNL     1       7.249   5.155  14.690  0.00  0.00    +0.000 NA
ATOM     11  H   UNL     1       5.434   3.008  13.288  0.00  0.00    +0.000 HD
ATOM     12  H   UNL     1       6.862   3.815  12.738  0.00  0.00    +0.000 HD
ATOM     13  H   UNL     1       8.808   7.208  15.756  0.00  0.00    +0.000 HD
ENDROOT
BRANCH   4  14
ATOM     14  C   UNL     1       4.130   4.506  17.482  0.00  0.00    +0.000 A 
ATOM     15  C   UNL     1       3.585   5.207  18.540  0.00  0.00    +0.000 A 
ATOM     16  C   UNL     1       2.517   4.426  19.049  0.00  0.00    +0.000 A 
ATOM     17  C   UNL     1       1.564   4.572  20.071  0.00  0.00    +0.000 A 
ATOM     18  C   UNL     1       0.634   3.541  20.274  0.00  0.00    +0.000 A 
ATOM     19  C   UNL     1       0.650   2.390  19.483  0.00  0.00    +0.000 A 
ATOM     20  C   UNL     1       1.589   2.229  18.457  0.00  0.00    +0.000 A 
ATOM     21  C   UNL     1       2.495   3.270  18.277  0.00  0.00    +0.000 A 
ATOM     22  O   UNL     1       3.472   3.317  17.331  0.00  0.00    +0.000 OA
ENDBRANCH   4  14
TORSDOF 1
ENDMDL
MODEL 8
REMARK VINA RESULT:      -7.8      4.391      5.439
REMARK  Name = 
REMARK  1 active torsions:
REMARK  status: ('A' for Active; 'I' for Inactive)
REMARK    1  A    between atoms: C_4  and  C_5
REMARK                            x       y       z     vdW  Elec       q    Type
REMARK                         _______ _______ _______ _____ _____    ______ ____
ROOT
ATOM      1  N   UNL     1       1.070   2.155  18.620  0.00  0.00    +0.000 N 
ATOM      2  C   UNL     1       2.110   3.058  18.714  0.00  0.00    +0.000 A 
ATOM      3  N   UNL     1       1.773   4.355  18.736  0.00  0.00    +0.000 NA
ATOM      4  C   UNL     1       2.757   5.282  18.866  0.00  0.00    +0.000 A 
ATOM      5  C   UNL     1       4.080   4.870  18.957  0.00  0.00    +0.000 A 
ATOM      6  C   UNL     1       5.374   5.407  19.125  0.00  0.00    +0.000 A 
ATOM      7  N   UNL     1       6.326   4.465  19.163  0.00  0.00    +0.000 NA
ATOM      8  N   UNL     1       5.629   3.317  19.025  0.00  0.00    +0.000 N 
ATOM      9  C   UNL     1       4.283   3.506  18.897  0.00  0.00    +0.000 A 
ATOM     10  N   UNL     1       3.349   2.554  18.764  0.00  0.00    +0.000 NA
ATOM     11  H   UNL     1       0.258   2.592  18.208  0.00  0.00    +0.000 HD
ATOM     12  H   UNL     1       1.388   1.282  18.226  0.00  0.00    +0.000 HD
ATOM     13  H   UNL     1       6.122   2.435  19.040  0.00  0.00    +0.000 HD
ENDROOT
BRANCH   4  14
ATOM     14  C   UNL     1       2.345   6.665  18.970  0.00  0.00    +0.000 A 
ATOM     15  C   UNL     1       2.297   7.701  18.058  0.00  0.00    +0.000 A 
ATOM     16  C   UNL     1       1.743   8.820  18.731  0.00  0.00    +0.000 A 
ATOM     17  C   UNL     1       1.407  10.137  18.378  0.00  0.00    +0.000 A 
ATOM     18  C   UNL     1       0.857  10.975  19.360  0.00  0.00    +0.000 A 
ATOM     19  C   UNL     1       0.649  10.517  20.664  0.00  0.00    +0.000 A 
ATOM     20  C   UNL     1       0.974   9.207  21.031  0.00  0.00    +0.000 A 
ATOM     21  C   UNL     1       1.512   8.398  20.034  0.00  0.00    +0.000 A 
ATOM     22  O   UNL     1       1.879   7.096  20.181  0.00  0.00    +0.000 OA
ENDBRANCH   4  14
TORSDOF 1
ENDMDL
MODEL 9
REMARK VINA RESULT:      -7.7      4.244      5.742
REMARK  Name = 
REMARK  1 active torsions:
REMARK  status: ('A' for Active; 'I' for Inactive)
REMARK    1  A    between atoms: C_4  and  C_5
REMARK                            x       y       z     vdW  Elec       q    Type
REMARK                         _______ _______ _______ _____ _____    ______ ____
ROOT
ATOM      1  N   UNL     1       6.475   4.014  18.572  0.00  0.00    +0.000 N 
ATOM      2  C   UNL     1       5.099   4.029  18.684  0.00  0.00    +0.000 A 
ATOM      3  N   UNL     1       4.526   5.231  18.837  0.00  0.00    +0.000 NA
ATOM      4  C   UNL     1       3.171   5.303  18.912  0.00  0.00    +0.000 A 
ATOM      5  C   UNL     1       2.418   4.139  18.845  0.00  0.00    +0.000 A 
ATOM      6  C   UNL     1       1.072   3.717  18.844  0.00  0.00    +0.000 A 
ATOM      7  N   UNL     1       0.944   2.389  18.725  0.00  0.00    +0.000 NA
ATOM      8  N   UNL     1       2.222   1.962  18.643  0.00  0.00    +0.000 N 
ATOM      9  C   UNL     1       3.141   2.970  18.711  0.00  0.00    +0.000 A 
ATOM     10  N   UNL     1       4.473   2.846  18.637  0.00  0.00    +0.000 NA
ATOM     11  H   UNL     1       6.873   4.842  18.993  0.00  0.00    +0.000 HD
ATOM     12  H   UNL     1       6.847   3.118  18.849  0.00  0.00    +0.000 HD
ATOM     13  H   UNL     1       2.407   0.975  18.526  0.00  0.00    +0.000 HD
ENDROOT
BRANCH   4  14
ATOM     14  C   UNL     1       2.589   6.624  18.991  0.00  0.00    +0.000 A 
ATOM     15  C   UNL     1       2.449   7.645  18.071  0.00  0.00    +0.000 A 
ATOM     16  C   UNL     1       1.737   8.688  18.714  0.00  0.00    +0.000 A 
ATOM     17  C   UNL     1       1.255   9.954  18.340  0.00  0.00    +0.000 A 
ATOM     18  C   UNL     1       0.569  10.720  19.294  0.00  0.00    +0.000 A 
ATOM     19  C   UNL     1       0.368  10.242  20.592  0.00  0.00    +0.000 A 
ATOM     20  C   UNL     1       0.836   8.983  20.981  0.00  0.00    +0.000 A 
ATOM     21  C   UNL     1       1.509   8.245  20.010  0.00  0.00    +0.000 A 
ATOM     22  O   UNL     1       2.026   6.997  20.180  0.00  0.00    +0.000 OA
ENDBRANCH   4  14
TORSDOF 1
ENDMDL
