MODEL 1
REMARK VINA RESULT:      -7.6      0.000      0.000
REMARK  Name = 
REMARK  3 active torsions:
REMARK  status: ('A' for Active; 'I' for Inactive)
REMARK    1  A    between atoms: C_1  and  N_2
REMARK    2  A    between atoms: C_10  and  C_12
REMARK    3  A    between atoms: N_16  and  C_17
REMARK                            x       y       z     vdW  Elec       q    Type
REMARK                         _______ _______ _______ _____ _____    ______ ____
ROOT
ATOM      1  C   UNL     1       6.871   6.890  17.462  0.00  0.00    +0.000 C 
ATOM      2  N   UNL     1       7.222   5.546  17.012  0.00  0.00    +0.000 NA
ATOM      3  C   UNL     1       7.109   5.414  15.556  0.00  0.00    +0.000 C 
ATOM      4  C   UNL     1       5.668   5.266  15.068  0.00  0.00    +0.000 C 
ATOM      5  C   UNL     1       4.960   4.110  15.771  0.00  0.00    +0.000 C 
ATOM      6  C   UNL     1       5.053   4.203  17.308  0.00  0.00    +0.000 C 
ATOM      7  C   UNL     1       4.493   2.908  17.944  0.00  0.00    +0.000 C 
ATOM      8  C   UNL     1       3.819   3.350  19.233  0.00  0.00    +0.000 C 
ATOM      9  N   UNL     1       3.340   4.683  18.939  0.00  0.00    +0.000 N 
ATOM     10  C   UNL     1       2.642   5.421  19.885  0.00  0.00    +0.000 C 
ATOM     11  O   UNL     1       2.374   4.969  20.996  0.00  0.00    +0.000 OA
ATOM     12  C   UNL     1       4.116   5.289  17.870  0.00  0.00    +0.000 C 
ATOM     13  C   UNL     1       6.527   4.453  17.713  0.00  0.00    +0.000 C 
ENDROOT
BRANCH  10  14
ATOM     14  C   UNL     1       2.285   6.812  19.520  0.00  0.00    +0.000 A 
ATOM     15  C   UNL     1       2.428   7.318  18.243  0.00  0.00    +0.000 A 
ATOM     16  S   UNL     1       1.883   8.936  18.179  0.00  0.00    +0.000 S 
ATOM     17  C   UNL     1       1.478   8.878  19.855  0.00  0.00    +0.000 A 
ATOM     18  N   UNL     1       0.911   9.964  20.439  0.00  0.00    +0.000 N 
ATOM     19  N   UNL     1       1.747   7.728  20.432  0.00  0.00    +0.000 NA
ATOM     20  H   UNL     1       0.922  10.835  19.924  0.00  0.00    +0.000 HD
BRANCH  18  21
ATOM     21  C   UNL     1       0.691   9.969  21.880  0.00  0.00    +0.000 C 
ATOM     22  C   UNL     1      -0.475  10.725  22.466  0.00  0.00    +0.000 C 
ATOM     23  C   UNL     1      -0.469   9.227  22.483  0.00  0.00    +0.000 C 
ENDBRANCH  18  21
ENDBRANCH  10  14
TORSDOF 2
ENDMDL
MODEL 2
REMARK VINA RESULT:      -7.2      6.900      9.742
REMARK  Name = 
REMARK  3 active torsions:
REMARK  status: ('A' for Active; 'I' for Inactive)
REMARK    1  A    between atoms: C_1  and  N_2
REMARK    2  A    between atoms: C_10  and  C_12
REMARK    3  A    between atoms: N_16  and  C_17
REMARK                            x       y       z     vdW  Elec       q    Type
REMARK                         _______ _______ _______ _____ _____    ______ ____
ROOT
ATOM      1  C   UNL     1      -0.132  10.675  19.351  0.00  0.00    +0.000 C 
ATOM      2  N   UNL     1       0.661  10.927  20.550  0.00  0.00    +0.000 NA
ATOM      3  C   UNL     1       0.784   9.725  21.382  0.00  0.00    +0.000 C 
ATOM      4  C   UNL     1      -0.470   9.422  22.202  0.00  0.00    +0.000 C 
ATOM      5  C   UNL     1      -0.884  10.624  23.049  0.00  0.00    +0.000 C 
ATOM      6  C   UNL     1      -1.025  11.916  22.217  0.00  0.00    +0.000 C 
ATOM      7  C   UNL     1      -1.249  13.122  23.161  0.00  0.00    +0.000 C 
ATOM      8  C   UNL     1      -2.187  14.053  22.409  0.00  0.00    +0.000 C 
ATOM      9  N   UNL     1      -3.001  13.162  21.611  0.00  0.00    +0.000 N 
ATOM     10  C   UNL     1      -4.005  13.651  20.787  0.00  0.00    +0.000 C 
ATOM     11  O   UNL     1      -4.267  14.850  20.721  0.00  0.00    +0.000 OA
ATOM     12  C   UNL     1      -2.309  11.908  21.366  0.00  0.00    +0.000 C 
ATOM     13  C   UNL     1       0.241  12.095  21.342  0.00  0.00    +0.000 C 
ENDROOT
BRANCH  10  14
ATOM     14  C   UNL     1      -4.712  12.666  19.935  0.00  0.00    +0.000 A 
ATOM     15  C   UNL     1      -5.915  12.088  20.290  0.00  0.00    +0.000 A 
ATOM     16  S   UNL     1      -6.455  11.034  19.057  0.00  0.00    +0.000 S 
ATOM     17  C   UNL     1      -5.061  11.407  18.111  0.00  0.00    +0.000 A 
ATOM     18  N   UNL     1      -4.924  10.850  16.882  0.00  0.00    +0.000 N 
ATOM     19  N   UNL     1      -4.235  12.253  18.686  0.00  0.00    +0.000 NA
ATOM     20  H   UNL     1      -5.543  10.085  16.640  0.00  0.00    +0.000 HD
BRANCH  18  21
ATOM     21  C   UNL     1      -3.689  11.054  16.136  0.00  0.00    +0.000 C 
ATOM     22  C   UNL     1      -2.640   9.971  16.095  0.00  0.00    +0.000 C 
ATOM     23  C   UNL     1      -3.426  10.299  14.862  0.00  0.00    +0.000 C 
ENDBRANCH  18  21
ENDBRANCH  10  14
TORSDOF 2
ENDMDL
MODEL 3
REMARK VINA RESULT:      -7.1      7.784     11.610
REMARK  Name = 
REMARK  3 active torsions:
REMARK  status: ('A' for Active; 'I' for Inactive)
REMARK    1  A    between atoms: C_1  and  N_2
REMARK    2  A    between atoms: C_10  and  C_12
REMARK    3  A    between atoms: N_16  and  C_17
REMARK                            x       y       z     vdW  Elec       q    Type
REMARK                         _______ _______ _______ _____ _____    ______ ____
ROOT
ATOM      1  C   UNL     1      -6.367  12.481  19.769  0.00  0.00    +0.000 C 
ATOM      2  N   UNL     1      -7.114  12.792  20.983  0.00  0.00    +0.000 NA
ATOM      3  C   UNL     1      -7.629  14.165  20.967  0.00  0.00    +0.000 C 
ATOM      4  C   UNL     1      -6.565  15.218  21.278  0.00  0.00    +0.000 C 
ATOM      5  C   UNL     1      -5.862  14.923  22.601  0.00  0.00    +0.000 C 
ATOM      6  C   UNL     1      -5.303  13.486  22.668  0.00  0.00    +0.000 C 
ATOM      7  C   UNL     1      -4.785  13.194  24.097  0.00  0.00    +0.000 C 
ATOM      8  C   UNL     1      -3.576  12.292  23.911  0.00  0.00    +0.000 C 
ATOM      9  N   UNL     1      -3.018  12.708  22.643  0.00  0.00    +0.000 N 
ATOM     10  C   UNL     1      -1.873  12.115  22.132  0.00  0.00    +0.000 C 
ATOM     11  O   UNL     1      -1.266  11.237  22.742  0.00  0.00    +0.000 OA
ATOM     12  C   UNL     1      -4.035  13.328  21.809  0.00  0.00    +0.000 C 
ATOM     13  C   UNL     1      -6.411  12.491  22.242  0.00  0.00    +0.000 C 
ENDROOT
BRANCH  10  14
ATOM     14  C   UNL     1      -1.442  12.542  20.780  0.00  0.00    +0.000 A 
ATOM     15  C   UNL     1      -0.489  13.518  20.565  0.00  0.00    +0.000 A 
ATOM     16  S   UNL     1      -0.215  13.724  18.891  0.00  0.00    +0.000 S 
ATOM     17  C   UNL     1      -1.377  12.498  18.538  0.00  0.00    +0.000 A 
ATOM     18  N   UNL     1      -1.601  12.148  17.246  0.00  0.00    +0.000 N 
ATOM     19  N   UNL     1      -1.946  11.978  19.602  0.00  0.00    +0.000 NA
ATOM     20  H   UNL     1      -1.225  12.749  16.524  0.00  0.00    +0.000 HD
BRANCH  18  21
ATOM     21  C   UNL     1      -2.674  11.213  16.934  0.00  0.00    +0.000 C 
ATOM     22  C   UNL     1      -2.937  10.810  15.505  0.00  0.00    +0.000 C 
ATOM     23  C   UNL     1      -2.365   9.816  16.470  0.00  0.00    +0.000 C 
ENDBRANCH  18  21
ENDBRANCH  10  14
TORSDOF 2
ENDMDL
MODEL 4
REMARK VINA RESULT:      -6.8      2.398      3.504
REMARK  Name = 
REMARK  3 active torsions:
REMARK  status: ('A' for Active; 'I' for Inactive)
REMARK    1  A    between atoms: C_1  and  N_2
REMARK    2  A    between atoms: C_10  and  C_12
REMARK    3  A    between atoms: N_16  and  C_17
REMARK                            x       y       z     vdW  Elec       q    Type
REMARK                         _______ _______ _______ _____ _____    ______ ____
ROOT
ATOM      1  C   UNL     1       7.413   5.569  19.459  0.00  0.00    +0.000 C 
ATOM      2  N   UNL     1       7.872   5.847  18.102  0.00  0.00    +0.000 NA
ATOM      3  C   UNL     1       7.719   7.264  17.756  0.00  0.00    +0.000 C 
ATOM      4  C   UNL     1       6.280   7.654  17.414  0.00  0.00    +0.000 C 
ATOM      5  C   UNL     1       5.711   6.765  16.310  0.00  0.00    +0.000 C 
ATOM      6  C   UNL     1       5.851   5.261  16.628  0.00  0.00    +0.000 C 
ATOM      7  C   UNL     1       5.440   4.426  15.391  0.00  0.00    +0.000 C 
ATOM      8  C   UNL     1       4.776   3.179  15.950  0.00  0.00    +0.000 C 
ATOM      9  N   UNL     1       4.163   3.628  17.181  0.00  0.00    +0.000 N 
ATOM     10  C   UNL     1       3.434   2.759  17.981  0.00  0.00    +0.000 C 
ATOM     11  O   UNL     1       3.251   1.585  17.668  0.00  0.00    +0.000 OA
ATOM     12  C   UNL     1       4.839   4.808  17.695  0.00  0.00    +0.000 C 
ATOM     13  C   UNL     1       7.310   4.969  17.061  0.00  0.00    +0.000 C 
ENDROOT
BRANCH  10  14
ATOM     14  C   UNL     1       2.934   3.293  19.269  0.00  0.00    +0.000 A 
ATOM     15  C   UNL     1       2.974   2.577  20.449  0.00  0.00    +0.000 A 
ATOM     16  S   UNL     1       2.352   3.515  21.736  0.00  0.00    +0.000 S 
ATOM     17  C   UNL     1       2.066   4.829  20.654  0.00  0.00    +0.000 A 
ATOM     18  N   UNL     1       1.562   5.992  21.141  0.00  0.00    +0.000 N 
ATOM     19  N   UNL     1       2.399   4.579  19.408  0.00  0.00    +0.000 NA
ATOM     20  H   UNL     1       1.189   5.985  22.082  0.00  0.00    +0.000 HD
BRANCH  18  21
ATOM     21  C   UNL     1       1.193   7.055  20.216  0.00  0.00    +0.000 C 
ATOM     22  C   UNL     1       1.351   8.499  20.618  0.00  0.00    +0.000 C 
ATOM     23  C   UNL     1       2.246   7.912  19.570  0.00  0.00    +0.000 C 
ENDBRANCH  18  21
ENDBRANCH  10  14
TORSDOF 2
ENDMDL
MODEL 5
REMARK VINA RESULT:      -6.8      8.034     11.568
REMARK  Name = 
REMARK  3 active torsions:
REMARK  status: ('A' for Active; 'I' for Inactive)
REMARK    1  A    between atoms: C_1  and  N_2
REMARK    2  A    between atoms: C_10  and  C_12
REMARK    3  A    between atoms: N_16  and  C_17
REMARK                            x       y       z     vdW  Elec       q    Type
REMARK                         _______ _______ _______ _____ _____    ______ ____
ROOT
ATOM      1  C   UNL     1      -6.293  11.655  18.558  0.00  0.00    +0.000 C 
ATOM      2  N   UNL     1      -7.309  12.132  19.491  0.00  0.00    +0.000 NA
ATOM      3  C   UNL     1      -7.917  13.388  19.036  0.00  0.00    +0.000 C 
ATOM      4  C   UNL     1      -7.034  14.612  19.275  0.00  0.00    +0.000 C 
ATOM      5  C   UNL     1      -6.615  14.717  20.740  0.00  0.00    +0.000 C 
ATOM      6  C   UNL     1      -5.971  13.417  21.268  0.00  0.00    +0.000 C 
ATOM      7  C   UNL     1      -5.755  13.525  22.797  0.00  0.00    +0.000 C 
ATOM      8  C   UNL     1      -4.467  12.768  23.076  0.00  0.00    +0.000 C 
ATOM      9  N   UNL     1      -3.681  12.957  21.876  0.00  0.00    +0.000 N 
ATOM     10  C   UNL     1      -2.408  12.417  21.758  0.00  0.00    +0.000 C 
ATOM     11  O   UNL     1      -1.881  11.787  22.672  0.00  0.00    +0.000 OA
ATOM     12  C   UNL     1      -4.537  13.235  20.735  0.00  0.00    +0.000 C 
ATOM     13  C   UNL     1      -6.876  12.216  20.896  0.00  0.00    +0.000 C 
ENDROOT
BRANCH  10  14
ATOM     14  C   UNL     1      -1.729  12.582  20.452  0.00  0.00    +0.000 A 
ATOM     15  C   UNL     1      -0.538  13.264  20.301  0.00  0.00    +0.000 A 
ATOM     16  S   UNL     1      -0.029  13.220  18.670  0.00  0.00    +0.000 S 
ATOM     17  C   UNL     1      -1.419  12.288  18.249  0.00  0.00    +0.000 A 
ATOM     18  N   UNL     1      -1.575  11.870  16.968  0.00  0.00    +0.000 N 
ATOM     19  N   UNL     1      -2.222  12.039  19.259  0.00  0.00    +0.000 NA
ATOM     20  H   UNL     1      -0.975  12.281  16.262  0.00  0.00    +0.000 HD
BRANCH  18  21
ATOM     21  C   UNL     1      -2.809  11.201  16.578  0.00  0.00    +0.000 C 
ATOM     22  C   UNL     1      -2.920  10.541  15.227  0.00  0.00    +0.000 C 
ATOM     23  C   UNL     1      -2.869   9.703  16.468  0.00  0.00    +0.000 C 
ENDBRANCH  18  21
ENDBRANCH  10  14
TORSDOF 2
ENDMDL
MODEL 6
REMARK VINA RESULT:      -6.6      2.378      3.888
REMARK  Name = 
REMARK  3 active torsions:
REMARK  status: ('A' for Active; 'I' for Inactive)
REMARK    1  A    between atoms: C_1  and  N_2
REMARK    2  A    between atoms: C_10  and  C_12
REMARK    3  A    between atoms: N_16  and  C_17
REMARK                            x       y       z     vdW  Elec       q    Type
REMARK                         _______ _______ _______ _____ _____    ______ ____
ROOT
ATOM      1  C   UNL     1       0.874   3.493  18.686  0.00  0.00    +0.000 C 
ATOM      2  N   UNL     1       2.036   2.804  18.132  0.00  0.00    +0.000 NA
ATOM      3  C   UNL     1       2.765   2.056  19.161  0.00  0.00    +0.000 C 
ATOM      4  C   UNL     1       3.638   2.939  20.052  0.00  0.00    +0.000 C 
ATOM      5  C   UNL     1       4.598   3.789  19.222  0.00  0.00    +0.000 C 
ATOM      6  C   UNL     1       3.877   4.596  18.122  0.00  0.00    +0.000 C 
ATOM      7  C   UNL     1       4.922   5.272  17.201  0.00  0.00    +0.000 C 
ATOM      8  C   UNL     1       4.304   6.601  16.799  0.00  0.00    +0.000 C 
ATOM      9  N   UNL     1       3.495   6.972  17.939  0.00  0.00    +0.000 N 
ATOM     10  C   UNL     1       2.776   8.159  17.955  0.00  0.00    +0.000 C 
ATOM     11  O   UNL     1       2.817   8.958  17.022  0.00  0.00    +0.000 OA
ATOM     12  C   UNL     1       3.112   5.798  18.706  0.00  0.00    +0.000 C 
ATOM     13  C   UNL     1       2.939   3.649  17.332  0.00  0.00    +0.000 C 
ENDROOT
BRANCH  10  14
ATOM     14  C   UNL     1       1.899   8.396  19.126  0.00  0.00    +0.000 A 
ATOM     15  C   UNL     1       1.936   7.618  20.266  0.00  0.00    +0.000 A 
ATOM     16  S   UNL     1       0.820   8.202  21.421  0.00  0.00    +0.000 S 
ATOM     17  C   UNL     1       0.349   9.465  20.345  0.00  0.00    +0.000 A 
ATOM     18  N   UNL     1      -0.575  10.373  20.750  0.00  0.00    +0.000 N 
ATOM     19  N   UNL     1       0.973   9.444  19.189  0.00  0.00    +0.000 NA
ATOM     20  H   UNL     1      -1.099  10.167  21.592  0.00  0.00    +0.000 HD
BRANCH  18  21
ATOM     21  C   UNL     1      -1.074  11.359  19.801  0.00  0.00    +0.000 C 
ATOM     22  C   UNL     1      -2.176  12.307  20.202  0.00  0.00    +0.000 C 
ATOM     23  C   UNL     1      -0.786  12.822  19.989  0.00  0.00    +0.000 C 
ENDBRANCH  18  21
ENDBRANCH  10  14
TORSDOF 2
ENDMDL
MODEL 7
REMARK VINA RESULT:      -6.6      7.179     10.796
REMARK  Name = 
REMARK  3 active torsions:
REMARK  status: ('A' for Active; 'I' for Inactive)
REMARK    1  A    between atoms: C_1  and  N_2
REMARK    2  A    between atoms: C_10  and  C_12
REMARK    3  A    between atoms: N_16  and  C_17
REMARK                            x       y       z     vdW  Elec       q    Type
REMARK                         _______ _______ _______ _____ _____    ______ ____
ROOT
ATOM      1  C   UNL     1      -4.857  15.292  20.231  0.00  0.00    +0.000 C 
ATOM      2  N   UNL     1      -6.216  14.775  20.101  0.00  0.00    +0.000 NA
ATOM      3  C   UNL     1      -6.751  14.326  21.391  0.00  0.00    +0.000 C 
ATOM      4  C   UNL     1      -6.210  12.966  21.834  0.00  0.00    +0.000 C 
ATOM      5  C   UNL     1      -6.432  11.904  20.760  0.00  0.00    +0.000 C 
ATOM      6  C   UNL     1      -5.886  12.331  19.381  0.00  0.00    +0.000 C 
ATOM      7  C   UNL     1      -6.319  11.303  18.308  0.00  0.00    +0.000 C 
ATOM      8  C   UNL     1      -5.163  11.238  17.323  0.00  0.00    +0.000 C 
ATOM      9  N   UNL     1      -3.994  11.499  18.135  0.00  0.00    +0.000 N 
ATOM     10  C   UNL     1      -2.721  11.505  17.583  0.00  0.00    +0.000 C 
ATOM     11  O   UNL     1      -2.526  11.261  16.394  0.00  0.00    +0.000 OA
ATOM     12  C   UNL     1      -4.349  12.252  19.327  0.00  0.00    +0.000 C 
ATOM     13  C   UNL     1      -6.398  13.756  19.053  0.00  0.00    +0.000 C 
ENDROOT
BRANCH  10  14
ATOM     14  C   UNL     1      -1.603  11.883  18.479  0.00  0.00    +0.000 A 
ATOM     15  C   UNL     1      -0.848  13.026  18.302  0.00  0.00    +0.000 A 
ATOM     16  S   UNL     1       0.324  13.161  19.540  0.00  0.00    +0.000 S 
ATOM     17  C   UNL     1      -0.240  11.694  20.251  0.00  0.00    +0.000 A 
ATOM     18  N   UNL     1       0.331  11.250  21.399  0.00  0.00    +0.000 N 
ATOM     19  N   UNL     1      -1.230  11.128  19.597  0.00  0.00    +0.000 NA
ATOM     20  H   UNL     1       1.195  11.688  21.695  0.00  0.00    +0.000 HD
BRANCH  18  21
ATOM     21  C   UNL     1      -0.047   9.947  21.930  0.00  0.00    +0.000 C 
ATOM     22  C   UNL     1       0.597   9.425  23.189  0.00  0.00    +0.000 C 
ATOM     23  C   UNL     1      -0.843   9.835  23.200  0.00  0.00    +0.000 C 
ENDBRANCH  18  21
ENDBRANCH  10  14
TORSDOF 2
ENDMDL
MODEL 8
REMARK VINA RESULT:      -6.5      8.783      9.647
REMARK  Name = 
REMARK  3 active torsions:
REMARK  status: ('A' for Active; 'I' for Inactive)
REMARK    1  A    between atoms: C_1  and  N_2
REMARK    2  A    between atoms: C_10  and  C_12
REMARK    3  A    between atoms: N_16  and  C_17
REMARK                            x       y       z     vdW  Elec       q    Type
REMARK                         _______ _______ _______ _____ _____    ______ ____
ROOT
ATOM      1  C   UNL     1      11.915  15.009  18.762  0.00  0.00    +0.000 C 
ATOM      2  N   UNL     1      12.322  13.609  18.680  0.00  0.00    +0.000 NA
ATOM      3  C   UNL     1      12.151  13.072  17.326  0.00  0.00    +0.000 C 
ATOM      4  C   UNL     1      10.700  12.734  16.984  0.00  0.00    +0.000 C 
ATOM      5  C   UNL     1      10.092  11.789  18.019  0.00  0.00    +0.000 C 
ATOM      6  C   UNL     1      10.248  12.310  19.463  0.00  0.00    +0.000 C 
ATOM      7  C   UNL     1       9.793  11.221  20.463  0.00  0.00    +0.000 C 
ATOM      8  C   UNL     1       9.154  11.975  21.617  0.00  0.00    +0.000 C 
ATOM      9  N   UNL     1       8.586  13.152  20.997  0.00  0.00    +0.000 N 
ATOM     10  C   UNL     1       7.891  14.094  21.743  0.00  0.00    +0.000 C 
ATOM     11  O   UNL     1       7.700  13.957  22.949  0.00  0.00    +0.000 OA
ATOM     12  C   UNL     1       9.278  13.469  19.758  0.00  0.00    +0.000 C 
ATOM     13  C   UNL     1      11.723  12.725  19.695  0.00  0.00    +0.000 C 
ENDROOT
BRANCH  10  14
ATOM     14  C   UNL     1       7.439  15.312  21.030  0.00  0.00    +0.000 A 
ATOM     15  C   UNL     1       8.105  16.519  21.101  0.00  0.00    +0.000 A 
ATOM     16  S   UNL     1       7.326  17.687  20.127  0.00  0.00    +0.000 S 
ATOM     17  C   UNL     1       6.143  16.523  19.656  0.00  0.00    +0.000 A 
ATOM     18  N   UNL     1       5.177  16.878  18.772  0.00  0.00    +0.000 N 
ATOM     19  N   UNL     1       6.309  15.339  20.204  0.00  0.00    +0.000 NA
ATOM     20  H   UNL     1       5.065  17.864  18.569  0.00  0.00    +0.000 HD
BRANCH  18  21
ATOM     21  C   UNL     1       4.100  15.943  18.475  0.00  0.00    +0.000 C 
ATOM     22  C   UNL     1       2.665  16.405  18.502  0.00  0.00    +0.000 C 
ATOM     23  C   UNL     1       3.314  16.056  17.198  0.00  0.00    +0.000 C 
ENDBRANCH  18  21
ENDBRANCH  10  14
TORSDOF 2
ENDMDL
MODEL 9
REMARK VINA RESULT:      -6.5      8.868     10.709
REMARK  Name = 
REMARK  3 active torsions:
REMARK  status: ('A' for Active; 'I' for Inactive)
REMARK    1  A    between atoms: C_1  and  N_2
REMARK    2  A    between atoms: C_10  and  C_12
REMARK    3  A    between atoms: N_16  and  C_17
REMARK                            x       y       z     vdW  Elec       q    Type
REMARK                         _______ _______ _______ _____ _____    ______ ____
ROOT
ATOM      1  C   UNL     1       9.058  12.297  17.803  0.00  0.00    +0.000 C 
ATOM      2  N   UNL     1      10.494  12.360  17.544  0.00  0.00    +0.000 NA
ATOM      3  C   UNL     1      11.261  11.631  18.559  0.00  0.00    +0.000 C 
ATOM      4  C   UNL     1      11.404  12.392  19.877  0.00  0.00    +0.000 C 
ATOM      5  C   UNL     1      11.992  13.784  19.654  0.00  0.00    +0.000 C 
ATOM      6  C   UNL     1      11.218  14.592  18.591  0.00  0.00    +0.000 C 
ATOM      7  C   UNL     1      11.979  15.902  18.275  0.00  0.00    +0.000 C 
ATOM      8  C   UNL     1      10.902  16.939  18.003  0.00  0.00    +0.000 C 
ATOM      9  N   UNL     1       9.798  16.527  18.843  0.00  0.00    +0.000 N 
ATOM     10  C   UNL     1       8.615  17.252  18.883  0.00  0.00    +0.000 C 
ATOM     11  O   UNL     1       8.463  18.285  18.236  0.00  0.00    +0.000 OA
ATOM     12  C   UNL     1       9.871  15.105  19.135  0.00  0.00    +0.000 C 
ATOM     13  C   UNL     1      11.029  13.715  17.327  0.00  0.00    +0.000 C 
ENDROOT
BRANCH  10  14
ATOM     14  C   UNL     1       7.512  16.690  19.697  0.00  0.00    +0.000 A 
ATOM     15  C   UNL     1       7.445  16.819  21.070  0.00  0.00    +0.000 A 
ATOM     16  S   UNL     1       6.022  16.085  21.669  0.00  0.00    +0.000 S 
ATOM     17  C   UNL     1       5.564  15.639  20.066  0.00  0.00    +0.000 A 
ATOM     18  N   UNL     1       4.386  14.995  19.867  0.00  0.00    +0.000 N 
ATOM     19  N   UNL     1       6.427  16.000  19.143  0.00  0.00    +0.000 NA
ATOM     20  H   UNL     1       3.908  14.626  20.680  0.00  0.00    +0.000 HD
BRANCH  18  21
ATOM     21  C   UNL     1       4.058  14.497  18.538  0.00  0.00    +0.000 C 
ATOM     22  C   UNL     1       2.682  13.952  18.251  0.00  0.00    +0.000 C 
ATOM     23  C   UNL     1       3.113  15.252  17.645  0.00  0.00    +0.000 C 
ENDBRANCH  18  21
ENDBRANCH  10  14
TORSDOF 2
ENDMDL
