MODEL 1
REMARK VINA RESULT:      -8.8      0.000      0.000
REMARK  Name = 
REMARK  5 active torsions:
REMARK  status: ('A' for Active; 'I' for Inactive)
REMARK    1  A    between atoms: C_1  and  O_2
REMARK    2  A    between atoms: O_2  and  C_3
REMARK    3  A    between atoms: C_11  and  C_12
REMARK    4  A    between atoms: C_12  and  O_13
REMARK    5  A    between atoms: N_23  and  C_24
REMARK                            x       y       z     vdW  Elec       q    Type
REMARK                         _______ _______ _______ _____ _____    ______ ____
ROOT
ATOM      1  C   UNL     1       4.040   5.784  17.923  0.00  0.00    +0.000 C 
ATOM      2  C   UNL     1       5.484   6.204  17.995  0.00  0.00    +0.000 A 
ATOM      3  C   UNL     1       6.137   7.269  17.413  0.00  0.00    +0.000 A 
ATOM      4  F   UNL     1       5.470   8.128  16.634  0.00  0.00    +0.000 F 
ATOM      5  C   UNL     1       7.510   7.435  17.617  0.00  0.00    +0.000 A 
ATOM      6  C   UNL     1       8.227   6.521  18.407  0.00  0.00    +0.000 A 
ATOM      7  C   UNL     1       7.573   5.433  18.987  0.00  0.00    +0.000 A 
ATOM      8  C   UNL     1       6.213   5.306  18.757  0.00  0.00    +0.000 A 
ATOM      9  C   UNL     1       5.305   4.263  19.225  0.00  0.00    +0.000 C 
ATOM     10  O   UNL     1       5.711   3.346  19.915  0.00  0.00    +0.000 OA
ATOM     11  N   UNL     1       4.026   4.556  18.739  0.00  0.00    +0.000 N 
ENDROOT
BRANCH   1  20
ATOM     12  C   UNL     1      -0.952  11.165  22.038  0.00  0.00    +0.000 C 
ATOM     13  O   UNL     1      -1.235  11.710  20.981  0.00  0.00    +0.000 OA
ATOM     14  N   UNL     1      -0.116  10.102  22.257  0.00  0.00    +0.000 N 
ATOM     15  C   UNL     1       0.563   9.494  21.233  0.00  0.00    +0.000 A 
ATOM     16  N   UNL     1       0.556   9.829  19.965  0.00  0.00    +0.000 NA
ATOM     17  C   UNL     1       1.368   8.935  19.326  0.00  0.00    +0.000 A 
ATOM     18  C   UNL     1       1.714   8.862  17.976  0.00  0.00    +0.000 A 
ATOM     19  C   UNL     1       2.576   7.840  17.557  0.00  0.00    +0.000 A 
ATOM     20  C   UNL     1       3.090   6.877  18.455  0.00  0.00    +0.000 A 
ATOM     21  C   UNL     1       2.737   6.964  19.825  0.00  0.00    +0.000 A 
ATOM     22  C   UNL     1       1.885   8.007  20.219  0.00  0.00    +0.000 A 
ATOM     23  N   UNL     1       1.377   8.404  21.435  0.00  0.00    +0.000 N 
ATOM     24  H   UNL     1      -0.037   9.784  23.207  0.00  0.00    +0.000 HD
ATOM     25  H   UNL     1       1.565   7.966  22.324  0.00  0.00    +0.000 HD
BRANCH  12  27
ATOM     26  C   UNL     1      -2.782  12.132  23.127  0.00  0.00    +0.000 C 
ATOM     27  O   UNL     1      -1.476  11.555  23.236  0.00  0.00    +0.000 OA
ENDBRANCH  12  27
ENDBRANCH   1  20
BRANCH  11  28
ATOM     28  C   UNL     1       2.849   3.803  19.060  0.00  0.00    +0.000 A 
ATOM     29  C   UNL     1       2.047   3.274  18.030  0.00  0.00    +0.000 A 
ATOM     30  C   UNL     1       0.929   2.474  18.297  0.00  0.00    +0.000 A 
ATOM     31  C   UNL     1       0.577   2.186  19.609  0.00  0.00    +0.000 A 
ATOM     32  C   UNL     1       1.334   2.718  20.646  0.00  0.00    +0.000 A 
ATOM     33 CL   UNL     1       0.880   2.375  22.275  0.00  0.00    +0.000 Cl
ATOM     34  C   UNL     1       2.450   3.519  20.377  0.00  0.00    +0.000 A 
ATOM     35  F   UNL     1       3.101   4.042  21.426  0.00  0.00    +0.000 F 
ENDBRANCH  11  28
BRANCH   1  36
ATOM     36  O   UNL     1       3.841   5.431  16.561  0.00  0.00    +0.000 OA
ATOM     37  H   UNL     1       2.902   5.208  16.473  0.00  0.00    +0.000 HD
ENDBRANCH   1  36
TORSDOF 4
ENDMDL
MODEL 2
REMARK VINA RESULT:      -8.6      4.680      9.954
REMARK  Name = 
REMARK  5 active torsions:
REMARK  status: ('A' for Active; 'I' for Inactive)
REMARK    1  A    between atoms: C_1  and  O_2
REMARK    2  A    between atoms: O_2  and  C_3
REMARK    3  A    between atoms: C_11  and  C_12
REMARK    4  A    between atoms: C_12  and  O_13
REMARK    5  A    between atoms: N_23  and  C_24
REMARK                            x       y       z     vdW  Elec       q    Type
REMARK                         _______ _______ _______ _____ _____    ______ ____
ROOT
ATOM      1  C   UNL     1      -1.270  12.167  18.623  0.00  0.00    +0.000 C 
ATOM      2  C   UNL     1      -2.732  11.845  18.779  0.00  0.00    +0.000 A 
ATOM      3  C   UNL     1      -3.523  10.929  18.120  0.00  0.00    +0.000 A 
ATOM      4  F   UNL     1      -3.004  10.152  17.161  0.00  0.00    +0.000 F 
ATOM      5  C   UNL     1      -4.881  10.833  18.435  0.00  0.00    +0.000 A 
ATOM      6  C   UNL     1      -5.444  11.666  19.416  0.00  0.00    +0.000 A 
ATOM      7  C   UNL     1      -4.650  12.603  20.078  0.00  0.00    +0.000 A 
ATOM      8  C   UNL     1      -3.310  12.666  19.733  0.00  0.00    +0.000 A 
ATOM      9  C   UNL     1      -2.278  13.558  20.252  0.00  0.00    +0.000 C 
ATOM     10  O   UNL     1      -2.541  14.387  21.104  0.00  0.00    +0.000 OA
ATOM     11  N   UNL     1      -1.078  13.253  19.602  0.00  0.00    +0.000 N 
ENDROOT
BRANCH   1  20
ATOM     12  C   UNL     1       4.069   5.665  18.824  0.00  0.00    +0.000 C 
ATOM     13  O   UNL     1       3.683   5.383  19.948  0.00  0.00    +0.000 OA
ATOM     14  N   UNL     1       3.665   6.691  18.011  0.00  0.00    +0.000 N 
ATOM     15  C   UNL     1       2.717   7.598  18.410  0.00  0.00    +0.000 A 
ATOM     16  N   UNL     1       2.109   7.654  19.570  0.00  0.00    +0.000 NA
ATOM     17  C   UNL     1       1.248   8.713  19.503  0.00  0.00    +0.000 A 
ATOM     18  C   UNL     1       0.381   9.212  20.476  0.00  0.00    +0.000 A 
ATOM     19  C   UNL     1      -0.412  10.324  20.164  0.00  0.00    +0.000 A 
ATOM     20  C   UNL     1      -0.372  10.941  18.893  0.00  0.00    +0.000 A 
ATOM     21  C   UNL     1       0.516  10.430  17.914  0.00  0.00    +0.000 A 
ATOM     22  C   UNL     1       1.310   9.326  18.259  0.00  0.00    +0.000 A 
ATOM     23  N   UNL     1       2.277   8.610  17.589  0.00  0.00    +0.000 N 
ATOM     24  H   UNL     1       4.091   6.736  17.101  0.00  0.00    +0.000 HD
ATOM     25  H   UNL     1       2.604   8.795  16.654  0.00  0.00    +0.000 HD
BRANCH  12  27
ATOM     26  C   UNL     1       4.490   4.185  17.062  0.00  0.00    +0.000 C 
ATOM     27  O   UNL     1       5.016   4.938  18.161  0.00  0.00    +0.000 OA
ENDBRANCH  12  27
ENDBRANCH   1  20
BRANCH  11  28
ATOM     28  C   UNL     1       0.183  13.862  19.907  0.00  0.00    +0.000 A 
ATOM     29  C   UNL     1       0.995  13.333  20.929  0.00  0.00    +0.000 A 
ATOM     30  C   UNL     1       2.264  13.851  21.213  0.00  0.00    +0.000 A 
ATOM     31  C   UNL     1       2.755  14.927  20.485  0.00  0.00    +0.000 A 
ATOM     32  C   UNL     1       1.964  15.488  19.489  0.00  0.00    +0.000 A 
ATOM     33 CL   UNL     1       2.570  16.838  18.601  0.00  0.00    +0.000 Cl
ATOM     34  C   UNL     1       0.695  14.969  19.208  0.00  0.00    +0.000 A 
ATOM     35  F   UNL     1      -0.034  15.594  18.272  0.00  0.00    +0.000 F 
ENDBRANCH  11  28
BRANCH   1  36
ATOM     36  O   UNL     1      -1.164  12.706  17.314  0.00  0.00    +0.000 OA
ATOM     37  H   UNL     1      -1.471  12.013  16.709  0.00  0.00    +0.000 HD
ENDBRANCH   1  36
TORSDOF 4
ENDMDL
MODEL 3
REMARK VINA RESULT:      -8.3      1.276      1.924
REMARK  Name = 
REMARK  5 active torsions:
REMARK  status: ('A' for Active; 'I' for Inactive)
REMARK    1  A    between atoms: C_1  and  O_2
REMARK    2  A    between atoms: O_2  and  C_3
REMARK    3  A    between atoms: C_11  and  C_12
REMARK    4  A    between atoms: C_12  and  O_13
REMARK    5  A    between atoms: N_23  and  C_24
REMARK                            x       y       z     vdW  Elec       q    Type
REMARK                         _______ _______ _______ _____ _____    ______ ____
ROOT
ATOM      1  C   UNL     1       4.098   5.767  17.933  0.00  0.00    +0.000 C 
ATOM      2  C   UNL     1       5.551   6.154  18.019  0.00  0.00    +0.000 A 
ATOM      3  C   UNL     1       6.235   7.199  17.439  0.00  0.00    +0.000 A 
ATOM      4  F   UNL     1       5.597   8.069  16.646  0.00  0.00    +0.000 F 
ATOM      5  C   UNL     1       7.609   7.334  17.657  0.00  0.00    +0.000 A 
ATOM      6  C   UNL     1       8.295   6.409  18.461  0.00  0.00    +0.000 A 
ATOM      7  C   UNL     1       7.609   5.341  19.041  0.00  0.00    +0.000 A 
ATOM      8  C   UNL     1       6.249   5.244  18.796  0.00  0.00    +0.000 A 
ATOM      9  C   UNL     1       5.311   4.226  19.260  0.00  0.00    +0.000 C 
ATOM     10  O   UNL     1       5.688   3.305  19.960  0.00  0.00    +0.000 OA
ATOM     11  N   UNL     1       4.046   4.545  18.756  0.00  0.00    +0.000 N 
ENDROOT
BRANCH   1  20
ATOM     12  C   UNL     1      -0.776  12.442  19.517  0.00  0.00    +0.000 C 
ATOM     13  O   UNL     1      -0.963  12.035  20.654  0.00  0.00    +0.000 OA
ATOM     14  N   UNL     1      -0.028  11.877  18.517  0.00  0.00    +0.000 N 
ATOM     15  C   UNL     1       0.631  10.688  18.691  0.00  0.00    +0.000 A 
ATOM     16  N   UNL     1       0.627   9.926  19.758  0.00  0.00    +0.000 NA
ATOM     17  C   UNL     1       1.430   8.858  19.471  0.00  0.00    +0.000 A 
ATOM     18  C   UNL     1       1.745   7.750  20.261  0.00  0.00    +0.000 A 
ATOM     19  C   UNL     1       2.603   6.774  19.738  0.00  0.00    +0.000 A 
ATOM     20  C   UNL     1       3.167   6.885  18.447  0.00  0.00    +0.000 A 
ATOM     21  C   UNL     1       2.835   8.011  17.651  0.00  0.00    +0.000 A 
ATOM     22  C   UNL     1       1.962   8.965  18.194  0.00  0.00    +0.000 A 
ATOM     23  N   UNL     1       1.414  10.130  17.707  0.00  0.00    +0.000 N 
ATOM     24  H   UNL     1       0.021  12.388  17.653  0.00  0.00    +0.000 HD
ATOM     25  H   UNL     1       1.563  10.512  16.787  0.00  0.00    +0.000 HD
BRANCH  12  27
ATOM     26  C   UNL     1      -0.340  14.647  18.870  0.00  0.00    +0.000 C 
ATOM     27  O   UNL     1      -1.309  13.608  19.050  0.00  0.00    +0.000 OA
ENDBRANCH  12  27
ENDBRANCH   1  20
BRANCH  11  28
ATOM     28  C   UNL     1       2.848   3.822  19.068  0.00  0.00    +0.000 A 
ATOM     29  C   UNL     1       2.022   3.344  18.033  0.00  0.00    +0.000 A 
ATOM     30  C   UNL     1       0.881   2.573  18.289  0.00  0.00    +0.000 A 
ATOM     31  C   UNL     1       0.529   2.265  19.596  0.00  0.00    +0.000 A 
ATOM     32  C   UNL     1       1.311   2.747  20.640  0.00  0.00    +0.000 A 
ATOM     33 CL   UNL     1       0.858   2.379  22.264  0.00  0.00    +0.000 Cl
ATOM     34  C   UNL     1       2.449   3.518  20.381  0.00  0.00    +0.000 A 
ATOM     35  F   UNL     1       3.125   3.995  21.438  0.00  0.00    +0.000 F 
ENDBRANCH  11  28
BRANCH   1  36
ATOM     36  O   UNL     1       3.907   5.410  16.571  0.00  0.00    +0.000 OA
ATOM     37  H   UNL     1       3.527   4.517  16.576  0.00  0.00    +0.000 HD
ENDBRANCH   1  36
TORSDOF 4
ENDMDL
MODEL 4
REMARK VINA RESULT:      -8.2      4.483      9.705
REMARK  Name = 
REMARK  5 active torsions:
REMARK  status: ('A' for Active; 'I' for Inactive)
REMARK    1  A    between atoms: C_1  and  O_2
REMARK    2  A    between atoms: O_2  and  C_3
REMARK    3  A    between atoms: C_11  and  C_12
REMARK    4  A    between atoms: C_12  and  O_13
REMARK    5  A    between atoms: N_23  and  C_24
REMARK                            x       y       z     vdW  Elec       q    Type
REMARK                         _______ _______ _______ _____ _____    ______ ____
ROOT
ATOM      1  C   UNL     1      -0.676  12.607  18.831  0.00  0.00    +0.000 C 
ATOM      2  C   UNL     1      -2.087  12.668  19.352  0.00  0.00    +0.000 A 
ATOM      3  C   UNL     1      -3.182  11.881  19.067  0.00  0.00    +0.000 A 
ATOM      4  F   UNL     1      -3.082  10.873  18.192  0.00  0.00    +0.000 F 
ATOM      5  C   UNL     1      -4.410  12.156  19.675  0.00  0.00    +0.000 A 
ATOM      6  C   UNL     1      -4.534  13.231  20.570  0.00  0.00    +0.000 A 
ATOM      7  C   UNL     1      -3.432  14.039  20.852  0.00  0.00    +0.000 A 
ATOM      8  C   UNL     1      -2.235  13.732  20.226  0.00  0.00    +0.000 A 
ATOM      9  C   UNL     1      -0.952  14.419  20.330  0.00  0.00    +0.000 C 
ATOM     10  O   UNL     1      -0.826  15.401  21.039  0.00  0.00    +0.000 OA
ATOM     11  N   UNL     1      -0.036  13.747  19.514  0.00  0.00    +0.000 N 
ENDROOT
BRANCH   1  20
ATOM     12  C   UNL     1       3.478   5.300  19.241  0.00  0.00    +0.000 C 
ATOM     13  O   UNL     1       3.057   5.125  20.374  0.00  0.00    +0.000 OA
ATOM     14  N   UNL     1       3.249   6.354  18.395  0.00  0.00    +0.000 N 
ATOM     15  C   UNL     1       2.472   7.421  18.764  0.00  0.00    +0.000 A 
ATOM     16  N   UNL     1       1.890   7.618  19.923  0.00  0.00    +0.000 NA
ATOM     17  C   UNL     1       1.221   8.805  19.821  0.00  0.00    +0.000 A 
ATOM     18  C   UNL     1       0.459   9.476  20.779  0.00  0.00    +0.000 A 
ATOM     19  C   UNL     1      -0.136  10.696  20.431  0.00  0.00    +0.000 A 
ATOM     20  C   UNL     1       0.001  11.256  19.140  0.00  0.00    +0.000 A 
ATOM     21  C   UNL     1       0.783  10.570  18.177  0.00  0.00    +0.000 A 
ATOM     22  C   UNL     1       1.379   9.358  18.558  0.00  0.00    +0.000 A 
ATOM     23  N   UNL     1       2.206   8.467  17.911  0.00  0.00    +0.000 N 
ATOM     24  H   UNL     1       3.670   6.295  17.484  0.00  0.00    +0.000 HD
ATOM     25  H   UNL     1       2.554   8.562  16.970  0.00  0.00    +0.000 HD
BRANCH  12  27
ATOM     26  C   UNL     1       4.459   3.179  19.326  0.00  0.00    +0.000 C 
ATOM     27  O   UNL     1       4.282   4.402  18.602  0.00  0.00    +0.000 OA
ENDBRANCH  12  27
ENDBRANCH   1  20
BRANCH  11  28
ATOM     28  C   UNL     1       1.355  14.077  19.420  0.00  0.00    +0.000 A 
ATOM     29  C   UNL     1       1.873  14.622  18.230  0.00  0.00    +0.000 A 
ATOM     30  C   UNL     1       3.210  15.025  18.117  0.00  0.00    +0.000 A 
ATOM     31  C   UNL     1       4.072  14.885  19.197  0.00  0.00    +0.000 A 
ATOM     32  C   UNL     1       3.595  14.324  20.376  0.00  0.00    +0.000 A 
ATOM     33 CL   UNL     1       4.675  14.131  21.708  0.00  0.00    +0.000 Cl
ATOM     34  C   UNL     1       2.259  13.920  20.485  0.00  0.00    +0.000 A 
ATOM     35  F   UNL     1       1.883  13.337  21.633  0.00  0.00    +0.000 F 
ENDBRANCH  11  28
BRANCH   1  36
ATOM     36  O   UNL     1      -0.796  12.912  17.448  0.00  0.00    +0.000 OA
ATOM     37  H   UNL     1       0.099  13.120  17.138  0.00  0.00    +0.000 HD
ENDBRANCH   1  36
TORSDOF 4
ENDMDL
MODEL 5
REMARK VINA RESULT:      -8.2      4.761     10.152
REMARK  Name = 
REMARK  5 active torsions:
REMARK  status: ('A' for Active; 'I' for Inactive)
REMARK    1  A    between atoms: C_1  and  O_2
REMARK    2  A    between atoms: O_2  and  C_3
REMARK    3  A    between atoms: C_11  and  C_12
REMARK    4  A    between atoms: C_12  and  O_13
REMARK    5  A    between atoms: N_23  and  C_24
REMARK                            x       y       z     vdW  Elec       q    Type
REMARK                         _______ _______ _______ _____ _____    ______ ____
ROOT
ATOM      1  C   UNL     1      -0.898  13.001  19.438  0.00  0.00    +0.000 C 
ATOM      2  C   UNL     1      -2.301  13.005  19.984  0.00  0.00    +0.000 A 
ATOM      3  C   UNL     1      -3.396  12.239  19.648  0.00  0.00    +0.000 A 
ATOM      4  F   UNL     1      -3.303  11.311  18.686  0.00  0.00    +0.000 F 
ATOM      5  C   UNL     1      -4.616  12.450  20.296  0.00  0.00    +0.000 A 
ATOM      6  C   UNL     1      -4.733  13.442  21.284  0.00  0.00    +0.000 A 
ATOM      7  C   UNL     1      -3.631  14.230  21.619  0.00  0.00    +0.000 A 
ATOM      8  C   UNL     1      -2.443  13.988  20.950  0.00  0.00    +0.000 A 
ATOM      9  C   UNL     1      -1.162  14.673  21.094  0.00  0.00    +0.000 C 
ATOM     10  O   UNL     1      -1.031  15.590  21.884  0.00  0.00    +0.000 OA
ATOM     11  N   UNL     1      -0.255  14.081  20.208  0.00  0.00    +0.000 N 
ENDROOT
BRANCH   1  20
ATOM     12  C   UNL     1       3.274   5.700  19.132  0.00  0.00    +0.000 C 
ATOM     13  O   UNL     1       2.899   5.438  20.265  0.00  0.00    +0.000 OA
ATOM     14  N   UNL     1       3.010   6.813  18.377  0.00  0.00    +0.000 N 
ATOM     15  C   UNL     1       2.248   7.847  18.856  0.00  0.00    +0.000 A 
ATOM     16  N   UNL     1       1.714   7.954  20.049  0.00  0.00    +0.000 NA
ATOM     17  C   UNL     1       1.041   9.143  20.063  0.00  0.00    +0.000 A 
ATOM     18  C   UNL     1       0.317   9.737  21.099  0.00  0.00    +0.000 A 
ATOM     19  C   UNL     1      -0.292  10.978  20.867  0.00  0.00    +0.000 A 
ATOM     20  C   UNL     1      -0.208  11.633  19.618  0.00  0.00    +0.000 A 
ATOM     21  C   UNL     1       0.535  11.024  18.575  0.00  0.00    +0.000 A 
ATOM     22  C   UNL     1       1.147   9.789  18.840  0.00  0.00    +0.000 A 
ATOM     23  N   UNL     1       1.947   8.952  18.095  0.00  0.00    +0.000 N 
ATOM     24  H   UNL     1       3.394   6.824  17.448  0.00  0.00    +0.000 HD
ATOM     25  H   UNL     1       2.256   9.119  17.151  0.00  0.00    +0.000 HD
BRANCH  12  27
ATOM     26  C   UNL     1       4.217   3.564  18.993  0.00  0.00    +0.000 C 
ATOM     27  O   UNL     1       4.052   4.855  18.395  0.00  0.00    +0.000 OA
ENDBRANCH  12  27
ENDBRANCH   1  20
BRANCH  11  28
ATOM     28  C   UNL     1       1.133  14.429  20.123  0.00  0.00    +0.000 A 
ATOM     29  C   UNL     1       2.060  13.859  21.017  0.00  0.00    +0.000 A 
ATOM     30  C   UNL     1       3.434  14.114  20.925  0.00  0.00    +0.000 A 
ATOM     31  C   UNL     1       3.920  14.960  19.936  0.00  0.00    +0.000 A 
ATOM     32  C   UNL     1       3.025  15.559  19.057  0.00  0.00    +0.000 A 
ATOM     33 CL   UNL     1       3.630  16.625  17.843  0.00  0.00    +0.000 Cl
ATOM     34  C   UNL     1       1.652  15.303  19.152  0.00  0.00    +0.000 A 
ATOM     35  F   UNL     1       0.842  15.958  18.307  0.00  0.00    +0.000 F 
ENDBRANCH  11  28
BRANCH   1  36
ATOM     36  O   UNL     1      -1.042  13.424  18.089  0.00  0.00    +0.000 OA
ATOM     37  H   UNL     1      -1.995  13.429  17.907  0.00  0.00    +0.000 HD
ENDBRANCH   1  36
TORSDOF 4
ENDMDL
MODEL 6
REMARK VINA RESULT:      -8.1      6.957     10.217
REMARK  Name = 
REMARK  5 active torsions:
REMARK  status: ('A' for Active; 'I' for Inactive)
REMARK    1  A    between atoms: C_1  and  O_2
REMARK    2  A    between atoms: O_2  and  C_3
REMARK    3  A    between atoms: C_11  and  C_12
REMARK    4  A    between atoms: C_12  and  O_13
REMARK    5  A    between atoms: N_23  and  C_24
REMARK                            x       y       z     vdW  Elec       q    Type
REMARK                         _______ _______ _______ _____ _____    ______ ____
ROOT
ATOM      1  C   UNL     1      10.288  12.772  19.781  0.00  0.00    +0.000 C 
ATOM      2  C   UNL     1      10.936  13.702  18.791  0.00  0.00    +0.000 A 
ATOM      3  C   UNL     1      11.861  13.453  17.800  0.00  0.00    +0.000 A 
ATOM      4  F   UNL     1      12.329  12.214  17.608  0.00  0.00    +0.000 F 
ATOM      5  C   UNL     1      12.333  14.506  17.013  0.00  0.00    +0.000 A 
ATOM      6  C   UNL     1      11.873  15.816  17.227  0.00  0.00    +0.000 A 
ATOM      7  C   UNL     1      10.946  16.076  18.237  0.00  0.00    +0.000 A 
ATOM      8  C   UNL     1      10.507  15.003  18.996  0.00  0.00    +0.000 A 
ATOM      9  C   UNL     1       9.566  15.002  20.111  0.00  0.00    +0.000 C 
ATOM     10  O   UNL     1       9.050  16.037  20.492  0.00  0.00    +0.000 OA
ATOM     11  N   UNL     1       9.434  13.685  20.563  0.00  0.00    +0.000 N 
ENDROOT
BRANCH   1  20
ATOM     12  C   UNL     1       6.587   5.794  16.878  0.00  0.00    +0.000 C 
ATOM     13  O   UNL     1       6.033   6.450  16.009  0.00  0.00    +0.000 OA
ATOM     14  N   UNL     1       7.442   6.221  17.860  0.00  0.00    +0.000 N 
ATOM     15  C   UNL     1       7.785   7.541  17.995  0.00  0.00    +0.000 A 
ATOM     16  N   UNL     1       7.352   8.552  17.281  0.00  0.00    +0.000 NA
ATOM     17  C   UNL     1       7.975   9.665  17.772  0.00  0.00    +0.000 A 
ATOM     18  C   UNL     1       7.848  10.997  17.375  0.00  0.00    +0.000 A 
ATOM     19  C   UNL     1       8.602  11.972  18.042  0.00  0.00    +0.000 A 
ATOM     20  C   UNL     1       9.495  11.644  19.088  0.00  0.00    +0.000 A 
ATOM     21  C   UNL     1       9.611  10.289  19.487  0.00  0.00    +0.000 A 
ATOM     22  C   UNL     1       8.832   9.337  18.813  0.00  0.00    +0.000 A 
ATOM     23  N   UNL     1       8.671   7.976  18.953  0.00  0.00    +0.000 N 
ATOM     24  H   UNL     1       7.815   5.512  18.467  0.00  0.00    +0.000 HD
ATOM     25  H   UNL     1       9.129   7.396  19.639  0.00  0.00    +0.000 HD
BRANCH  12  27
ATOM     26  C   UNL     1       5.084   4.042  17.255  0.00  0.00    +0.000 C 
ATOM     27  O   UNL     1       6.434   4.443  16.998  0.00  0.00    +0.000 OA
ENDBRANCH  12  27
ENDBRANCH   1  20
BRANCH  11  28
ATOM     28  C   UNL     1       8.529  13.273  21.595  0.00  0.00    +0.000 A 
ATOM     29  C   UNL     1       8.967  12.404  22.613  0.00  0.00    +0.000 A 
ATOM     30  C   UNL     1       8.139  12.032  23.679  0.00  0.00    +0.000 A 
ATOM     31  C   UNL     1       6.839  12.515  23.752  0.00  0.00    +0.000 A 
ATOM     32  C   UNL     1       6.370  13.351  22.746  0.00  0.00    +0.000 A 
ATOM     33 CL   UNL     1       4.747  13.932  22.828  0.00  0.00    +0.000 Cl
ATOM     34  C   UNL     1       7.199  13.721  21.680  0.00  0.00    +0.000 A 
ATOM     35  F   UNL     1       6.664  14.486  20.718  0.00  0.00    +0.000 F 
ENDBRANCH  11  28
BRANCH   1  36
ATOM     36  O   UNL     1      11.358  12.329  20.604  0.00  0.00    +0.000 OA
ATOM     37  H   UNL     1      11.908  11.755  20.048  0.00  0.00    +0.000 HD
ENDBRANCH   1  36
TORSDOF 4
ENDMDL
MODEL 7
REMARK VINA RESULT:      -8.1      4.956     10.142
REMARK  Name = 
REMARK  5 active torsions:
REMARK  status: ('A' for Active; 'I' for Inactive)
REMARK    1  A    between atoms: C_1  and  O_2
REMARK    2  A    between atoms: O_2  and  C_3
REMARK    3  A    between atoms: C_11  and  C_12
REMARK    4  A    between atoms: C_12  and  O_13
REMARK    5  A    between atoms: N_23  and  C_24
REMARK                            x       y       z     vdW  Elec       q    Type
REMARK                         _______ _______ _______ _____ _____    ______ ____
ROOT
ATOM      1  C   UNL     1      -0.534  13.659  20.599  0.00  0.00    +0.000 C 
ATOM      2  C   UNL     1      -1.454  13.624  21.791  0.00  0.00    +0.000 A 
ATOM      3  C   UNL     1      -2.640  12.951  21.988  0.00  0.00    +0.000 A 
ATOM      4  F   UNL     1      -3.147  12.177  21.021  0.00  0.00    +0.000 F 
ATOM      5  C   UNL     1      -3.329  13.101  23.194  0.00  0.00    +0.000 A 
ATOM      6  C   UNL     1      -2.822  13.936  24.204  0.00  0.00    +0.000 A 
ATOM      7  C   UNL     1      -1.628  14.630  24.004  0.00  0.00    +0.000 A 
ATOM      8  C   UNL     1      -0.979  14.454  22.793  0.00  0.00    +0.000 A 
ATOM      9  C   UNL     1       0.259  15.069  22.327  0.00  0.00    +0.000 C 
ATOM     10  O   UNL     1       0.870  15.852  23.031  0.00  0.00    +0.000 OA
ATOM     11  N   UNL     1       0.521  14.590  21.040  0.00  0.00    +0.000 N 
ENDROOT
BRANCH   1  20
ATOM     12  C   UNL     1       2.443   5.812  19.979  0.00  0.00    +0.000 C 
ATOM     13  O   UNL     1       2.500   5.930  18.764  0.00  0.00    +0.000 OA
ATOM     14  N   UNL     1       2.021   6.725  20.910  0.00  0.00    +0.000 N 
ATOM     15  C   UNL     1       1.563   7.966  20.549  0.00  0.00    +0.000 A 
ATOM     16  N   UNL     1       1.426   8.440  19.334  0.00  0.00    +0.000 NA
ATOM     17  C   UNL     1       0.949   9.713  19.470  0.00  0.00    +0.000 A 
ATOM     18  C   UNL     1       0.616  10.643  18.484  0.00  0.00    +0.000 A 
ATOM     19  C   UNL     1       0.140  11.901  18.878  0.00  0.00    +0.000 A 
ATOM     20  C   UNL     1       0.004  12.258  20.239  0.00  0.00    +0.000 A 
ATOM     21  C   UNL     1       0.338  11.304  21.233  0.00  0.00    +0.000 A 
ATOM     22  C   UNL     1       0.797  10.048  20.808  0.00  0.00    +0.000 A 
ATOM     23  N   UNL     1       1.171   8.903  21.477  0.00  0.00    +0.000 N 
ATOM     24  H   UNL     1       2.078   6.440  21.873  0.00  0.00    +0.000 HD
ATOM     25  H   UNL     1       1.163   8.775  22.476  0.00  0.00    +0.000 HD
BRANCH  12  27
ATOM     26  C   UNL     1       1.738   3.858  21.053  0.00  0.00    +0.000 C 
ATOM     27  O   UNL     1       2.833   4.680  20.633  0.00  0.00    +0.000 OA
ENDBRANCH  12  27
ENDBRANCH   1  20
BRANCH  11  28
ATOM     28  C   UNL     1       1.699  14.903  20.286  0.00  0.00    +0.000 A 
ATOM     29  C   UNL     1       2.933  14.319  20.629  0.00  0.00    +0.000 A 
ATOM     30  C   UNL     1       4.094  14.540  19.878  0.00  0.00    +0.000 A 
ATOM     31  C   UNL     1       4.054  15.364  18.761  0.00  0.00    +0.000 A 
ATOM     32  C   UNL     1       2.855  15.977  18.415  0.00  0.00    +0.000 A 
ATOM     33 CL   UNL     1       2.814  17.017  17.038  0.00  0.00    +0.000 Cl
ATOM     34  C   UNL     1       1.696  15.755  19.168  0.00  0.00    +0.000 A 
ATOM     35  F   UNL     1       0.589  16.422  18.808  0.00  0.00    +0.000 F 
ENDBRANCH  11  28
BRANCH   1  36
ATOM     36  O   UNL     1      -1.300  14.284  19.579  0.00  0.00    +0.000 OA
ATOM     37  H   UNL     1      -1.349  15.224  19.815  0.00  0.00    +0.000 HD
ENDBRANCH   1  36
TORSDOF 4
ENDMDL
MODEL 8
REMARK VINA RESULT:      -8.0      2.407      4.832
REMARK  Name = 
REMARK  5 active torsions:
REMARK  status: ('A' for Active; 'I' for Inactive)
REMARK    1  A    between atoms: C_1  and  O_2
REMARK    2  A    between atoms: O_2  and  C_3
REMARK    3  A    between atoms: C_11  and  C_12
REMARK    4  A    between atoms: C_12  and  O_13
REMARK    5  A    between atoms: N_23  and  C_24
REMARK                            x       y       z     vdW  Elec       q    Type
REMARK                         _______ _______ _______ _____ _____    ______ ____
ROOT
ATOM      1  C   UNL     1       3.211   5.366  19.322  0.00  0.00    +0.000 C 
ATOM      2  C   UNL     1       2.215   4.239  19.267  0.00  0.00    +0.000 A 
ATOM      3  C   UNL     1       1.096   3.994  20.034  0.00  0.00    +0.000 A 
ATOM      4  F   UNL     1       0.754   4.833  21.019  0.00  0.00    +0.000 F 
ATOM      5  C   UNL     1       0.333   2.847  19.799  0.00  0.00    +0.000 A 
ATOM      6  C   UNL     1       0.701   1.943  18.789  0.00  0.00    +0.000 A 
ATOM      7  C   UNL     1       1.840   2.179  18.019  0.00  0.00    +0.000 A 
ATOM      8  C   UNL     1       2.569   3.326  18.287  0.00  0.00    +0.000 A 
ATOM      9  C   UNL     1       3.796   3.795  17.650  0.00  0.00    +0.000 C 
ATOM     10  O   UNL     1       4.316   3.156  16.754  0.00  0.00    +0.000 OA
ATOM     11  N   UNL     1       4.163   5.000  18.257  0.00  0.00    +0.000 N 
ENDROOT
BRANCH   1  20
ATOM     12  C   UNL     1      -0.572  12.882  19.444  0.00  0.00    +0.000 C 
ATOM     13  O   UNL     1      -0.532  12.922  18.224  0.00  0.00    +0.000 OA
ATOM     14  N   UNL     1      -0.116  11.901  20.286  0.00  0.00    +0.000 N 
ATOM     15  C   UNL     1       0.501  10.772  19.812  0.00  0.00    +0.000 A 
ATOM     16  N   UNL     1       0.773  10.480  18.562  0.00  0.00    +0.000 NA
ATOM     17  C   UNL     1       1.379   9.256  18.577  0.00  0.00    +0.000 A 
ATOM     18  C   UNL     1       1.881   8.504  17.513  0.00  0.00    +0.000 A 
ATOM     19  C   UNL     1       2.466   7.260  17.785  0.00  0.00    +0.000 A 
ATOM     20  C   UNL     1       2.547   6.740  19.097  0.00  0.00    +0.000 A 
ATOM     21  C   UNL     1       2.040   7.515  20.171  0.00  0.00    +0.000 A 
ATOM     22  C   UNL     1       1.475   8.763  19.871  0.00  0.00    +0.000 A 
ATOM     23  N   UNL     1       0.930   9.765  20.643  0.00  0.00    +0.000 N 
ATOM     24  H   UNL     1      -0.270  12.047  21.268  0.00  0.00    +0.000 HD
ATOM     25  H   UNL     1       0.855   9.759  21.648  0.00  0.00    +0.000 HD
BRANCH  12  27
ATOM     26  C   UNL     1      -2.291  13.450  20.925  0.00  0.00    +0.000 C 
ATOM     27  O   UNL     1      -1.130  13.872  20.200  0.00  0.00    +0.000 OA
ENDBRANCH  12  27
ENDBRANCH   1  20
BRANCH  11  28
ATOM     28  C   UNL     1       5.272   5.808  17.841  0.00  0.00    +0.000 A 
ATOM     29  C   UNL     1       5.258   6.431  16.578  0.00  0.00    +0.000 A 
ATOM     30  C   UNL     1       6.286   7.285  16.160  0.00  0.00    +0.000 A 
ATOM     31  C   UNL     1       7.367   7.533  16.995  0.00  0.00    +0.000 A 
ATOM     32  C   UNL     1       7.422   6.909  18.236  0.00  0.00    +0.000 A 
ATOM     33 CL   UNL     1       8.777   7.204  19.263  0.00  0.00    +0.000 Cl
ATOM     34  C   UNL     1       6.394   6.055  18.651  0.00  0.00    +0.000 A 
ATOM     35  F   UNL     1       6.539   5.446  19.838  0.00  0.00    +0.000 F 
ENDBRANCH  11  28
BRANCH   1  36
ATOM     36  O   UNL     1       3.852   5.212  20.581  0.00  0.00    +0.000 OA
ATOM     37  H   UNL     1       3.151   5.000  21.217  0.00  0.00    +0.000 HD
ENDBRANCH   1  36
TORSDOF 4
ENDMDL
MODEL 9
REMARK VINA RESULT:      -7.9      5.636     12.062
REMARK  Name = 
REMARK  5 active torsions:
REMARK  status: ('A' for Active; 'I' for Inactive)
REMARK    1  A    between atoms: C_1  and  O_2
REMARK    2  A    between atoms: O_2  and  C_3
REMARK    3  A    between atoms: C_11  and  C_12
REMARK    4  A    between atoms: C_12  and  O_13
REMARK    5  A    between atoms: N_23  and  C_24
REMARK                            x       y       z     vdW  Elec       q    Type
REMARK                         _______ _______ _______ _____ _____    ______ ____
ROOT
ATOM      1  C   UNL     1      -3.809  14.269  24.339  0.00  0.00    +0.000 C 
ATOM      2  C   UNL     1      -3.311  15.610  24.809  0.00  0.00    +0.000 A 
ATOM      3  C   UNL     1      -2.122  15.965  25.408  0.00  0.00    +0.000 A 
ATOM      4  F   UNL     1      -1.189  15.039  25.662  0.00  0.00    +0.000 F 
ATOM      5  C   UNL     1      -1.902  17.295  25.776  0.00  0.00    +0.000 A 
ATOM      6  C   UNL     1      -2.886  18.269  25.544  0.00  0.00    +0.000 A 
ATOM      7  C   UNL     1      -4.098  17.913  24.950  0.00  0.00    +0.000 A 
ATOM      8  C   UNL     1      -4.275  16.584  24.603  0.00  0.00    +0.000 A 
ATOM      9  C   UNL     1      -5.440  15.950  23.994  0.00  0.00    +0.000 C 
ATOM     10  O   UNL     1      -6.431  16.601  23.720  0.00  0.00    +0.000 OA
ATOM     11  N   UNL     1      -5.155  14.590  23.833  0.00  0.00    +0.000 N 
ENDROOT
BRANCH   1  20
ATOM     12  C   UNL     1       1.168   9.773  19.257  0.00  0.00    +0.000 C 
ATOM     13  O   UNL     1       1.321  10.751  18.541  0.00  0.00    +0.000 OA
ATOM     14  N   UNL     1       0.425   9.656  20.403  0.00  0.00    +0.000 N 
ATOM     15  C   UNL     1      -0.300  10.706  20.903  0.00  0.00    +0.000 A 
ATOM     16  N   UNL     1      -0.427  11.904  20.384  0.00  0.00    +0.000 NA
ATOM     17  C   UNL     1      -1.233  12.608  21.233  0.00  0.00    +0.000 A 
ATOM     18  C   UNL     1      -1.691  13.923  21.132  0.00  0.00    +0.000 A 
ATOM     19  C   UNL     1      -2.519  14.426  22.144  0.00  0.00    +0.000 A 
ATOM     20  C   UNL     1      -2.888  13.651  23.267  0.00  0.00    +0.000 A 
ATOM     21  C   UNL     1      -2.422  12.315  23.357  0.00  0.00    +0.000 A 
ATOM     22  C   UNL     1      -1.608  11.832  22.321  0.00  0.00    +0.000 A 
ATOM     23  N   UNL     1      -1.020  10.612  22.071  0.00  0.00    +0.000 N 
ATOM     24  H   UNL     1       0.452   8.763  20.864  0.00  0.00    +0.000 HD
ATOM     25  H   UNL     1      -1.101   9.790  22.648  0.00  0.00    +0.000 HD
BRANCH  12  27
ATOM     26  C   UNL     1       2.419   8.512  17.735  0.00  0.00    +0.000 C 
ATOM     27  O   UNL     1       1.770   8.573  19.010  0.00  0.00    +0.000 OA
ENDBRANCH  12  27
ENDBRANCH   1  20
BRANCH  11  28
ATOM     28  C   UNL     1      -6.029  13.654  23.188  0.00  0.00    +0.000 A 
ATOM     29  C   UNL     1      -6.822  12.782  23.958  0.00  0.00    +0.000 A 
ATOM     30  C   UNL     1      -7.740  11.901  23.372  0.00  0.00    +0.000 A 
ATOM     31  C   UNL     1      -7.885  11.863  21.992  0.00  0.00    +0.000 A 
ATOM     32  C   UNL     1      -7.095  12.693  21.205  0.00  0.00    +0.000 A 
ATOM     33 CL   UNL     1      -7.262  12.628  19.489  0.00  0.00    +0.000 Cl
ATOM     34  C   UNL     1      -6.176  13.571  21.792  0.00  0.00    +0.000 A 
ATOM     35  F   UNL     1      -5.409  14.303  20.970  0.00  0.00    +0.000 F 
ENDBRANCH  11  28
BRANCH   1  36
ATOM     36  O   UNL     1      -3.938  13.503  25.529  0.00  0.00    +0.000 OA
ATOM     37  H   UNL     1      -3.646  14.077  26.254  0.00  0.00    +0.000 HD
ENDBRANCH   1  36
TORSDOF 4
ENDMDL
