MODEL 1
REMARK VINA RESULT:      -7.4      0.000      0.000
REMARK  Name = 
REMARK  20 active torsions:
REMARK  status: ('A' for Active; 'I' for Inactive)
REMARK    1  A    between atoms: C_1  and  C_2
REMARK    2  A    between atoms: C_2  and  C_3
REMARK    3  A    between atoms: C_3  and  C_4
REMARK    4  A    between atoms: C_4  and  C_5
REMARK    5  A    between atoms: C_5  and  C_6
REMARK    6  A    between atoms: C_6  and  C_7
REMARK    7  A    between atoms: C_7  and  C_8
REMARK    8  A    between atoms: C_8  and  N_9
REMARK    9  A    between atoms: N_9  and  C_10
REMARK   10  A    between atoms: C_10  and  C_11
REMARK   11  A    between atoms: C_11  and  C_12
REMARK   12  A    between atoms: C_12  and  C_13
REMARK   13  A    between atoms: C_13  and  C_14
REMARK   14  A    between atoms: C_14  and  C_15
REMARK   15  A    between atoms: C_15  and  C_16
REMARK   16  A    between atoms: C_16  and  C_17
REMARK   17  A    between atoms: C_18  and  C_20
REMARK   18  A    between atoms: C_20  and  N_21
REMARK   19  A    between atoms: C_20  and  C_22
REMARK   20  A    between atoms: C_22  and  C_23
REMARK                            x       y       z     vdW  Elec       q    Type
REMARK                         _______ _______ _______ _____ _____    ______ ____
ROOT
ATOM      1  N   UNL     1       6.650   6.509  17.717  0.00  0.00    +0.000 N 
ATOM      2  C   UNL     1       6.468   5.460  18.622  0.00  0.00    +0.000 C 
ATOM      3  O   UNL     1       7.389   5.190  19.386  0.00  0.00    +0.000 OA
ENDROOT
BRANCH   2   4
ATOM      4  C   UNL     1       5.212   4.640  18.732  0.00  0.00    +0.000 C 
BRANCH   4   5
ATOM      5  N   UNL     1       5.458   3.326  19.340  0.00  0.00    +0.000 NA
ATOM      6  H   UNL     1       5.579   3.396  20.376  0.00  0.00    +0.000 HD
ATOM      7  H   UNL     1       6.234   2.815  18.866  0.00  0.00    +0.000 HD
ENDBRANCH   4   5
BRANCH   4   8
ATOM      8  C   UNL     1       4.134   5.362  19.561  0.00  0.00    +0.000 C 
BRANCH   8   9
ATOM      9  C   UNL     1       2.899   4.522  19.604  0.00  0.00    +0.000 A 
ATOM     10  C   UNL     1       2.255   4.124  18.400  0.00  0.00    +0.000 A 
ATOM     11  C   UNL     1       1.074   3.401  18.448  0.00  0.00    +0.000 A 
ATOM     12  C   UNL     1       0.529   3.032  19.676  0.00  0.00    +0.000 A 
ATOM     13  C   UNL     1       1.181   3.391  20.857  0.00  0.00    +0.000 A 
ATOM     14  C   UNL     1       2.350   4.140  20.825  0.00  0.00    +0.000 A 
ENDBRANCH   8   9
ENDBRANCH   4   8
ENDBRANCH   2   4
BRANCH   1  15
ATOM     15  C   UNL     1       5.545   6.779  16.744  0.00  0.00    +0.000 C 
BRANCH  15  16
ATOM     16  C   UNL     1       5.574   6.057  15.390  0.00  0.00    +0.000 C 
BRANCH  16  17
ATOM     17  C   UNL     1       5.042   4.620  15.302  0.00  0.00    +0.000 C 
BRANCH  17  18
ATOM     18  C   UNL     1       6.158   3.800  14.616  0.00  0.00    +0.000 C 
BRANCH  18  19
ATOM     19  C   UNL     1       6.848   4.600  13.545  0.00  0.00    +0.000 C 
BRANCH  19  20
ATOM     20  C   UNL     1       6.909   3.816  12.234  0.00  0.00    +0.000 C 
BRANCH  20  21
ATOM     21  C   UNL     1       5.558   3.138  12.011  0.00  0.00    +0.000 C 
ATOM     22  C   UNL     1       5.725   1.772  11.374  0.00  0.00    +0.000 C 
ENDBRANCH  20  21
ENDBRANCH  19  20
ENDBRANCH  18  19
ENDBRANCH  17  18
ENDBRANCH  16  17
ENDBRANCH  15  16
ENDBRANCH   1  15
BRANCH   1  23
ATOM     23  C   UNL     1       7.955   7.221  17.745  0.00  0.00    +0.000 C 
BRANCH  23  24
ATOM     24  C   UNL     1       7.922   8.753  17.869  0.00  0.00    +0.000 C 
BRANCH  24  25
ATOM     25  C   UNL     1       8.697   9.437  18.969  0.00  0.00    +0.000 C 
BRANCH  25  26
ATOM     26  C   UNL     1       9.311  10.720  18.394  0.00  0.00    +0.000 C 
BRANCH  26  27
ATOM     27  C   UNL     1      10.420  11.193  19.278  0.00  0.00    +0.000 C 
BRANCH  27  28
ATOM     28  C   UNL     1      11.419  12.006  18.467  0.00  0.00    +0.000 C 
BRANCH  28  30
ATOM     29  C   UNL     1      11.467  13.647  16.583  0.00  0.00    +0.000 C 
ATOM     30  C   UNL     1      10.752  12.444  17.164  0.00  0.00    +0.000 C 
ENDBRANCH  28  30
ENDBRANCH  27  28
ENDBRANCH  26  27
ENDBRANCH  25  26
ENDBRANCH  24  25
ENDBRANCH  23  24
ENDBRANCH   1  23
TORSDOF 18
ENDMDL
MODEL 2
REMARK VINA RESULT:      -7.0      0.607      1.173
REMARK  Name = 
REMARK  20 active torsions:
REMARK  status: ('A' for Active; 'I' for Inactive)
REMARK    1  A    between atoms: C_1  and  C_2
REMARK    2  A    between atoms: C_2  and  C_3
REMARK    3  A    between atoms: C_3  and  C_4
REMARK    4  A    between atoms: C_4  and  C_5
REMARK    5  A    between atoms: C_5  and  C_6
REMARK    6  A    between atoms: C_6  and  C_7
REMARK    7  A    between atoms: C_7  and  C_8
REMARK    8  A    between atoms: C_8  and  N_9
REMARK    9  A    between atoms: N_9  and  C_10
REMARK   10  A    between atoms: C_10  and  C_11
REMARK   11  A    between atoms: C_11  and  C_12
REMARK   12  A    between atoms: C_12  and  C_13
REMARK   13  A    between atoms: C_13  and  C_14
REMARK   14  A    between atoms: C_14  and  C_15
REMARK   15  A    between atoms: C_15  and  C_16
REMARK   16  A    between atoms: C_16  and  C_17
REMARK   17  A    between atoms: C_18  and  C_20
REMARK   18  A    between atoms: C_20  and  N_21
REMARK   19  A    between atoms: C_20  and  C_22
REMARK   20  A    between atoms: C_22  and  C_23
REMARK                            x       y       z     vdW  Elec       q    Type
REMARK                         _______ _______ _______ _____ _____    ______ ____
ROOT
ATOM      1  N   UNL     1       6.588   6.518  17.937  0.00  0.00    +0.000 N 
ATOM      2  C   UNL     1       6.481   5.287  18.590  0.00  0.00    +0.000 C 
ATOM      3  O   UNL     1       7.492   4.813  19.099  0.00  0.00    +0.000 OA
ENDROOT
BRANCH   2   4
ATOM      4  C   UNL     1       5.205   4.502  18.720  0.00  0.00    +0.000 C 
BRANCH   4   5
ATOM      5  N   UNL     1       5.432   3.160  19.270  0.00  0.00    +0.000 NA
ATOM      6  H   UNL     1       4.605   2.536  19.124  0.00  0.00    +0.000 HD
ATOM      7  H   UNL     1       5.756   3.192  20.260  0.00  0.00    +0.000 HD
ENDBRANCH   4   5
BRANCH   4   8
ATOM      8  C   UNL     1       4.183   5.226  19.617  0.00  0.00    +0.000 C 
BRANCH   8   9
ATOM      9  C   UNL     1       2.896   4.467  19.609  0.00  0.00    +0.000 A 
ATOM     10  C   UNL     1       2.307   4.034  20.829  0.00  0.00    +0.000 A 
ATOM     11  C   UNL     1       1.148   3.273  20.812  0.00  0.00    +0.000 A 
ATOM     12  C   UNL     1       0.537   2.957  19.601  0.00  0.00    +0.000 A 
ATOM     13  C   UNL     1       1.096   3.414  18.405  0.00  0.00    +0.000 A 
ATOM     14  C   UNL     1       2.272   4.152  18.405  0.00  0.00    +0.000 A 
ENDBRANCH   8   9
ENDBRANCH   4   8
ENDBRANCH   2   4
BRANCH   1  15
ATOM     15  C   UNL     1       5.363   7.048  17.261  0.00  0.00    +0.000 C 
BRANCH  15  16
ATOM     16  C   UNL     1       5.027   6.532  15.855  0.00  0.00    +0.000 C 
BRANCH  16  17
ATOM     17  C   UNL     1       6.071   5.699  15.100  0.00  0.00    +0.000 C 
BRANCH  17  18
ATOM     18  C   UNL     1       5.358   4.382  14.714  0.00  0.00    +0.000 C 
BRANCH  18  19
ATOM     19  C   UNL     1       6.260   3.486  13.910  0.00  0.00    +0.000 C 
BRANCH  19  20
ATOM     20  C   UNL     1       5.791   3.403  12.457  0.00  0.00    +0.000 C 
BRANCH  20  21
ATOM     21  C   UNL     1       6.992   3.052  11.579  0.00  0.00    +0.000 C 
ATOM     22  C   UNL     1       6.908   1.624  11.076  0.00  0.00    +0.000 C 
ENDBRANCH  20  21
ENDBRANCH  19  20
ENDBRANCH  18  19
ENDBRANCH  17  18
ENDBRANCH  16  17
ENDBRANCH  15  16
ENDBRANCH   1  15
BRANCH   1  23
ATOM     23  C   UNL     1       7.928   7.163  17.906  0.00  0.00    +0.000 C 
BRANCH  23  24
ATOM     24  C   UNL     1       7.972   8.699  17.841  0.00  0.00    +0.000 C 
BRANCH  24  25
ATOM     25  C   UNL     1       8.814   9.471  18.827  0.00  0.00    +0.000 C 
BRANCH  25  26
ATOM     26  C   UNL     1       9.257  10.778  18.156  0.00  0.00    +0.000 C 
BRANCH  26  27
ATOM     27  C   UNL     1      10.150  11.544  19.078  0.00  0.00    +0.000 C 
BRANCH  27  28
ATOM     28  C   UNL     1      10.295  12.978  18.587  0.00  0.00    +0.000 C 
BRANCH  28  30
ATOM     29  C   UNL     1      11.760  14.185  16.961  0.00  0.00    +0.000 C 
ATOM     30  C   UNL     1      10.901  12.957  17.184  0.00  0.00    +0.000 C 
ENDBRANCH  28  30
ENDBRANCH  27  28
ENDBRANCH  26  27
ENDBRANCH  25  26
ENDBRANCH  24  25
ENDBRANCH  23  24
ENDBRANCH   1  23
TORSDOF 18
ENDMDL
MODEL 3
REMARK VINA RESULT:      -6.9      1.012      1.190
REMARK  Name = 
REMARK  20 active torsions:
REMARK  status: ('A' for Active; 'I' for Inactive)
REMARK    1  A    between atoms: C_1  and  C_2
REMARK    2  A    between atoms: C_2  and  C_3
REMARK    3  A    between atoms: C_3  and  C_4
REMARK    4  A    between atoms: C_4  and  C_5
REMARK    5  A    between atoms: C_5  and  C_6
REMARK    6  A    between atoms: C_6  and  C_7
REMARK    7  A    between atoms: C_7  and  C_8
REMARK    8  A    between atoms: C_8  and  N_9
REMARK    9  A    between atoms: N_9  and  C_10
REMARK   10  A    between atoms: C_10  and  C_11
REMARK   11  A    between atoms: C_11  and  C_12
REMARK   12  A    between atoms: C_12  and  C_13
REMARK   13  A    between atoms: C_13  and  C_14
REMARK   14  A    between atoms: C_14  and  C_15
REMARK   15  A    between atoms: C_15  and  C_16
REMARK   16  A    between atoms: C_16  and  C_17
REMARK   17  A    between atoms: C_18  and  C_20
REMARK   18  A    between atoms: C_20  and  N_21
REMARK   19  A    between atoms: C_20  and  C_22
REMARK   20  A    between atoms: C_22  and  C_23
REMARK                            x       y       z     vdW  Elec       q    Type
REMARK                         _______ _______ _______ _____ _____    ______ ____
ROOT
ATOM      1  N   UNL     1       6.831   6.476  17.976  0.00  0.00    +0.000 N 
ATOM      2  C   UNL     1       6.481   5.527  18.941  0.00  0.00    +0.000 C 
ATOM      3  O   UNL     1       7.239   5.366  19.893  0.00  0.00    +0.000 OA
ENDROOT
BRANCH   2   4
ATOM      4  C   UNL     1       5.231   4.692  18.899  0.00  0.00    +0.000 C 
BRANCH   4   5
ATOM      5  N   UNL     1       5.453   3.335  19.414  0.00  0.00    +0.000 NA
ATOM      6  H   UNL     1       4.773   2.652  19.009  0.00  0.00    +0.000 HD
ATOM      7  H   UNL     1       5.490   3.313  20.456  0.00  0.00    +0.000 HD
ENDBRANCH   4   5
BRANCH   4   8
ATOM      8  C   UNL     1       4.091   5.338  19.709  0.00  0.00    +0.000 C 
BRANCH   8   9
ATOM      9  C   UNL     1       2.902   4.433  19.694  0.00  0.00    +0.000 A 
ATOM     10  C   UNL     1       2.301   4.052  18.463  0.00  0.00    +0.000 A 
ATOM     11  C   UNL     1       1.159   3.268  18.458  0.00  0.00    +0.000 A 
ATOM     12  C   UNL     1       0.612   2.821  19.659  0.00  0.00    +0.000 A 
ATOM     13  C   UNL     1       1.224   3.164  20.867  0.00  0.00    +0.000 A 
ATOM     14  C   UNL     1       2.353   3.974  20.888  0.00  0.00    +0.000 A 
ENDBRANCH   8   9
ENDBRANCH   4   8
ENDBRANCH   2   4
BRANCH   1  15
ATOM     15  C   UNL     1       5.933   6.610  16.786  0.00  0.00    +0.000 C 
BRANCH  15  16
ATOM     16  C   UNL     1       5.565   5.341  16.005  0.00  0.00    +0.000 C 
BRANCH  16  17
ATOM     17  C   UNL     1       5.828   5.296  14.494  0.00  0.00    +0.000 C 
BRANCH  17  18
ATOM     18  C   UNL     1       6.167   3.823  14.170  0.00  0.00    +0.000 C 
BRANCH  18  19
ATOM     19  C   UNL     1       6.351   3.614  12.692  0.00  0.00    +0.000 C 
BRANCH  19  20
ATOM     20  C   UNL     1       5.176   2.832  12.102  0.00  0.00    +0.000 C 
BRANCH  20  21
ATOM     21  C   UNL     1       5.727   1.795  11.125  0.00  0.00    +0.000 C 
ATOM     22  C   UNL     1       7.232   1.661  11.253  0.00  0.00    +0.000 C 
ENDBRANCH  20  21
ENDBRANCH  19  20
ENDBRANCH  18  19
ENDBRANCH  17  18
ENDBRANCH  16  17
ENDBRANCH  15  16
ENDBRANCH   1  15
BRANCH   1  23
ATOM     23  C   UNL     1       8.103   7.219  18.174  0.00  0.00    +0.000 C 
BRANCH  23  24
ATOM     24  C   UNL     1       8.076   8.740  17.950  0.00  0.00    +0.000 C 
BRANCH  24  25
ATOM     25  C   UNL     1       8.920   9.645  18.814  0.00  0.00    +0.000 C 
BRANCH  25  26
ATOM     26  C   UNL     1       9.076  10.988  18.089  0.00  0.00    +0.000 C 
BRANCH  26  27
ATOM     27  C   UNL     1      10.473  11.494  18.254  0.00  0.00    +0.000 C 
BRANCH  27  28
ATOM     28  C   UNL     1      10.474  12.742  19.125  0.00  0.00    +0.000 C 
BRANCH  28  30
ATOM     29  C   UNL     1       8.697  14.466  19.464  0.00  0.00    +0.000 C 
ATOM     30  C   UNL     1       9.613  13.810  18.451  0.00  0.00    +0.000 C 
ENDBRANCH  28  30
ENDBRANCH  27  28
ENDBRANCH  26  27
ENDBRANCH  25  26
ENDBRANCH  24  25
ENDBRANCH  23  24
ENDBRANCH   1  23
TORSDOF 18
ENDMDL
MODEL 4
REMARK VINA RESULT:      -6.7      1.874      7.644
REMARK  Name = 
REMARK  20 active torsions:
REMARK  status: ('A' for Active; 'I' for Inactive)
REMARK    1  A    between atoms: C_1  and  C_2
REMARK    2  A    between atoms: C_2  and  C_3
REMARK    3  A    between atoms: C_3  and  C_4
REMARK    4  A    between atoms: C_4  and  C_5
REMARK    5  A    between atoms: C_5  and  C_6
REMARK    6  A    between atoms: C_6  and  C_7
REMARK    7  A    between atoms: C_7  and  C_8
REMARK    8  A    between atoms: C_8  and  N_9
REMARK    9  A    between atoms: N_9  and  C_10
REMARK   10  A    between atoms: C_10  and  C_11
REMARK   11  A    between atoms: C_11  and  C_12
REMARK   12  A    between atoms: C_12  and  C_13
REMARK   13  A    between atoms: C_13  and  C_14
REMARK   14  A    between atoms: C_14  and  C_15
REMARK   15  A    between atoms: C_15  and  C_16
REMARK   16  A    between atoms: C_16  and  C_17
REMARK   17  A    between atoms: C_18  and  C_20
REMARK   18  A    between atoms: C_20  and  N_21
REMARK   19  A    between atoms: C_20  and  C_22
REMARK   20  A    between atoms: C_22  and  C_23
REMARK                            x       y       z     vdW  Elec       q    Type
REMARK                         _______ _______ _______ _____ _____    ______ ____
ROOT
ATOM      1  N   UNL     1       5.730   4.577  16.641  0.00  0.00    +0.000 N 
ATOM      2  C   UNL     1       4.348   4.712  16.803  0.00  0.00    +0.000 C 
ATOM      3  O   UNL     1       3.615   4.153  15.994  0.00  0.00    +0.000 OA
ENDROOT
BRANCH   2   4
ATOM      4  C   UNL     1       3.695   5.491  17.911  0.00  0.00    +0.000 C 
BRANCH   4   5
ATOM      5  N   UNL     1       3.866   6.940  17.746  0.00  0.00    +0.000 NA
ATOM      6  H   UNL     1       3.673   7.243  16.764  0.00  0.00    +0.000 HD
ATOM      7  H   UNL     1       4.788   7.268  18.107  0.00  0.00    +0.000 HD
ENDBRANCH   4   5
BRANCH   4   8
ATOM      8  C   UNL     1       2.187   5.189  18.003  0.00  0.00    +0.000 C 
BRANCH   8   9
ATOM      9  C   UNL     1       1.941   4.246  19.136  0.00  0.00    +0.000 A 
ATOM     10  C   UNL     1       2.350   4.582  20.455  0.00  0.00    +0.000 A 
ATOM     11  C   UNL     1       2.180   3.675  21.490  0.00  0.00    +0.000 A 
ATOM     12  C   UNL     1       1.576   2.443  21.247  0.00  0.00    +0.000 A 
ATOM     13  C   UNL     1       1.139   2.129  19.959  0.00  0.00    +0.000 A 
ATOM     14  C   UNL     1       1.330   3.016  18.907  0.00  0.00    +0.000 A 
ENDBRANCH   8   9
ENDBRANCH   4   8
ENDBRANCH   2   4
BRANCH   1  15
ATOM     15  C   UNL     1       6.611   5.322  17.593  0.00  0.00    +0.000 C 
BRANCH  15  16
ATOM     16  C   UNL     1       7.092   6.724  17.194  0.00  0.00    +0.000 C 
BRANCH  16  17
ATOM     17  C   UNL     1       7.981   7.510  18.168  0.00  0.00    +0.000 C 
BRANCH  17  18
ATOM     18  C   UNL     1       7.738   9.003  17.848  0.00  0.00    +0.000 C 
BRANCH  18  19
ATOM     19  C   UNL     1       9.020   9.788  17.887  0.00  0.00    +0.000 C 
BRANCH  19  20
ATOM     20  C   UNL     1       9.294  10.313  19.297  0.00  0.00    +0.000 C 
BRANCH  20  21
ATOM     21  C   UNL     1      10.487  11.266  19.236  0.00  0.00    +0.000 C 
ATOM     22  C   UNL     1      10.088  12.613  18.662  0.00  0.00    +0.000 C 
ENDBRANCH  20  21
ENDBRANCH  19  20
ENDBRANCH  18  19
ENDBRANCH  17  18
ENDBRANCH  16  17
ENDBRANCH  15  16
ENDBRANCH   1  15
BRANCH   1  23
ATOM     23  C   UNL     1       6.209   3.765  15.491  0.00  0.00    +0.000 C 
BRANCH  23  24
ATOM     24  C   UNL     1       6.682   4.522  14.238  0.00  0.00    +0.000 C 
BRANCH  24  25
ATOM     25  C   UNL     1       6.508   3.903  12.873  0.00  0.00    +0.000 C 
BRANCH  25  26
ATOM     26  C   UNL     1       5.007   3.830  12.569  0.00  0.00    +0.000 C 
BRANCH  26  27
ATOM     27  C   UNL     1       4.741   2.739  11.582  0.00  0.00    +0.000 C 
BRANCH  27  28
ATOM     28  C   UNL     1       3.429   3.003  10.857  0.00  0.00    +0.000 C 
BRANCH  28  30
ATOM     29  C   UNL     1       2.336   4.633   9.309  0.00  0.00    +0.000 C 
ATOM     30  C   UNL     1       3.660   4.090   9.807  0.00  0.00    +0.000 C 
ENDBRANCH  28  30
ENDBRANCH  27  28
ENDBRANCH  26  27
ENDBRANCH  25  26
ENDBRANCH  24  25
ENDBRANCH  23  24
ENDBRANCH   1  23
TORSDOF 18
ENDMDL
MODEL 5
REMARK VINA RESULT:      -6.6      1.622      2.743
REMARK  Name = 
REMARK  20 active torsions:
REMARK  status: ('A' for Active; 'I' for Inactive)
REMARK    1  A    between atoms: C_1  and  C_2
REMARK    2  A    between atoms: C_2  and  C_3
REMARK    3  A    between atoms: C_3  and  C_4
REMARK    4  A    between atoms: C_4  and  C_5
REMARK    5  A    between atoms: C_5  and  C_6
REMARK    6  A    between atoms: C_6  and  C_7
REMARK    7  A    between atoms: C_7  and  C_8
REMARK    8  A    between atoms: C_8  and  N_9
REMARK    9  A    between atoms: N_9  and  C_10
REMARK   10  A    between atoms: C_10  and  C_11
REMARK   11  A    between atoms: C_11  and  C_12
REMARK   12  A    between atoms: C_12  and  C_13
REMARK   13  A    between atoms: C_13  and  C_14
REMARK   14  A    between atoms: C_14  and  C_15
REMARK   15  A    between atoms: C_15  and  C_16
REMARK   16  A    between atoms: C_16  and  C_17
REMARK   17  A    between atoms: C_18  and  C_20
REMARK   18  A    between atoms: C_20  and  N_21
REMARK   19  A    between atoms: C_20  and  C_22
REMARK   20  A    between atoms: C_22  and  C_23
REMARK                            x       y       z     vdW  Elec       q    Type
REMARK                         _______ _______ _______ _____ _____    ______ ____
ROOT
ATOM      1  N   UNL     1       5.773   4.682  18.296  0.00  0.00    +0.000 N 
ATOM      2  C   UNL     1       4.891   3.707  18.773  0.00  0.00    +0.000 C 
ATOM      3  O   UNL     1       5.028   3.320  19.928  0.00  0.00    +0.000 OA
ENDROOT
BRANCH   2   4
ATOM      4  C   UNL     1       3.774   3.104  17.966  0.00  0.00    +0.000 C 
BRANCH   4   5
ATOM      5  N   UNL     1       3.909   1.648  17.834  0.00  0.00    +0.000 NA
ATOM      6  H   UNL     1       4.088   1.191  18.756  0.00  0.00    +0.000 HD
ATOM      7  H   UNL     1       4.600   1.384  17.099  0.00  0.00    +0.000 HD
ENDBRANCH   4   5
BRANCH   4   8
ATOM      8  C   UNL     1       2.398   3.409  18.587  0.00  0.00    +0.000 C 
BRANCH   8   9
ATOM      9  C   UNL     1       2.327   4.858  18.944  0.00  0.00    +0.000 A 
ATOM     10  C   UNL     1       2.074   5.260  20.283  0.00  0.00    +0.000 A 
ATOM     11  C   UNL     1       1.944   6.604  20.595  0.00  0.00    +0.000 A 
ATOM     12  C   UNL     1       2.093   7.570  19.603  0.00  0.00    +0.000 A 
ATOM     13  C   UNL     1       2.379   7.177  18.293  0.00  0.00    +0.000 A 
ATOM     14  C   UNL     1       2.483   5.832  17.961  0.00  0.00    +0.000 A 
ENDBRANCH   8   9
ENDBRANCH   4   8
ENDBRANCH   2   4
BRANCH   1  15
ATOM     15  C   UNL     1       5.637   5.091  16.863  0.00  0.00    +0.000 C 
BRANCH  15  16
ATOM     16  C   UNL     1       6.301   4.218  15.790  0.00  0.00    +0.000 C 
BRANCH  16  17
ATOM     17  C   UNL     1       5.422   3.562  14.717  0.00  0.00    +0.000 C 
BRANCH  17  18
ATOM     18  C   UNL     1       6.179   3.749  13.382  0.00  0.00    +0.000 C 
BRANCH  18  19
ATOM     19  C   UNL     1       5.226   3.881  12.226  0.00  0.00    +0.000 C 
BRANCH  19  20
ATOM     20  C   UNL     1       5.052   2.543  11.508  0.00  0.00    +0.000 C 
BRANCH  20  21
ATOM     21  C   UNL     1       6.384   1.795  11.546  0.00  0.00    +0.000 C 
ATOM     22  C   UNL     1       6.204   0.329  11.200  0.00  0.00    +0.000 C 
ENDBRANCH  20  21
ENDBRANCH  19  20
ENDBRANCH  18  19
ENDBRANCH  17  18
ENDBRANCH  16  17
ENDBRANCH  15  16
ENDBRANCH   1  15
BRANCH   1  23
ATOM     23  C   UNL     1       6.819   5.175  19.230  0.00  0.00    +0.000 C 
BRANCH  23  24
ATOM     24  C   UNL     1       8.056   5.850  18.614  0.00  0.00    +0.000 C 
BRANCH  24  25
ATOM     25  C   UNL     1       8.291   7.326  18.823  0.00  0.00    +0.000 C 
BRANCH  25  26
ATOM     26  C   UNL     1       7.860   8.064  17.548  0.00  0.00    +0.000 C 
BRANCH  26  27
ATOM     27  C   UNL     1       7.886   9.540  17.782  0.00  0.00    +0.000 C 
BRANCH  27  28
ATOM     28  C   UNL     1       8.994   9.890  18.766  0.00  0.00    +0.000 C 
BRANCH  28  30
ATOM     29  C   UNL     1       8.830  12.184  17.788  0.00  0.00    +0.000 C 
ATOM     30  C   UNL     1       9.777  11.082  18.217  0.00  0.00    +0.000 C 
ENDBRANCH  28  30
ENDBRANCH  27  28
ENDBRANCH  26  27
ENDBRANCH  25  26
ENDBRANCH  24  25
ENDBRANCH  23  24
ENDBRANCH   1  23
TORSDOF 18
ENDMDL
MODEL 6
REMARK VINA RESULT:      -6.6      2.492      3.573
REMARK  Name = 
REMARK  20 active torsions:
REMARK  status: ('A' for Active; 'I' for Inactive)
REMARK    1  A    between atoms: C_1  and  C_2
REMARK    2  A    between atoms: C_2  and  C_3
REMARK    3  A    between atoms: C_3  and  C_4
REMARK    4  A    between atoms: C_4  and  C_5
REMARK    5  A    between atoms: C_5  and  C_6
REMARK    6  A    between atoms: C_6  and  C_7
REMARK    7  A    between atoms: C_7  and  C_8
REMARK    8  A    between atoms: C_8  and  N_9
REMARK    9  A    between atoms: N_9  and  C_10
REMARK   10  A    between atoms: C_10  and  C_11
REMARK   11  A    between atoms: C_11  and  C_12
REMARK   12  A    between atoms: C_12  and  C_13
REMARK   13  A    between atoms: C_13  and  C_14
REMARK   14  A    between atoms: C_14  and  C_15
REMARK   15  A    between atoms: C_15  and  C_16
REMARK   16  A    between atoms: C_16  and  C_17
REMARK   17  A    between atoms: C_18  and  C_20
REMARK   18  A    between atoms: C_20  and  N_21
REMARK   19  A    between atoms: C_20  and  C_22
REMARK   20  A    between atoms: C_22  and  C_23
REMARK                            x       y       z     vdW  Elec       q    Type
REMARK                         _______ _______ _______ _____ _____    ______ ____
ROOT
ATOM      1  N   UNL     1       5.201   4.725  17.774  0.00  0.00    +0.000 N 
ATOM      2  C   UNL     1       4.374   5.222  18.785  0.00  0.00    +0.000 C 
ATOM      3  O   UNL     1       4.852   5.361  19.906  0.00  0.00    +0.000 OA
ENDROOT
BRANCH   2   4
ATOM      4  C   UNL     1       2.933   5.609  18.592  0.00  0.00    +0.000 C 
BRANCH   4   5
ATOM      5  N   UNL     1       2.077   4.445  18.331  0.00  0.00    +0.000 NA
ATOM      6  H   UNL     1       2.415   3.594  18.836  0.00  0.00    +0.000 HD
ATOM      7  H   UNL     1       1.930   4.289  17.311  0.00  0.00    +0.000 HD
ENDBRANCH   4   5
BRANCH   4   8
ATOM      8  C   UNL     1       2.377   6.354  19.820  0.00  0.00    +0.000 C 
BRANCH   8   9
ATOM      9  C   UNL     1       1.997   7.743  19.423  0.00  0.00    +0.000 A 
ATOM     10  C   UNL     1       1.299   8.587  20.330  0.00  0.00    +0.000 A 
ATOM     11  C   UNL     1       0.891   9.851  19.933  0.00  0.00    +0.000 A 
ATOM     12  C   UNL     1       1.192  10.313  18.654  0.00  0.00    +0.000 A 
ATOM     13  C   UNL     1       1.911   9.498  17.776  0.00  0.00    +0.000 A 
ATOM     14  C   UNL     1       2.301   8.218  18.150  0.00  0.00    +0.000 A 
ENDBRANCH   8   9
ENDBRANCH   4   8
ENDBRANCH   2   4
BRANCH   1  15
ATOM     15  C   UNL     1       4.583   4.494  16.431  0.00  0.00    +0.000 C 
BRANCH  15  16
ATOM     16  C   UNL     1       5.352   4.961  15.187  0.00  0.00    +0.000 C 
BRANCH  16  17
ATOM     17  C   UNL     1       6.205   3.945  14.416  0.00  0.00    +0.000 C 
BRANCH  17  18
ATOM     18  C   UNL     1       7.131   4.781  13.502  0.00  0.00    +0.000 C 
BRANCH  18  19
ATOM     19  C   UNL     1       7.158   4.233  12.101  0.00  0.00    +0.000 C 
BRANCH  19  20
ATOM     20  C   UNL     1       6.250   3.009  11.978  0.00  0.00    +0.000 C 
BRANCH  20  21
ATOM     21  C   UNL     1       7.001   1.926  11.203  0.00  0.00    +0.000 C 
ATOM     22  C   UNL     1       6.187   0.649  11.112  0.00  0.00    +0.000 C 
ENDBRANCH  20  21
ENDBRANCH  19  20
ENDBRANCH  18  19
ENDBRANCH  17  18
ENDBRANCH  16  17
ENDBRANCH  15  16
ENDBRANCH   1  15
BRANCH   1  23
ATOM     23  C   UNL     1       6.605   4.397  18.136  0.00  0.00    +0.000 C 
BRANCH  23  24
ATOM     24  C   UNL     1       7.693   5.408  17.739  0.00  0.00    +0.000 C 
BRANCH  24  25
ATOM     25  C   UNL     1       7.849   6.692  18.516  0.00  0.00    +0.000 C 
BRANCH  25  26
ATOM     26  C   UNL     1       7.229   7.828  17.692  0.00  0.00    +0.000 C 
BRANCH  26  27
ATOM     27  C   UNL     1       8.224   8.930  17.516  0.00  0.00    +0.000 C 
BRANCH  27  28
ATOM     28  C   UNL     1       8.678   9.440  18.876  0.00  0.00    +0.000 C 
BRANCH  28  30
ATOM     29  C   UNL     1       8.885  11.761  17.973  0.00  0.00    +0.000 C 
ATOM     30  C   UNL     1       9.616  10.629  18.665  0.00  0.00    +0.000 C 
ENDBRANCH  28  30
ENDBRANCH  27  28
ENDBRANCH  26  27
ENDBRANCH  25  26
ENDBRANCH  24  25
ENDBRANCH  23  24
ENDBRANCH   1  23
TORSDOF 18
ENDMDL
MODEL 7
REMARK VINA RESULT:      -6.6      2.611      7.635
REMARK  Name = 
REMARK  20 active torsions:
REMARK  status: ('A' for Active; 'I' for Inactive)
REMARK    1  A    between atoms: C_1  and  C_2
REMARK    2  A    between atoms: C_2  and  C_3
REMARK    3  A    between atoms: C_3  and  C_4
REMARK    4  A    between atoms: C_4  and  C_5
REMARK    5  A    between atoms: C_5  and  C_6
REMARK    6  A    between atoms: C_6  and  C_7
REMARK    7  A    between atoms: C_7  and  C_8
REMARK    8  A    between atoms: C_8  and  N_9
REMARK    9  A    between atoms: N_9  and  C_10
REMARK   10  A    between atoms: C_10  and  C_11
REMARK   11  A    between atoms: C_11  and  C_12
REMARK   12  A    between atoms: C_12  and  C_13
REMARK   13  A    between atoms: C_13  and  C_14
REMARK   14  A    between atoms: C_14  and  C_15
REMARK   15  A    between atoms: C_15  and  C_16
REMARK   16  A    between atoms: C_16  and  C_17
REMARK   17  A    between atoms: C_18  and  C_20
REMARK   18  A    between atoms: C_20  and  N_21
REMARK   19  A    between atoms: C_20  and  C_22
REMARK   20  A    between atoms: C_22  and  C_23
REMARK                            x       y       z     vdW  Elec       q    Type
REMARK                         _______ _______ _______ _____ _____    ______ ____
ROOT
ATOM      1  N   UNL     1       5.565   5.435  17.516  0.00  0.00    +0.000 N 
ATOM      2  C   UNL     1       4.317   4.845  17.738  0.00  0.00    +0.000 C 
ATOM      3  O   UNL     1       4.256   3.620  17.775  0.00  0.00    +0.000 OA
ENDROOT
BRANCH   2   4
ATOM      4  C   UNL     1       3.039   5.610  17.945  0.00  0.00    +0.000 C 
BRANCH   4   5
ATOM      5  N   UNL     1       1.852   4.794  17.664  0.00  0.00    +0.000 NA
ATOM      6  H   UNL     1       1.014   5.386  17.460  0.00  0.00    +0.000 HD
ATOM      7  H   UNL     1       1.683   4.080  18.405  0.00  0.00    +0.000 HD
ENDBRANCH   4   5
BRANCH   4   8
ATOM      8  C   UNL     1       2.927   6.148  19.384  0.00  0.00    +0.000 C 
BRANCH   8   9
ATOM      9  C   UNL     1       2.191   7.449  19.369  0.00  0.00    +0.000 A 
ATOM     10  C   UNL     1       2.165   8.248  18.194  0.00  0.00    +0.000 A 
ATOM     11  C   UNL     1       1.538   9.484  18.206  0.00  0.00    +0.000 A 
ATOM     12  C   UNL     1       0.901   9.934  19.360  0.00  0.00    +0.000 A 
ATOM     13  C   UNL     1       0.895   9.132  20.503  0.00  0.00    +0.000 A 
ATOM     14  C   UNL     1       1.545   7.904  20.514  0.00  0.00    +0.000 A 
ENDBRANCH   8   9
ENDBRANCH   4   8
ENDBRANCH   2   4
BRANCH   1  15
ATOM     15  C   UNL     1       5.611   6.926  17.404  0.00  0.00    +0.000 C 
BRANCH  15  16
ATOM     16  C   UNL     1       6.933   7.584  16.985  0.00  0.00    +0.000 C 
BRANCH  16  17
ATOM     17  C   UNL     1       7.996   7.862  18.056  0.00  0.00    +0.000 C 
BRANCH  17  18
ATOM     18  C   UNL     1       8.301   9.375  17.963  0.00  0.00    +0.000 C 
BRANCH  18  19
ATOM     19  C   UNL     1       9.136   9.838  19.125  0.00  0.00    +0.000 C 
BRANCH  19  20
ATOM     20  C   UNL     1       9.891  11.121  18.776  0.00  0.00    +0.000 C 
BRANCH  20  21
ATOM     21  C   UNL     1       9.377  12.246  19.673  0.00  0.00    +0.000 C 
ATOM     22  C   UNL     1      10.193  12.353  20.947  0.00  0.00    +0.000 C 
ENDBRANCH  20  21
ENDBRANCH  19  20
ENDBRANCH  18  19
ENDBRANCH  17  18
ENDBRANCH  16  17
ENDBRANCH  15  16
ENDBRANCH   1  15
BRANCH   1  23
ATOM     23  C   UNL     1       6.729   4.529  17.336  0.00  0.00    +0.000 C 
BRANCH  23  24
ATOM     24  C   UNL     1       6.992   3.987  15.921  0.00  0.00    +0.000 C 
BRANCH  24  25
ATOM     25  C   UNL     1       6.779   4.877  14.721  0.00  0.00    +0.000 C 
BRANCH  25  26
ATOM     26  C   UNL     1       5.558   4.358  13.952  0.00  0.00    +0.000 C 
BRANCH  26  27
ATOM     27  C   UNL     1       5.966   3.241  13.046  0.00  0.00    +0.000 C 
BRANCH  27  28
ATOM     28  C   UNL     1       5.572   3.565  11.612  0.00  0.00    +0.000 C 
BRANCH  28  30
ATOM     29  C   UNL     1       3.362   3.851  10.480  0.00  0.00    +0.000 C 
ATOM     30  C   UNL     1       4.216   2.923  11.320  0.00  0.00    +0.000 C 
ENDBRANCH  28  30
ENDBRANCH  27  28
ENDBRANCH  26  27
ENDBRANCH  25  26
ENDBRANCH  24  25
ENDBRANCH  23  24
ENDBRANCH   1  23
TORSDOF 18
ENDMDL
MODEL 8
REMARK VINA RESULT:      -6.6      1.093      1.466
REMARK  Name = 
REMARK  20 active torsions:
REMARK  status: ('A' for Active; 'I' for Inactive)
REMARK    1  A    between atoms: C_1  and  C_2
REMARK    2  A    between atoms: C_2  and  C_3
REMARK    3  A    between atoms: C_3  and  C_4
REMARK    4  A    between atoms: C_4  and  C_5
REMARK    5  A    between atoms: C_5  and  C_6
REMARK    6  A    between atoms: C_6  and  C_7
REMARK    7  A    between atoms: C_7  and  C_8
REMARK    8  A    between atoms: C_8  and  N_9
REMARK    9  A    between atoms: N_9  and  C_10
REMARK   10  A    between atoms: C_10  and  C_11
REMARK   11  A    between atoms: C_11  and  C_12
REMARK   12  A    between atoms: C_12  and  C_13
REMARK   13  A    between atoms: C_13  and  C_14
REMARK   14  A    between atoms: C_14  and  C_15
REMARK   15  A    between atoms: C_15  and  C_16
REMARK   16  A    between atoms: C_16  and  C_17
REMARK   17  A    between atoms: C_18  and  C_20
REMARK   18  A    between atoms: C_20  and  N_21
REMARK   19  A    between atoms: C_20  and  C_22
REMARK   20  A    between atoms: C_22  and  C_23
REMARK                            x       y       z     vdW  Elec       q    Type
REMARK                         _______ _______ _______ _____ _____    ______ ____
ROOT
ATOM      1  N   UNL     1       7.022   6.219  17.969  0.00  0.00    +0.000 N 
ATOM      2  C   UNL     1       6.485   5.448  19.004  0.00  0.00    +0.000 C 
ATOM      3  O   UNL     1       7.018   5.510  20.107  0.00  0.00    +0.000 OA
ENDROOT
BRANCH   2   4
ATOM      4  C   UNL     1       5.288   4.549  18.861  0.00  0.00    +0.000 C 
BRANCH   4   5
ATOM      5  N   UNL     1       5.491   3.247  19.509  0.00  0.00    +0.000 NA
ATOM      6  H   UNL     1       4.932   2.493  19.048  0.00  0.00    +0.000 HD
ATOM      7  H   UNL     1       5.348   3.297  20.541  0.00  0.00    +0.000 HD
ENDBRANCH   4   5
BRANCH   4   8
ATOM      8  C   UNL     1       4.021   5.193  19.455  0.00  0.00    +0.000 C 
BRANCH   8   9
ATOM      9  C   UNL     1       2.892   4.217  19.383  0.00  0.00    +0.000 A 
ATOM     10  C   UNL     1       2.175   4.031  18.170  0.00  0.00    +0.000 A 
ATOM     11  C   UNL     1       1.086   3.174  18.128  0.00  0.00    +0.000 A 
ATOM     12  C   UNL     1       0.710   2.466  19.266  0.00  0.00    +0.000 A 
ATOM     13  C   UNL     1       1.438   2.620  20.448  0.00  0.00    +0.000 A 
ATOM     14  C   UNL     1       2.513   3.497  20.513  0.00  0.00    +0.000 A 
ENDBRANCH   8   9
ENDBRANCH   4   8
ENDBRANCH   2   4
BRANCH   1  15
ATOM     15  C   UNL     1       6.406   6.077  16.613  0.00  0.00    +0.000 C 
BRANCH  15  16
ATOM     16  C   UNL     1       6.293   4.671  16.008  0.00  0.00    +0.000 C 
BRANCH  16  17
ATOM     17  C   UNL     1       6.714   4.455  14.548  0.00  0.00    +0.000 C 
BRANCH  17  18
ATOM     18  C   UNL     1       5.454   3.931  13.821  0.00  0.00    +0.000 C 
BRANCH  18  19
ATOM     19  C   UNL     1       5.600   4.034  12.328  0.00  0.00    +0.000 C 
BRANCH  19  20
ATOM     20  C   UNL     1       4.765   2.963  11.624  0.00  0.00    +0.000 C 
BRANCH  20  21
ATOM     21  C   UNL     1       3.995   3.623  10.480  0.00  0.00    +0.000 C 
ATOM     22  C   UNL     1       2.642   2.968  10.278  0.00  0.00    +0.000 C 
ENDBRANCH  20  21
ENDBRANCH  19  20
ENDBRANCH  18  19
ENDBRANCH  17  18
ENDBRANCH  16  17
ENDBRANCH  15  16
ENDBRANCH   1  15
BRANCH   1  23
ATOM     23  C   UNL     1       8.208   7.058  18.284  0.00  0.00    +0.000 C 
BRANCH  23  24
ATOM     24  C   UNL     1       8.122   8.557  17.953  0.00  0.00    +0.000 C 
BRANCH  24  25
ATOM     25  C   UNL     1       9.070   9.531  18.609  0.00  0.00    +0.000 C 
BRANCH  25  26
ATOM     26  C   UNL     1       8.957  10.875  17.879  0.00  0.00    +0.000 C 
BRANCH  26  27
ATOM     27  C   UNL     1       9.772  11.908  18.587  0.00  0.00    +0.000 C 
BRANCH  27  28
ATOM     28  C   UNL     1      10.950  12.325  17.718  0.00  0.00    +0.000 C 
BRANCH  28  30
ATOM     29  C   UNL     1      12.333  11.721  19.710  0.00  0.00    +0.000 C 
ATOM     30  C   UNL     1      12.102  12.755  18.628  0.00  0.00    +0.000 C 
ENDBRANCH  28  30
ENDBRANCH  27  28
ENDBRANCH  26  27
ENDBRANCH  25  26
ENDBRANCH  24  25
ENDBRANCH  23  24
ENDBRANCH   1  23
TORSDOF 18
ENDMDL
MODEL 9
REMARK VINA RESULT:      -6.5      1.771      7.518
REMARK  Name = 
REMARK  20 active torsions:
REMARK  status: ('A' for Active; 'I' for Inactive)
REMARK    1  A    between atoms: C_1  and  C_2
REMARK    2  A    between atoms: C_2  and  C_3
REMARK    3  A    between atoms: C_3  and  C_4
REMARK    4  A    between atoms: C_4  and  C_5
REMARK    5  A    between atoms: C_5  and  C_6
REMARK    6  A    between atoms: C_6  and  C_7
REMARK    7  A    between atoms: C_7  and  C_8
REMARK    8  A    between atoms: C_8  and  N_9
REMARK    9  A    between atoms: N_9  and  C_10
REMARK   10  A    between atoms: C_10  and  C_11
REMARK   11  A    between atoms: C_11  and  C_12
REMARK   12  A    between atoms: C_12  and  C_13
REMARK   13  A    between atoms: C_13  and  C_14
REMARK   14  A    between atoms: C_14  and  C_15
REMARK   15  A    between atoms: C_15  and  C_16
REMARK   16  A    between atoms: C_16  and  C_17
REMARK   17  A    between atoms: C_18  and  C_20
REMARK   18  A    between atoms: C_20  and  N_21
REMARK   19  A    between atoms: C_20  and  C_22
REMARK   20  A    between atoms: C_22  and  C_23
REMARK                            x       y       z     vdW  Elec       q    Type
REMARK                         _______ _______ _______ _____ _____    ______ ____
ROOT
ATOM      1  N   UNL     1       5.940   5.450  17.099  0.00  0.00    +0.000 N 
ATOM      2  C   UNL     1       4.547   5.345  17.065  0.00  0.00    +0.000 C 
ATOM      3  O   UNL     1       4.043   4.613  16.220  0.00  0.00    +0.000 OA
ENDROOT
BRANCH   2   4
ATOM      4  C   UNL     1       3.617   6.064  18.004  0.00  0.00    +0.000 C 
BRANCH   4   5
ATOM      5  N   UNL     1       3.496   7.491  17.679  0.00  0.00    +0.000 NA
ATOM      6  H   UNL     1       2.497   7.782  17.580  0.00  0.00    +0.000 HD
ATOM      7  H   UNL     1       4.088   7.759  16.864  0.00  0.00    +0.000 HD
ENDBRANCH   4   5
BRANCH   4   8
ATOM      8  C   UNL     1       2.208   5.444  17.992  0.00  0.00    +0.000 C 
BRANCH   8   9
ATOM      9  C   UNL     1       2.074   4.501  19.144  0.00  0.00    +0.000 A 
ATOM     10  C   UNL     1       1.517   3.208  18.957  0.00  0.00    +0.000 A 
ATOM     11  C   UNL     1       1.334   2.364  20.041  0.00  0.00    +0.000 A 
ATOM     12  C   UNL     1       1.727   2.767  21.315  0.00  0.00    +0.000 A 
ATOM     13  C   UNL     1       2.309   4.024  21.493  0.00  0.00    +0.000 A 
ATOM     14  C   UNL     1       2.472   4.891  20.420  0.00  0.00    +0.000 A 
ENDBRANCH   8   9
ENDBRANCH   4   8
ENDBRANCH   2   4
BRANCH   1  15
ATOM     15  C   UNL     1       6.535   6.402  18.088  0.00  0.00    +0.000 C 
BRANCH  15  16
ATOM     16  C   UNL     1       7.352   7.588  17.557  0.00  0.00    +0.000 C 
BRANCH  16  17
ATOM     17  C   UNL     1       8.493   8.149  18.416  0.00  0.00    +0.000 C 
BRANCH  17  18
ATOM     18  C   UNL     1       8.547   9.663  18.107  0.00  0.00    +0.000 C 
BRANCH  18  19
ATOM     19  C   UNL     1       9.113  10.439  19.264  0.00  0.00    +0.000 C 
BRANCH  19  20
ATOM     20  C   UNL     1      10.452  11.076  18.889  0.00  0.00    +0.000 C 
BRANCH  20  21
ATOM     21  C   UNL     1      10.252  11.919  17.630  0.00  0.00    +0.000 C 
ATOM     22  C   UNL     1       9.468  13.182  17.931  0.00  0.00    +0.000 C 
ENDBRANCH  20  21
ENDBRANCH  19  20
ENDBRANCH  18  19
ENDBRANCH  17  18
ENDBRANCH  16  17
ENDBRANCH  15  16
ENDBRANCH   1  15
BRANCH   1  23
ATOM     23  C   UNL     1       6.711   4.665  16.099  0.00  0.00    +0.000 C 
BRANCH  23  24
ATOM     24  C   UNL     1       6.728   5.186  14.652  0.00  0.00    +0.000 C 
BRANCH  24  25
ATOM     25  C   UNL     1       7.057   4.247  13.516  0.00  0.00    +0.000 C 
BRANCH  25  26
ATOM     26  C   UNL     1       5.801   3.426  13.197  0.00  0.00    +0.000 C 
BRANCH  26  27
ATOM     27  C   UNL     1       5.588   3.381  11.718  0.00  0.00    +0.000 C 
BRANCH  27  28
ATOM     28  C   UNL     1       4.102   3.251  11.411  0.00  0.00    +0.000 C 
BRANCH  28  30
ATOM     29  C   UNL     1       2.466   3.664   9.568  0.00  0.00    +0.000 C 
ATOM     30  C   UNL     1       3.780   4.102  10.183  0.00  0.00    +0.000 C 
ENDBRANCH  28  30
ENDBRANCH  27  28
ENDBRANCH  26  27
ENDBRANCH  25  26
ENDBRANCH  24  25
ENDBRANCH  23  24
ENDBRANCH   1  23
TORSDOF 18
ENDMDL
