MODEL 1
REMARK VINA RESULT:      -7.8      0.000      0.000
REMARK  Name = 
REMARK  6 active torsions:
REMARK  status: ('A' for Active; 'I' for Inactive)
REMARK    1  A    between atoms: C_6  and  O_7
REMARK    2  A    between atoms: O_7  and  C_8
REMARK    3  A    between atoms: N_15  and  C_16
REMARK    4  A    between atoms: C_16  and  C_17
REMARK    5  A    between atoms: C_17  and  N_18
REMARK    6  A    between atoms: N_21  and  C_22
REMARK                            x       y       z     vdW  Elec       q    Type
REMARK                         _______ _______ _______ _____ _____    ______ ____
ROOT
ATOM      1  N   UNL     1       0.932   4.073  19.963  0.00  0.00    +0.000 NA
ATOM      2  C   UNL     1       1.955   4.207  19.194  0.00  0.00    +0.000 A 
ATOM      3  S   UNL     1       2.400   2.879  18.119  0.00  0.00    +0.000 S 
ATOM      4  C   UNL     1       3.752   3.851  17.483  0.00  0.00    +0.000 A 
ATOM      5  C   UNL     1       4.670   3.462  16.523  0.00  0.00    +0.000 A 
ATOM      6  C   UNL     1       5.682   4.350  16.154  0.00  0.00    +0.000 A 
ATOM      7  C   UNL     1       5.712   5.632  16.719  0.00  0.00    +0.000 A 
ATOM      8  C   UNL     1       4.777   6.010  17.702  0.00  0.00    +0.000 A 
ATOM      9  C   UNL     1       3.792   5.115  18.101  0.00  0.00    +0.000 A 
ATOM     10  N   UNL     1       2.796   5.286  19.067  0.00  0.00    +0.000 N 
ATOM     11  H   UNL     1       0.549   3.137  19.789  0.00  0.00    +0.000 HD
ENDROOT
BRANCH   6  12
ATOM     12  O   UNL     1       6.535   3.858  15.214  0.00  0.00    +0.000 OA
BRANCH  12  13
ATOM     13  C   UNL     1       6.283   4.075  13.833  0.00  0.00    +0.000 C 
ATOM     14  F   UNL     1       5.048   4.544  13.566  0.00  0.00    +0.000 F 
ATOM     15  F   UNL     1       7.177   4.981  13.375  0.00  0.00    +0.000 F 
ATOM     16  F   UNL     1       6.472   2.921  13.158  0.00  0.00    +0.000 F 
ENDBRANCH  12  13
ENDBRANCH   6  12
BRANCH  10  17
ATOM     17  C   UNL     1       2.611   6.498  19.851  0.00  0.00    +0.000 C 
BRANCH  17  18
ATOM     18  C   UNL     1       2.108   7.658  18.966  0.00  0.00    +0.000 C 
BRANCH  18  19
ATOM     19  N   UNL     1       1.694   8.807  19.782  0.00  0.00    +0.000 NA
ATOM     20  C   UNL     1       0.975   8.417  21.022  0.00  0.00    +0.000 C 
ATOM     21  C   UNL     1       0.679   9.657  21.906  0.00  0.00    +0.000 C 
ATOM     22  N   UNL     1      -0.044  10.680  21.126  0.00  0.00    +0.000 N 
ATOM     23  C   UNL     1       0.585  11.025  19.844  0.00  0.00    +0.000 C 
ATOM     24  C   UNL     1       0.819   9.731  19.029  0.00  0.00    +0.000 C 
BRANCH  22  25
ATOM     25  C   UNL     1      -1.060  11.441  21.668  0.00  0.00    +0.000 A 
ATOM     26  C   UNL     1      -1.752  12.411  20.924  0.00  0.00    +0.000 A 
ATOM     27  C   UNL     1      -2.832  13.124  21.460  0.00  0.00    +0.000 A 
ATOM     28  C   UNL     1      -3.244  12.885  22.764  0.00  0.00    +0.000 A 
ATOM     29  C   UNL     1      -2.576  11.937  23.529  0.00  0.00    +0.000 A 
ATOM     30  C   UNL     1      -1.498  11.230  22.983  0.00  0.00    +0.000 A 
ENDBRANCH  22  25
ENDBRANCH  18  19
ENDBRANCH  17  18
ENDBRANCH  10  17
TORSDOF 6
ENDMDL
MODEL 2
REMARK VINA RESULT:      -7.7      4.981      9.335
REMARK  Name = 
REMARK  6 active torsions:
REMARK  status: ('A' for Active; 'I' for Inactive)
REMARK    1  A    between atoms: C_6  and  O_7
REMARK    2  A    between atoms: O_7  and  C_8
REMARK    3  A    between atoms: N_15  and  C_16
REMARK    4  A    between atoms: C_16  and  C_17
REMARK    5  A    between atoms: C_17  and  N_18
REMARK    6  A    between atoms: N_21  and  C_22
REMARK                            x       y       z     vdW  Elec       q    Type
REMARK                         _______ _______ _______ _____ _____    ______ ____
ROOT
ATOM      1  N   UNL     1       0.486   9.614  23.753  0.00  0.00    +0.000 NA
ATOM      2  C   UNL     1       0.133   9.889  22.547  0.00  0.00    +0.000 A 
ATOM      3  S   UNL     1      -1.129  11.093  22.274  0.00  0.00    +0.000 S 
ATOM      4  C   UNL     1      -0.956  10.872  20.515  0.00  0.00    +0.000 A 
ATOM      5  C   UNL     1      -1.679  11.515  19.525  0.00  0.00    +0.000 A 
ATOM      6  C   UNL     1      -1.424  11.205  18.188  0.00  0.00    +0.000 A 
ATOM      7  C   UNL     1      -0.403  10.297  17.875  0.00  0.00    +0.000 A 
ATOM      8  C   UNL     1       0.319   9.644  18.893  0.00  0.00    +0.000 A 
ATOM      9  C   UNL     1       0.040   9.920  20.226  0.00  0.00    +0.000 A 
ATOM     10  N   UNL     1       0.620   9.368  21.372  0.00  0.00    +0.000 N 
ATOM     11  H   UNL     1      -0.091  10.195  24.372  0.00  0.00    +0.000 HD
ENDROOT
BRANCH   6  12
ATOM     12  O   UNL     1      -2.202  11.885  17.303  0.00  0.00    +0.000 OA
BRANCH  12  13
ATOM     13  C   UNL     1      -3.158  11.196  16.510  0.00  0.00    +0.000 C 
ATOM     14  F   UNL     1      -2.797  11.043  15.220  0.00  0.00    +0.000 F 
ATOM     15  F   UNL     1      -3.337   9.963  17.038  0.00  0.00    +0.000 F 
ATOM     16  F   UNL     1      -4.338  11.850  16.562  0.00  0.00    +0.000 F 
ENDBRANCH  12  13
ENDBRANCH   6  12
BRANCH  10  17
ATOM     17  C   UNL     1       1.674   8.364  21.358  0.00  0.00    +0.000 C 
BRANCH  17  18
ATOM     18  C   UNL     1       1.086   6.946  21.206  0.00  0.00    +0.000 C 
BRANCH  18  19
ATOM     19  N   UNL     1       1.717   6.225  20.093  0.00  0.00    +0.000 NA
ATOM     20  C   UNL     1       2.601   5.118  20.538  0.00  0.00    +0.000 C 
ATOM     21  C   UNL     1       3.134   4.311  19.325  0.00  0.00    +0.000 C 
ATOM     22  N   UNL     1       3.794   5.213  18.361  0.00  0.00    +0.000 N 
ATOM     23  C   UNL     1       2.988   6.377  17.969  0.00  0.00    +0.000 C 
ATOM     24  C   UNL     1       2.522   7.125  19.240  0.00  0.00    +0.000 C 
BRANCH  22  25
ATOM     25  C   UNL     1       4.942   4.859  17.682  0.00  0.00    +0.000 A 
ATOM     26  C   UNL     1       4.919   4.397  16.355  0.00  0.00    +0.000 A 
ATOM     27  C   UNL     1       6.095   4.111  15.651  0.00  0.00    +0.000 A 
ATOM     28  C   UNL     1       7.330   4.278  16.263  0.00  0.00    +0.000 A 
ATOM     29  C   UNL     1       7.386   4.726  17.577  0.00  0.00    +0.000 A 
ATOM     30  C   UNL     1       6.205   5.008  18.272  0.00  0.00    +0.000 A 
ENDBRANCH  22  25
ENDBRANCH  18  19
ENDBRANCH  17  18
ENDBRANCH  10  17
TORSDOF 6
ENDMDL
MODEL 3
REMARK VINA RESULT:      -7.6      1.136      1.465
REMARK  Name = 
REMARK  6 active torsions:
REMARK  status: ('A' for Active; 'I' for Inactive)
REMARK    1  A    between atoms: C_6  and  O_7
REMARK    2  A    between atoms: O_7  and  C_8
REMARK    3  A    between atoms: N_15  and  C_16
REMARK    4  A    between atoms: C_16  and  C_17
REMARK    5  A    between atoms: C_17  and  N_18
REMARK    6  A    between atoms: N_21  and  C_22
REMARK                            x       y       z     vdW  Elec       q    Type
REMARK                         _______ _______ _______ _____ _____    ______ ____
ROOT
ATOM      1  N   UNL     1       1.192   4.674  20.354  0.00  0.00    +0.000 NA
ATOM      2  C   UNL     1       2.119   4.693  19.462  0.00  0.00    +0.000 A 
ATOM      3  S   UNL     1       2.553   3.192  18.642  0.00  0.00    +0.000 S 
ATOM      4  C   UNL     1       3.757   4.074  17.669  0.00  0.00    +0.000 A 
ATOM      5  C   UNL     1       4.600   3.538  16.712  0.00  0.00    +0.000 A 
ATOM      6  C   UNL     1       5.500   4.378  16.054  0.00  0.00    +0.000 A 
ATOM      7  C   UNL     1       5.490   5.752  16.333  0.00  0.00    +0.000 A 
ATOM      8  C   UNL     1       4.632   6.282  17.317  0.00  0.00    +0.000 A 
ATOM      9  C   UNL     1       3.763   5.442  18.002  0.00  0.00    +0.000 A 
ATOM     10  N   UNL     1       2.859   5.763  19.019  0.00  0.00    +0.000 N 
ATOM     11  H   UNL     1       0.865   3.703  20.422  0.00  0.00    +0.000 HD
ENDROOT
BRANCH   6  12
ATOM     12  O   UNL     1       6.290   3.743  15.144  0.00  0.00    +0.000 OA
BRANCH  12  13
ATOM     13  C   UNL     1       6.124   3.987  13.755  0.00  0.00    +0.000 C 
ATOM     14  F   UNL     1       4.864   4.310  13.399  0.00  0.00    +0.000 F 
ATOM     15  F   UNL     1       6.928   5.017  13.407  0.00  0.00    +0.000 F 
ATOM     16  F   UNL     1       6.512   2.897  13.060  0.00  0.00    +0.000 F 
ENDBRANCH  12  13
ENDBRANCH   6  12
BRANCH  10  17
ATOM     17  C   UNL     1       2.662   7.104  19.551  0.00  0.00    +0.000 C 
BRANCH  17  18
ATOM     18  C   UNL     1       2.131   8.059  18.462  0.00  0.00    +0.000 C 
BRANCH  18  19
ATOM     19  N   UNL     1       1.152   9.003  19.016  0.00  0.00    +0.000 NA
ATOM     20  C   UNL     1       1.440  10.418  18.668  0.00  0.00    +0.000 C 
ATOM     21  C   UNL     1       0.306  11.354  19.165  0.00  0.00    +0.000 C 
ATOM     22  N   UNL     1       0.078  11.158  20.610  0.00  0.00    +0.000 N 
ATOM     23  C   UNL     1      -0.116   9.758  21.010  0.00  0.00    +0.000 C 
ATOM     24  C   UNL     1       1.070   8.911  20.489  0.00  0.00    +0.000 C 
BRANCH  22  25
ATOM     25  C   UNL     1      -0.202  12.206  21.463  0.00  0.00    +0.000 A 
ATOM     26  C   UNL     1       0.486  13.429  21.404  0.00  0.00    +0.000 A 
ATOM     27  C   UNL     1       0.144  14.511  22.224  0.00  0.00    +0.000 A 
ATOM     28  C   UNL     1      -0.901  14.393  23.131  0.00  0.00    +0.000 A 
ATOM     29  C   UNL     1      -1.597  13.194  23.219  0.00  0.00    +0.000 A 
ATOM     30  C   UNL     1      -1.246  12.118  22.396  0.00  0.00    +0.000 A 
ENDBRANCH  22  25
ENDBRANCH  18  19
ENDBRANCH  17  18
ENDBRANCH  10  17
TORSDOF 6
ENDMDL
MODEL 4
REMARK VINA RESULT:      -7.5      1.340      1.865
REMARK  Name = 
REMARK  6 active torsions:
REMARK  status: ('A' for Active; 'I' for Inactive)
REMARK    1  A    between atoms: C_6  and  O_7
REMARK    2  A    between atoms: O_7  and  C_8
REMARK    3  A    between atoms: N_15  and  C_16
REMARK    4  A    between atoms: C_16  and  C_17
REMARK    5  A    between atoms: C_17  and  N_18
REMARK    6  A    between atoms: N_21  and  C_22
REMARK                            x       y       z     vdW  Elec       q    Type
REMARK                         _______ _______ _______ _____ _____    ______ ____
ROOT
ATOM      1  N   UNL     1       2.526   5.009  20.028  0.00  0.00    +0.000 NA
ATOM      2  C   UNL     1       3.233   4.946  18.956  0.00  0.00    +0.000 A 
ATOM      3  S   UNL     1       3.668   3.364  18.304  0.00  0.00    +0.000 S 
ATOM      4  C   UNL     1       4.519   4.157  16.954  0.00  0.00    +0.000 A 
ATOM      5  C   UNL     1       5.201   3.531  15.925  0.00  0.00    +0.000 A 
ATOM      6  C   UNL     1       5.830   4.312  14.955  0.00  0.00    +0.000 A 
ATOM      7  C   UNL     1       5.708   5.707  15.009  0.00  0.00    +0.000 A 
ATOM      8  C   UNL     1       5.018   6.331  16.067  0.00  0.00    +0.000 A 
ATOM      9  C   UNL     1       4.425   5.557  17.058  0.00  0.00    +0.000 A 
ATOM     10  N   UNL     1       3.724   5.978  18.191  0.00  0.00    +0.000 N 
ATOM     11  H   UNL     1       2.344   4.043  20.321  0.00  0.00    +0.000 HD
ENDROOT
BRANCH   6  12
ATOM     12  O   UNL     1       6.482   3.593  14.000  0.00  0.00    +0.000 OA
BRANCH  12  13
ATOM     13  C   UNL     1       5.976   3.535  12.674  0.00  0.00    +0.000 C 
ATOM     14  F   UNL     1       6.668   4.278  11.788  0.00  0.00    +0.000 F 
ATOM     15  F   UNL     1       6.021   2.249  12.258  0.00  0.00    +0.000 F 
ATOM     16  F   UNL     1       4.685   3.932  12.670  0.00  0.00    +0.000 F 
ENDBRANCH  12  13
ENDBRANCH   6  12
BRANCH  10  17
ATOM     17  C   UNL     1       3.479   7.371  18.536  0.00  0.00    +0.000 C 
BRANCH  17  18
ATOM     18  C   UNL     1       2.331   7.957  17.688  0.00  0.00    +0.000 C 
BRANCH  18  19
ATOM     19  N   UNL     1       1.314   8.590  18.537  0.00  0.00    +0.000 NA
ATOM     20  C   UNL     1       0.962   9.966  18.105  0.00  0.00    +0.000 C 
ATOM     21  C   UNL     1      -0.207  10.534  18.953  0.00  0.00    +0.000 C 
ATOM     22  N   UNL     1       0.119  10.455  20.390  0.00  0.00    +0.000 N 
ATOM     23  C   UNL     1       0.566   9.130  20.840  0.00  0.00    +0.000 C 
ATOM     24  C   UNL     1       1.741   8.661  19.951  0.00  0.00    +0.000 C 
BRANCH  22  25
ATOM     25  C   UNL     1      -0.224  11.451  21.281  0.00  0.00    +0.000 A 
ATOM     26  C   UNL     1       0.362  12.727  21.247  0.00  0.00    +0.000 A 
ATOM     27  C   UNL     1      -0.047  13.753  22.107  0.00  0.00    +0.000 A 
ATOM     28  C   UNL     1      -1.057  13.524  23.032  0.00  0.00    +0.000 A 
ATOM     29  C   UNL     1      -1.652  12.270  23.097  0.00  0.00    +0.000 A 
ATOM     30  C   UNL     1      -1.235  11.251  22.233  0.00  0.00    +0.000 A 
ENDBRANCH  22  25
ENDBRANCH  18  19
ENDBRANCH  17  18
ENDBRANCH  10  17
TORSDOF 6
ENDMDL
MODEL 5
REMARK VINA RESULT:      -7.5      0.985      1.669
REMARK  Name = 
REMARK  6 active torsions:
REMARK  status: ('A' for Active; 'I' for Inactive)
REMARK    1  A    between atoms: C_6  and  O_7
REMARK    2  A    between atoms: O_7  and  C_8
REMARK    3  A    between atoms: N_15  and  C_16
REMARK    4  A    between atoms: C_16  and  C_17
REMARK    5  A    between atoms: C_17  and  N_18
REMARK    6  A    between atoms: N_21  and  C_22
REMARK                            x       y       z     vdW  Elec       q    Type
REMARK                         _______ _______ _______ _____ _____    ______ ____
ROOT
ATOM      1  N   UNL     1       1.070   4.315  19.783  0.00  0.00    +0.000 NA
ATOM      2  C   UNL     1       2.068   4.407  18.977  0.00  0.00    +0.000 A 
ATOM      3  S   UNL     1       2.505   3.013  17.986  0.00  0.00    +0.000 S 
ATOM      4  C   UNL     1       3.822   3.955  17.244  0.00  0.00    +0.000 A 
ATOM      5  C   UNL     1       4.719   3.511  16.288  0.00  0.00    +0.000 A 
ATOM      6  C   UNL     1       5.707   4.384  15.828  0.00  0.00    +0.000 A 
ATOM      7  C   UNL     1       5.732   5.704  16.299  0.00  0.00    +0.000 A 
ATOM      8  C   UNL     1       4.819   6.138  17.279  0.00  0.00    +0.000 A 
ATOM      9  C   UNL     1       3.859   5.260  17.769  0.00  0.00    +0.000 A 
ATOM     10  N   UNL     1       2.888   5.486  18.748  0.00  0.00    +0.000 N 
ATOM     11  H   UNL     1       0.697   3.364  19.687  0.00  0.00    +0.000 HD
ENDROOT
BRANCH   6  12
ATOM     12  O   UNL     1       6.541   3.838  14.900  0.00  0.00    +0.000 OA
BRANCH  12  13
ATOM     13  C   UNL     1       6.247   3.952  13.516  0.00  0.00    +0.000 C 
ATOM     14  F   UNL     1       6.214   2.774  12.861  0.00  0.00    +0.000 F 
ATOM     15  F   UNL     1       5.032   4.531  13.386  0.00  0.00    +0.000 F 
ATOM     16  F   UNL     1       7.160   4.756  12.929  0.00  0.00    +0.000 F 
ENDBRANCH  12  13
ENDBRANCH   6  12
BRANCH  10  17
ATOM     17  C   UNL     1       2.706   6.749  19.449  0.00  0.00    +0.000 C 
BRANCH  17  18
ATOM     18  C   UNL     1       2.317   7.875  18.469  0.00  0.00    +0.000 C 
BRANCH  18  19
ATOM     19  N   UNL     1       1.256   8.723  19.028  0.00  0.00    +0.000 NA
ATOM     20  C   UNL     1       1.360  10.144  18.610  0.00  0.00    +0.000 C 
ATOM     21  C   UNL     1       0.144  10.963  19.120  0.00  0.00    +0.000 C 
ATOM     22  N   UNL     1       0.001  10.809  20.581  0.00  0.00    +0.000 N 
ATOM     23  C   UNL     1      -0.008   9.416  21.047  0.00  0.00    +0.000 C 
ATOM     24  C   UNL     1       1.247   8.691  20.507  0.00  0.00    +0.000 C 
BRANCH  22  25
ATOM     25  C   UNL     1      -0.366  11.856  21.402  0.00  0.00    +0.000 A 
ATOM     26  C   UNL     1      -1.337  11.718  22.408  0.00  0.00    +0.000 A 
ATOM     27  C   UNL     1      -1.648  12.765  23.285  0.00  0.00    +0.000 A 
ATOM     28  C   UNL     1      -0.993  13.984  23.172  0.00  0.00    +0.000 A 
ATOM     29  C   UNL     1      -0.033  14.155  22.182  0.00  0.00    +0.000 A 
ATOM     30  C   UNL     1       0.269  13.103  21.311  0.00  0.00    +0.000 A 
ENDBRANCH  22  25
ENDBRANCH  18  19
ENDBRANCH  17  18
ENDBRANCH  10  17
TORSDOF 6
ENDMDL
MODEL 6
REMARK VINA RESULT:      -7.4      5.362     10.376
REMARK  Name = 
REMARK  6 active torsions:
REMARK  status: ('A' for Active; 'I' for Inactive)
REMARK    1  A    between atoms: C_6  and  O_7
REMARK    2  A    between atoms: O_7  and  C_8
REMARK    3  A    between atoms: N_15  and  C_16
REMARK    4  A    between atoms: C_16  and  C_17
REMARK    5  A    between atoms: C_17  and  N_18
REMARK    6  A    between atoms: N_21  and  C_22
REMARK                            x       y       z     vdW  Elec       q    Type
REMARK                         _______ _______ _______ _____ _____    ______ ____
ROOT
ATOM      1  N   UNL     1       2.955   8.051  16.805  0.00  0.00    +0.000 NA
ATOM      2  C   UNL     1       2.438   8.430  17.921  0.00  0.00    +0.000 A 
ATOM      3  S   UNL     1       2.035  10.134  18.146  0.00  0.00    +0.000 S 
ATOM      4  C   UNL     1       1.415   9.769  19.776  0.00  0.00    +0.000 A 
ATOM      5  C   UNL     1       0.888  10.673  20.682  0.00  0.00    +0.000 A 
ATOM      6  C   UNL     1       0.463  10.213  21.930  0.00  0.00    +0.000 A 
ATOM      7  C   UNL     1       0.526   8.843  22.216  0.00  0.00    +0.000 A 
ATOM      8  C   UNL     1       1.074   7.936  21.288  0.00  0.00    +0.000 A 
ATOM      9  C   UNL     1       1.534   8.396  20.060  0.00  0.00    +0.000 A 
ATOM     10  N   UNL     1       2.127   7.670  19.023  0.00  0.00    +0.000 N 
ATOM     11  H   UNL     1       3.044   8.889  16.219  0.00  0.00    +0.000 HD
ENDROOT
BRANCH   6  12
ATOM     12  O   UNL     1      -0.024  11.190  22.745  0.00  0.00    +0.000 OA
BRANCH  12  13
ATOM     13  C   UNL     1      -1.368  11.628  22.614  0.00  0.00    +0.000 C 
ATOM     14  F   UNL     1      -1.888  11.451  21.382  0.00  0.00    +0.000 F 
ATOM     15  F   UNL     1      -2.130  10.931  23.487  0.00  0.00    +0.000 F 
ATOM     16  F   UNL     1      -1.446  12.936  22.940  0.00  0.00    +0.000 F 
ENDBRANCH  12  13
ENDBRANCH   6  12
BRANCH  10  17
ATOM     17  C   UNL     1       2.366   6.235  19.055  0.00  0.00    +0.000 C 
BRANCH  17  18
ATOM     18  C   UNL     1       3.765   5.920  19.624  0.00  0.00    +0.000 C 
BRANCH  18  19
ATOM     19  N   UNL     1       4.590   5.209  18.639  0.00  0.00    +0.000 NA
ATOM     20  C   UNL     1       5.664   6.052  18.055  0.00  0.00    +0.000 C 
ATOM     21  C   UNL     1       6.583   5.216  17.125  0.00  0.00    +0.000 C 
ATOM     22  N   UNL     1       5.779   4.527  16.097  0.00  0.00    +0.000 N 
ATOM     23  C   UNL     1       4.645   3.758  16.627  0.00  0.00    +0.000 C 
ATOM     24  C   UNL     1       3.780   4.678  17.521  0.00  0.00    +0.000 C 
BRANCH  22  25
ATOM     25  C   UNL     1       6.207   4.390  14.793  0.00  0.00    +0.000 A 
ATOM     26  C   UNL     1       5.532   3.585  13.860  0.00  0.00    +0.000 A 
ATOM     27  C   UNL     1       5.931   3.511  12.519  0.00  0.00    +0.000 A 
ATOM     28  C   UNL     1       7.026   4.243  12.079  0.00  0.00    +0.000 A 
ATOM     29  C   UNL     1       7.720   5.043  12.978  0.00  0.00    +0.000 A 
ATOM     30  C   UNL     1       7.313   5.109  14.316  0.00  0.00    +0.000 A 
ENDBRANCH  22  25
ENDBRANCH  18  19
ENDBRANCH  17  18
ENDBRANCH  10  17
TORSDOF 6
ENDMDL
MODEL 7
REMARK VINA RESULT:      -7.4      5.395     10.360
REMARK  Name = 
REMARK  6 active torsions:
REMARK  status: ('A' for Active; 'I' for Inactive)
REMARK    1  A    between atoms: C_6  and  O_7
REMARK    2  A    between atoms: O_7  and  C_8
REMARK    3  A    between atoms: N_15  and  C_16
REMARK    4  A    between atoms: C_16  and  C_17
REMARK    5  A    between atoms: C_17  and  N_18
REMARK    6  A    between atoms: N_21  and  C_22
REMARK                            x       y       z     vdW  Elec       q    Type
REMARK                         _______ _______ _______ _____ _____    ______ ____
ROOT
ATOM      1  N   UNL     1       2.863   8.054  16.729  0.00  0.00    +0.000 NA
ATOM      2  C   UNL     1       2.382   8.442  17.857  0.00  0.00    +0.000 A 
ATOM      3  S   UNL     1       1.957  10.143  18.070  0.00  0.00    +0.000 S 
ATOM      4  C   UNL     1       1.406   9.794  19.729  0.00  0.00    +0.000 A 
ATOM      5  C   UNL     1       0.898  10.704  20.639  0.00  0.00    +0.000 A 
ATOM      6  C   UNL     1       0.530  10.258  21.910  0.00  0.00    +0.000 A 
ATOM      7  C   UNL     1       0.628   8.894  22.215  0.00  0.00    +0.000 A 
ATOM      8  C   UNL     1       1.156   7.981  21.282  0.00  0.00    +0.000 A 
ATOM      9  C   UNL     1       1.561   8.428  20.030  0.00  0.00    +0.000 A 
ATOM     10  N   UNL     1       2.126   7.696  18.982  0.00  0.00    +0.000 N 
ATOM     11  H   UNL     1       2.914   8.883  16.126  0.00  0.00    +0.000 HD
ENDROOT
BRANCH   6  12
ATOM     12  O   UNL     1       0.056  11.239  22.727  0.00  0.00    +0.000 OA
BRANCH  12  13
ATOM     13  C   UNL     1      -1.340  11.486  22.817  0.00  0.00    +0.000 C 
ATOM     14  F   UNL     1      -1.654  12.672  23.377  0.00  0.00    +0.000 F 
ATOM     15  F   UNL     1      -1.855  11.471  21.567  0.00  0.00    +0.000 F 
ATOM     16  F   UNL     1      -1.924  10.496  23.524  0.00  0.00    +0.000 F 
ENDBRANCH  12  13
ENDBRANCH   6  12
BRANCH  10  17
ATOM     17  C   UNL     1       2.392   6.265  19.029  0.00  0.00    +0.000 C 
BRANCH  17  18
ATOM     18  C   UNL     1       3.797   5.982  19.600  0.00  0.00    +0.000 C 
BRANCH  18  19
ATOM     19  N   UNL     1       4.656   5.336  18.599  0.00  0.00    +0.000 NA
ATOM     20  C   UNL     1       5.587   6.279  17.929  0.00  0.00    +0.000 C 
ATOM     21  C   UNL     1       6.558   5.523  16.982  0.00  0.00    +0.000 C 
ATOM     22  N   UNL     1       5.797   4.698  16.024  0.00  0.00    +0.000 N 
ATOM     23  C   UNL     1       4.794   3.819  16.641  0.00  0.00    +0.000 C 
ATOM     24  C   UNL     1       3.866   4.663  17.545  0.00  0.00    +0.000 C 
BRANCH  22  25
ATOM     25  C   UNL     1       6.176   4.558  14.705  0.00  0.00    +0.000 A 
ATOM     26  C   UNL     1       7.324   5.177  14.182  0.00  0.00    +0.000 A 
ATOM     27  C   UNL     1       7.741   4.969  12.862  0.00  0.00    +0.000 A 
ATOM     28  C   UNL     1       7.012   4.134  12.026  0.00  0.00    +0.000 A 
ATOM     29  C   UNL     1       5.868   3.512  12.510  0.00  0.00    +0.000 A 
ATOM     30  C   UNL     1       5.459   3.728  13.831  0.00  0.00    +0.000 A 
ENDBRANCH  22  25
ENDBRANCH  18  19
ENDBRANCH  17  18
ENDBRANCH  10  17
TORSDOF 6
ENDMDL
MODEL 8
REMARK VINA RESULT:      -7.3      1.229      1.484
REMARK  Name = 
REMARK  6 active torsions:
REMARK  status: ('A' for Active; 'I' for Inactive)
REMARK    1  A    between atoms: C_6  and  O_7
REMARK    2  A    between atoms: O_7  and  C_8
REMARK    3  A    between atoms: N_15  and  C_16
REMARK    4  A    between atoms: C_16  and  C_17
REMARK    5  A    between atoms: C_17  and  N_18
REMARK    6  A    between atoms: N_21  and  C_22
REMARK                            x       y       z     vdW  Elec       q    Type
REMARK                         _______ _______ _______ _____ _____    ______ ____
ROOT
ATOM      1  N   UNL     1       0.433   3.472  20.458  0.00  0.00    +0.000 NA
ATOM      2  C   UNL     1       1.353   3.883  19.658  0.00  0.00    +0.000 A 
ATOM      3  S   UNL     1       1.966   2.787  18.417  0.00  0.00    +0.000 S 
ATOM      4  C   UNL     1       3.058   4.066  17.830  0.00  0.00    +0.000 A 
ATOM      5  C   UNL     1       3.962   3.968  16.787  0.00  0.00    +0.000 A 
ATOM      6  C   UNL     1       4.758   5.071  16.472  0.00  0.00    +0.000 A 
ATOM      7  C   UNL     1       4.583   6.268  17.177  0.00  0.00    +0.000 A 
ATOM      8  C   UNL     1       3.666   6.352  18.243  0.00  0.00    +0.000 A 
ATOM      9  C   UNL     1       2.901   5.243  18.586  0.00  0.00    +0.000 A 
ATOM     10  N   UNL     1       1.962   5.114  19.613  0.00  0.00    +0.000 N 
ATOM     11  H   UNL     1       0.224   2.502  20.196  0.00  0.00    +0.000 HD
ENDROOT
BRANCH   6  12
ATOM     12  O   UNL     1       5.619   4.856  15.439  0.00  0.00    +0.000 OA
BRANCH  12  13
ATOM     13  C   UNL     1       7.018   5.009  15.629  0.00  0.00    +0.000 C 
ATOM     14  F   UNL     1       7.561   4.110  16.474  0.00  0.00    +0.000 F 
ATOM     15  F   UNL     1       7.627   4.868  14.429  0.00  0.00    +0.000 F 
ATOM     16  F   UNL     1       7.275   6.254  16.085  0.00  0.00    +0.000 F 
ENDBRANCH  12  13
ENDBRANCH   6  12
BRANCH  10  17
ATOM     17  C   UNL     1       1.606   6.179  20.540  0.00  0.00    +0.000 C 
BRANCH  17  18
ATOM     18  C   UNL     1       1.991   7.560  19.970  0.00  0.00    +0.000 C 
BRANCH  18  19
ATOM     19  N   UNL     1       1.438   8.646  20.789  0.00  0.00    +0.000 NA
ATOM     20  C   UNL     1       0.219   8.251  21.541  0.00  0.00    +0.000 C 
ATOM     21  C   UNL     1      -0.243   9.390  22.488  0.00  0.00    +0.000 C 
ATOM     22  N   UNL     1      -0.424  10.643  21.729  0.00  0.00    +0.000 N 
ATOM     23  C   UNL     1       0.725  11.019  20.895  0.00  0.00    +0.000 C 
ATOM     24  C   UNL     1       1.097   9.832  19.976  0.00  0.00    +0.000 C 
BRANCH  22  25
ATOM     25  C   UNL     1      -1.457  11.521  21.987  0.00  0.00    +0.000 A 
ATOM     26  C   UNL     1      -1.994  12.362  20.999  0.00  0.00    +0.000 A 
ATOM     27  C   UNL     1      -3.092  13.194  21.252  0.00  0.00    +0.000 A 
ATOM     28  C   UNL     1      -3.679  13.208  22.509  0.00  0.00    +0.000 A 
ATOM     29  C   UNL     1      -3.167  12.393  23.511  0.00  0.00    +0.000 A 
ATOM     30  C   UNL     1      -2.069  11.565  23.248  0.00  0.00    +0.000 A 
ENDBRANCH  22  25
ENDBRANCH  18  19
ENDBRANCH  17  18
ENDBRANCH  10  17
TORSDOF 6
ENDMDL
MODEL 9
REMARK VINA RESULT:      -7.2      1.423      2.018
REMARK  Name = 
REMARK  6 active torsions:
REMARK  status: ('A' for Active; 'I' for Inactive)
REMARK    1  A    between atoms: C_6  and  O_7
REMARK    2  A    between atoms: O_7  and  C_8
REMARK    3  A    between atoms: N_15  and  C_16
REMARK    4  A    between atoms: C_16  and  C_17
REMARK    5  A    between atoms: C_17  and  N_18
REMARK    6  A    between atoms: N_21  and  C_22
REMARK                            x       y       z     vdW  Elec       q    Type
REMARK                         _______ _______ _______ _____ _____    ______ ____
ROOT
ATOM      1  N   UNL     1       1.784   5.251  21.009  0.00  0.00    +0.000 NA
ATOM      2  C   UNL     1       2.573   5.461  20.015  0.00  0.00    +0.000 A 
ATOM      3  S   UNL     1       3.717   4.201  19.544  0.00  0.00    +0.000 S 
ATOM      4  C   UNL     1       4.302   5.233  18.215  0.00  0.00    +0.000 A 
ATOM      5  C   UNL     1       5.304   4.928  17.310  0.00  0.00    +0.000 A 
ATOM      6  C   UNL     1       5.650   5.867  16.338  0.00  0.00    +0.000 A 
ATOM      7  C   UNL     1       4.938   7.072  16.261  0.00  0.00    +0.000 A 
ATOM      8  C   UNL     1       3.926   7.373  17.194  0.00  0.00    +0.000 A 
ATOM      9  C   UNL     1       3.607   6.457  18.189  0.00  0.00    +0.000 A 
ATOM     10  N   UNL     1       2.663   6.574  19.213  0.00  0.00    +0.000 N 
ATOM     11  H   UNL     1       2.000   4.313  21.367  0.00  0.00    +0.000 HD
ENDROOT
BRANCH   6  12
ATOM     12  O   UNL     1       6.655   5.467  15.512  0.00  0.00    +0.000 OA
BRANCH  12  13
ATOM     13  C   UNL     1       6.393   4.565  14.446  0.00  0.00    +0.000 C 
ATOM     14  F   UNL     1       5.130   4.618  13.978  0.00  0.00    +0.000 F 
ATOM     15  F   UNL     1       7.225   4.865  13.423  0.00  0.00    +0.000 F 
ATOM     16  F   UNL     1       6.661   3.305  14.850  0.00  0.00    +0.000 F 
ENDBRANCH  12  13
ENDBRANCH   6  12
BRANCH  10  17
ATOM     17  C   UNL     1       1.807   7.734  19.414  0.00  0.00    +0.000 C 
BRANCH  17  18
ATOM     18  C   UNL     1       1.896   8.242  20.868  0.00  0.00    +0.000 C 
BRANCH  18  19
ATOM     19  N   UNL     1       0.677   8.967  21.252  0.00  0.00    +0.000 NA
ATOM     20  C   UNL     1       0.492  10.238  20.507  0.00  0.00    +0.000 C 
ATOM     21  C   UNL     1      -0.872  10.892  20.856  0.00  0.00    +0.000 C 
ATOM     22  N   UNL     1      -0.997  11.065  22.316  0.00  0.00    +0.000 N 
ATOM     23  C   UNL     1      -0.725   9.851  23.097  0.00  0.00    +0.000 C 
ATOM     24  C   UNL     1       0.658   9.287  22.696  0.00  0.00    +0.000 C 
BRANCH  22  25
ATOM     25  C   UNL     1      -1.580  12.180  22.881  0.00  0.00    +0.000 A 
ATOM     26  C   UNL     1      -2.887  12.167  23.397  0.00  0.00    +0.000 A 
ATOM     27  C   UNL     1      -3.442  13.282  24.036  0.00  0.00    +0.000 A 
ATOM     28  C   UNL     1      -2.700  14.447  24.171  0.00  0.00    +0.000 A 
ATOM     29  C   UNL     1      -1.406  14.496  23.666  0.00  0.00    +0.000 A 
ATOM     30  C   UNL     1      -0.861  13.375  23.028  0.00  0.00    +0.000 A 
ENDBRANCH  22  25
ENDBRANCH  18  19
ENDBRANCH  17  18
ENDBRANCH  10  17
TORSDOF 6
ENDMDL
