MODEL 1
REMARK VINA RESULT:      -6.6      0.000      0.000
REMARK  Name = 
REMARK  5 active torsions:
REMARK  status: ('A' for Active; 'I' for Inactive)
REMARK    1  A    between atoms: C_1  and  O_2
REMARK    2  A    between atoms: O_2  and  C_3
REMARK    3  A    between atoms: C_7  and  N_8
REMARK    4  A    between atoms: C_9  and  C_11
REMARK    5  A    between atoms: C_14  and  C_15
REMARK                            x       y       z     vdW  Elec       q    Type
REMARK                         _______ _______ _______ _____ _____    ______ ____
ROOT
ATOM      1  N   UNL     1       2.233   6.454  19.594  0.00  0.00    +0.000 N 
ATOM      2  C   UNL     1       2.074   7.784  19.239  0.00  0.00    +0.000 C 
ATOM      3  O   UNL     1       2.497   8.309  18.214  0.00  0.00    +0.000 OA
ATOM      4  H   UNL     1       1.748   6.108  20.407  0.00  0.00    +0.000 HD
ENDROOT
BRANCH   1   9
ATOM      5  C   UNL     1       5.228   4.506  18.586  0.00  0.00    +0.000 A 
ATOM      6  C   UNL     1       4.700   3.686  17.586  0.00  0.00    +0.000 A 
ATOM      7  C   UNL     1       3.358   3.780  17.233  0.00  0.00    +0.000 A 
ATOM      8  C   UNL     1       2.532   4.689  17.890  0.00  0.00    +0.000 A 
ATOM      9  C   UNL     1       3.033   5.509  18.904  0.00  0.00    +0.000 A 
ATOM     10  C   UNL     1       4.395   5.422  19.238  0.00  0.00    +0.000 A 
BRANCH   5  12
ATOM     11  C   UNL     1       7.478   5.025  17.998  0.00  0.00    +0.000 C 
ATOM     12  O   UNL     1       6.562   4.312  18.815  0.00  0.00    +0.000 OA
ENDBRANCH   5  12
ENDBRANCH   1   9
BRANCH   2  13
ATOM     13  C   UNL     1       1.332   8.662  20.189  0.00  0.00    +0.000 A 
ATOM     14  C   UNL     1       0.750   9.825  19.658  0.00  0.00    +0.000 A 
ATOM     15  C   UNL     1       0.046  10.711  20.475  0.00  0.00    +0.000 A 
ATOM     16  C   UNL     1      -0.088  10.441  21.838  0.00  0.00    +0.000 A 
ATOM     17  C   UNL     1       0.470   9.273  22.371  0.00  0.00    +0.000 A 
ATOM     18  C   UNL     1       1.178   8.380  21.551  0.00  0.00    +0.000 A 
BRANCH  16  19
ATOM     19  C   UNL     1      -0.801  11.353  22.683  0.00  0.00    +0.000 C 
ATOM     20  N   UNL     1      -1.369  12.100  23.366  0.00  0.00    +0.000 NA
ENDBRANCH  16  19
ENDBRANCH   2  13
TORSDOF 4
ENDMDL
MODEL 2
REMARK VINA RESULT:      -6.5      0.306      1.150
REMARK  Name = 
REMARK  5 active torsions:
REMARK  status: ('A' for Active; 'I' for Inactive)
REMARK    1  A    between atoms: C_1  and  O_2
REMARK    2  A    between atoms: O_2  and  C_3
REMARK    3  A    between atoms: C_7  and  N_8
REMARK    4  A    between atoms: C_9  and  C_11
REMARK    5  A    between atoms: C_14  and  C_15
REMARK                            x       y       z     vdW  Elec       q    Type
REMARK                         _______ _______ _______ _____ _____    ______ ____
ROOT
ATOM      1  N   UNL     1       2.268   6.551  19.396  0.00  0.00    +0.000 N 
ATOM      2  C   UNL     1       2.132   7.848  18.929  0.00  0.00    +0.000 C 
ATOM      3  O   UNL     1       2.562   8.276  17.863  0.00  0.00    +0.000 OA
ATOM      4  H   UNL     1       1.778   6.282  20.236  0.00  0.00    +0.000 HD
ENDROOT
BRANCH   1   9
ATOM      5  C   UNL     1       5.245   4.529  18.483  0.00  0.00    +0.000 A 
ATOM      6  C   UNL     1       4.684   3.584  17.622  0.00  0.00    +0.000 A 
ATOM      7  C   UNL     1       3.325   3.616  17.332  0.00  0.00    +0.000 A 
ATOM      8  C   UNL     1       2.515   4.589  17.912  0.00  0.00    +0.000 A 
ATOM      9  C   UNL     1       3.051   5.536  18.789  0.00  0.00    +0.000 A 
ATOM     10  C   UNL     1       4.429   5.510  19.058  0.00  0.00    +0.000 A 
BRANCH   5  12
ATOM     11  C   UNL     1       7.432   4.581  17.537  0.00  0.00    +0.000 C 
ATOM     12  O   UNL     1       6.593   4.383  18.665  0.00  0.00    +0.000 OA
ENDBRANCH   5  12
ENDBRANCH   1   9
BRANCH   2  13
ATOM     13  C   UNL     1       1.407   8.816  19.802  0.00  0.00    +0.000 A 
ATOM     14  C   UNL     1       1.295   8.484  21.162  0.00  0.00    +0.000 A 
ATOM     15  C   UNL     1       0.623   9.326  22.052  0.00  0.00    +0.000 A 
ATOM     16  C   UNL     1       0.058  10.515  21.590  0.00  0.00    +0.000 A 
ATOM     17  C   UNL     1       0.185  10.864  20.239  0.00  0.00    +0.000 A 
ATOM     18  C   UNL     1       0.861  10.020  19.344  0.00  0.00    +0.000 A 
BRANCH  16  19
ATOM     19  C   UNL     1      -0.641  11.377  22.496  0.00  0.00    +0.000 C 
ATOM     20  N   UNL     1      -1.198  12.082  23.232  0.00  0.00    +0.000 NA
ENDBRANCH  16  19
ENDBRANCH   2  13
TORSDOF 4
ENDMDL
MODEL 3
REMARK VINA RESULT:      -6.3      2.333      3.374
REMARK  Name = 
REMARK  5 active torsions:
REMARK  status: ('A' for Active; 'I' for Inactive)
REMARK    1  A    between atoms: C_1  and  O_2
REMARK    2  A    between atoms: O_2  and  C_3
REMARK    3  A    between atoms: C_7  and  N_8
REMARK    4  A    between atoms: C_9  and  C_11
REMARK    5  A    between atoms: C_14  and  C_15
REMARK                            x       y       z     vdW  Elec       q    Type
REMARK                         _______ _______ _______ _____ _____    ______ ____
ROOT
ATOM      1  N   UNL     1       4.549   6.968  17.889  0.00  0.00    +0.000 N 
ATOM      2  C   UNL     1       3.218   6.645  18.099  0.00  0.00    +0.000 C 
ATOM      3  O   UNL     1       2.713   5.540  17.929  0.00  0.00    +0.000 OA
ATOM      4  H   UNL     1       4.877   7.881  18.167  0.00  0.00    +0.000 HD
ENDROOT
BRANCH   1   9
ATOM      5  C   UNL     1       6.452   5.128  15.286  0.00  0.00    +0.000 A 
ATOM      6  C   UNL     1       7.386   4.440  16.062  0.00  0.00    +0.000 A 
ATOM      7  C   UNL     1       7.386   4.572  17.446  0.00  0.00    +0.000 A 
ATOM      8  C   UNL     1       6.455   5.405  18.062  0.00  0.00    +0.000 A 
ATOM      9  C   UNL     1       5.520   6.116  17.306  0.00  0.00    +0.000 A 
ATOM     10  C   UNL     1       5.514   5.959  15.910  0.00  0.00    +0.000 A 
BRANCH   5  12
ATOM     11  C   UNL     1       5.949   3.719  13.431  0.00  0.00    +0.000 C 
ATOM     12  O   UNL     1       6.563   4.892  13.943  0.00  0.00    +0.000 OA
ENDBRANCH   5  12
ENDBRANCH   1   9
BRANCH   2  13
ATOM     13  C   UNL     1       2.314   7.736  18.563  0.00  0.00    +0.000 A 
ATOM     14  C   UNL     1       1.963   7.736  19.923  0.00  0.00    +0.000 A 
ATOM     15  C   UNL     1       1.112   8.713  20.443  0.00  0.00    +0.000 A 
ATOM     16  C   UNL     1       0.605   9.709  19.608  0.00  0.00    +0.000 A 
ATOM     17  C   UNL     1       0.968   9.729  18.255  0.00  0.00    +0.000 A 
ATOM     18  C   UNL     1       1.824   8.748  17.730  0.00  0.00    +0.000 A 
BRANCH  16  19
ATOM     19  C   UNL     1      -0.277  10.708  20.134  0.00  0.00    +0.000 C 
ATOM     20  N   UNL     1      -1.001  11.509  20.562  0.00  0.00    +0.000 NA
ENDBRANCH  16  19
ENDBRANCH   2  13
TORSDOF 4
ENDMDL
MODEL 4
REMARK VINA RESULT:      -6.3      1.403      1.415
REMARK  Name = 
REMARK  5 active torsions:
REMARK  status: ('A' for Active; 'I' for Inactive)
REMARK    1  A    between atoms: C_1  and  O_2
REMARK    2  A    between atoms: O_2  and  C_3
REMARK    3  A    between atoms: C_7  and  N_8
REMARK    4  A    between atoms: C_9  and  C_11
REMARK    5  A    between atoms: C_14  and  C_15
REMARK                            x       y       z     vdW  Elec       q    Type
REMARK                         _______ _______ _______ _____ _____    ______ ____
ROOT
ATOM      1  N   UNL     1       2.807   6.823  18.845  0.00  0.00    +0.000 N 
ATOM      2  C   UNL     1       2.216   8.036  18.529  0.00  0.00    +0.000 C 
ATOM      3  O   UNL     1       2.269   8.597  17.439  0.00  0.00    +0.000 OA
ATOM      4  H   UNL     1       2.605   6.403  19.739  0.00  0.00    +0.000 HD
ENDROOT
BRANCH   1   9
ATOM      5  C   UNL     1       5.836   6.003  16.861  0.00  0.00    +0.000 A 
ATOM      6  C   UNL     1       5.499   4.748  16.349  0.00  0.00    +0.000 A 
ATOM      7  C   UNL     1       4.269   4.173  16.647  0.00  0.00    +0.000 A 
ATOM      8  C   UNL     1       3.371   4.847  17.472  0.00  0.00    +0.000 A 
ATOM      9  C   UNL     1       3.692   6.096  18.009  0.00  0.00    +0.000 A 
ATOM     10  C   UNL     1       4.928   6.679  17.683  0.00  0.00    +0.000 A 
BRANCH   5  12
ATOM     11  C   UNL     1       7.703   7.419  17.291  0.00  0.00    +0.000 C 
ATOM     12  O   UNL     1       7.070   6.448  16.473  0.00  0.00    +0.000 OA
ENDBRANCH   5  12
ENDBRANCH   1   9
BRANCH   2  13
ATOM     13  C   UNL     1       1.456   8.728  19.609  0.00  0.00    +0.000 A 
ATOM     14  C   UNL     1       0.830   9.939  19.268  0.00  0.00    +0.000 A 
ATOM     15  C   UNL     1       0.106  10.662  20.219  0.00  0.00    +0.000 A 
ATOM     16  C   UNL     1      -0.005  10.179  21.523  0.00  0.00    +0.000 A 
ATOM     17  C   UNL     1       0.597   8.961  21.864  0.00  0.00    +0.000 A 
ATOM     18  C   UNL     1       1.325   8.232  20.910  0.00  0.00    +0.000 A 
BRANCH  16  19
ATOM     19  C   UNL     1      -0.738  10.922  22.504  0.00  0.00    +0.000 C 
ATOM     20  N   UNL     1      -1.331  11.535  23.293  0.00  0.00    +0.000 NA
ENDBRANCH  16  19
ENDBRANCH   2  13
TORSDOF 4
ENDMDL
MODEL 5
REMARK VINA RESULT:      -6.3      2.459      3.242
REMARK  Name = 
REMARK  5 active torsions:
REMARK  status: ('A' for Active; 'I' for Inactive)
REMARK    1  A    between atoms: C_1  and  O_2
REMARK    2  A    between atoms: O_2  and  C_3
REMARK    3  A    between atoms: C_7  and  N_8
REMARK    4  A    between atoms: C_9  and  C_11
REMARK    5  A    between atoms: C_14  and  C_15
REMARK                            x       y       z     vdW  Elec       q    Type
REMARK                         _______ _______ _______ _____ _____    ______ ____
ROOT
ATOM      1  N   UNL     1       4.405   6.872  17.696  0.00  0.00    +0.000 N 
ATOM      2  C   UNL     1       3.231   6.511  18.337  0.00  0.00    +0.000 C 
ATOM      3  O   UNL     1       2.852   5.363  18.547  0.00  0.00    +0.000 OA
ATOM      4  H   UNL     1       4.668   7.846  17.678  0.00  0.00    +0.000 HD
ENDROOT
BRANCH   1   9
ATOM      5  C   UNL     1       5.793   4.617  15.095  0.00  0.00    +0.000 A 
ATOM      6  C   UNL     1       6.982   4.200  15.696  0.00  0.00    +0.000 A 
ATOM      7  C   UNL     1       7.326   4.653  16.965  0.00  0.00    +0.000 A 
ATOM      8  C   UNL     1       6.485   5.538  17.636  0.00  0.00    +0.000 A 
ATOM      9  C   UNL     1       5.297   5.981  17.049  0.00  0.00    +0.000 A 
ATOM     10  C   UNL     1       4.947   5.499  15.776  0.00  0.00    +0.000 A 
BRANCH   5  12
ATOM     11  C   UNL     1       6.704   3.941  12.999  0.00  0.00    +0.000 C 
ATOM     12  O   UNL     1       5.580   4.080  13.855  0.00  0.00    +0.000 OA
ENDBRANCH   5  12
ENDBRANCH   1   9
BRANCH   2  13
ATOM     13  C   UNL     1       2.341   7.612  18.806  0.00  0.00    +0.000 A 
ATOM     14  C   UNL     1       1.930   8.549  17.843  0.00  0.00    +0.000 A 
ATOM     15  C   UNL     1       1.105   9.620  18.194  0.00  0.00    +0.000 A 
ATOM     16  C   UNL     1       0.675   9.763  19.514  0.00  0.00    +0.000 A 
ATOM     17  C   UNL     1       1.062   8.820  20.474  0.00  0.00    +0.000 A 
ATOM     18  C   UNL     1       1.891   7.742  20.124  0.00  0.00    +0.000 A 
BRANCH  16  19
ATOM     19  C   UNL     1      -0.163  10.866  19.880  0.00  0.00    +0.000 C 
ATOM     20  N   UNL     1      -0.851  11.752  20.179  0.00  0.00    +0.000 NA
ENDBRANCH  16  19
ENDBRANCH   2  13
TORSDOF 4
ENDMDL
MODEL 6
REMARK VINA RESULT:      -6.3      1.186      1.621
REMARK  Name = 
REMARK  5 active torsions:
REMARK  status: ('A' for Active; 'I' for Inactive)
REMARK    1  A    between atoms: C_1  and  O_2
REMARK    2  A    between atoms: O_2  and  C_3
REMARK    3  A    between atoms: C_7  and  N_8
REMARK    4  A    between atoms: C_9  and  C_11
REMARK    5  A    between atoms: C_14  and  C_15
REMARK                            x       y       z     vdW  Elec       q    Type
REMARK                         _______ _______ _______ _____ _____    ______ ____
ROOT
ATOM      1  N   UNL     1       2.566   6.806  18.833  0.00  0.00    +0.000 N 
ATOM      2  C   UNL     1       2.157   8.073  18.451  0.00  0.00    +0.000 C 
ATOM      3  O   UNL     1       2.359   8.594  17.358  0.00  0.00    +0.000 OA
ATOM      4  H   UNL     1       2.248   6.439  19.717  0.00  0.00    +0.000 HD
ENDROOT
BRANCH   1   9
ATOM      5  C   UNL     1       5.572   5.599  17.020  0.00  0.00    +0.000 A 
ATOM      6  C   UNL     1       5.143   4.346  16.577  0.00  0.00    +0.000 A 
ATOM      7  C   UNL     1       3.859   3.899  16.866  0.00  0.00    +0.000 A 
ATOM      8  C   UNL     1       2.998   4.701  17.612  0.00  0.00    +0.000 A 
ATOM      9  C   UNL     1       3.409   5.952  18.079  0.00  0.00    +0.000 A 
ATOM     10  C   UNL     1       4.701   6.404  17.762  0.00  0.00    +0.000 A 
BRANCH   5  12
ATOM     11  C   UNL     1       7.506   6.948  17.364  0.00  0.00    +0.000 C 
ATOM     12  O   UNL     1       6.851   5.911  16.650  0.00  0.00    +0.000 OA
ENDBRANCH   5  12
ENDBRANCH   1   9
BRANCH   2  13
ATOM     13  C   UNL     1       1.414   8.885  19.458  0.00  0.00    +0.000 A 
ATOM     14  C   UNL     1       1.309   8.349  20.753  0.00  0.00    +0.000 A 
ATOM     15  C   UNL     1       0.622   9.034  21.757  0.00  0.00    +0.000 A 
ATOM     16  C   UNL     1       0.035  10.269  21.479  0.00  0.00    +0.000 A 
ATOM     17  C   UNL     1       0.154  10.820  20.196  0.00  0.00    +0.000 A 
ATOM     18  C   UNL     1       0.845  10.133  19.185  0.00  0.00    +0.000 A 
BRANCH  16  19
ATOM     19  C   UNL     1      -0.681  10.971  22.503  0.00  0.00    +0.000 C 
ATOM     20  N   UNL     1      -1.253  11.549  23.331  0.00  0.00    +0.000 NA
ENDBRANCH  16  19
ENDBRANCH   2  13
TORSDOF 4
ENDMDL
MODEL 7
REMARK VINA RESULT:      -6.3      5.489      7.209
REMARK  Name = 
REMARK  5 active torsions:
REMARK  status: ('A' for Active; 'I' for Inactive)
REMARK    1  A    between atoms: C_1  and  O_2
REMARK    2  A    between atoms: O_2  and  C_3
REMARK    3  A    between atoms: C_7  and  N_8
REMARK    4  A    between atoms: C_9  and  C_11
REMARK    5  A    between atoms: C_14  and  C_15
REMARK                            x       y       z     vdW  Elec       q    Type
REMARK                         _______ _______ _______ _____ _____    ______ ____
ROOT
ATOM      1  N   UNL     1       7.070   7.860  17.100  0.00  0.00    +0.000 N 
ATOM      2  C   UNL     1       8.006   8.097  18.094  0.00  0.00    +0.000 C 
ATOM      3  O   UNL     1       8.485   7.253  18.844  0.00  0.00    +0.000 OA
ATOM      4  H   UNL     1       6.830   8.610  16.470  0.00  0.00    +0.000 HD
ENDROOT
BRANCH   1   9
ATOM      5  C   UNL     1       4.394   5.289  17.182  0.00  0.00    +0.000 A 
ATOM      6  C   UNL     1       5.005   4.233  16.503  0.00  0.00    +0.000 A 
ATOM      7  C   UNL     1       6.303   4.361  16.025  0.00  0.00    +0.000 A 
ATOM      8  C   UNL     1       6.997   5.554  16.214  0.00  0.00    +0.000 A 
ATOM      9  C   UNL     1       6.402   6.630  16.876  0.00  0.00    +0.000 A 
ATOM     10  C   UNL     1       5.096   6.484  17.375  0.00  0.00    +0.000 A 
BRANCH   5  12
ATOM     11  C   UNL     1       2.645   3.690  17.434  0.00  0.00    +0.000 C 
ATOM     12  O   UNL     1       3.122   5.016  17.605  0.00  0.00    +0.000 OA
ENDBRANCH   5  12
ENDBRANCH   1   9
BRANCH   2  13
ATOM     13  C   UNL     1       8.467   9.504  18.278  0.00  0.00    +0.000 A 
ATOM     14  C   UNL     1       9.355   9.747  19.339  0.00  0.00    +0.000 A 
ATOM     15  C   UNL     1       9.830  11.036  19.593  0.00  0.00    +0.000 A 
ATOM     16  C   UNL     1       9.426  12.098  18.783  0.00  0.00    +0.000 A 
ATOM     17  C   UNL     1       8.558  11.859  17.709  0.00  0.00    +0.000 A 
ATOM     18  C   UNL     1       8.080  10.564  17.451  0.00  0.00    +0.000 A 
BRANCH  16  19
ATOM     19  C   UNL     1       9.902  13.423  19.046  0.00  0.00    +0.000 C 
ATOM     20  N   UNL     1      10.277  14.501  19.262  0.00  0.00    +0.000 NA
ENDBRANCH  16  19
ENDBRANCH   2  13
TORSDOF 4
ENDMDL
MODEL 8
REMARK VINA RESULT:      -6.2      5.468      7.112
REMARK  Name = 
REMARK  5 active torsions:
REMARK  status: ('A' for Active; 'I' for Inactive)
REMARK    1  A    between atoms: C_1  and  O_2
REMARK    2  A    between atoms: O_2  and  C_3
REMARK    3  A    between atoms: C_7  and  N_8
REMARK    4  A    between atoms: C_9  and  C_11
REMARK    5  A    between atoms: C_14  and  C_15
REMARK                            x       y       z     vdW  Elec       q    Type
REMARK                         _______ _______ _______ _____ _____    ______ ____
ROOT
ATOM      1  N   UNL     1       7.048   7.823  17.118  0.00  0.00    +0.000 N 
ATOM      2  C   UNL     1       7.992   8.017  18.114  0.00  0.00    +0.000 C 
ATOM      3  O   UNL     1       8.455   7.146  18.843  0.00  0.00    +0.000 OA
ATOM      4  H   UNL     1       6.822   8.592  16.507  0.00  0.00    +0.000 HD
ENDROOT
BRANCH   1   9
ATOM      5  C   UNL     1       4.325   5.301  17.168  0.00  0.00    +0.000 A 
ATOM      6  C   UNL     1       4.904   4.254  16.448  0.00  0.00    +0.000 A 
ATOM      7  C   UNL     1       6.198   4.372  15.952  0.00  0.00    +0.000 A 
ATOM      8  C   UNL     1       6.916   5.547  16.165  0.00  0.00    +0.000 A 
ATOM      9  C   UNL     1       6.352   6.613  16.869  0.00  0.00    +0.000 A 
ATOM     10  C   UNL     1       5.053   6.476  17.385  0.00  0.00    +0.000 A 
BRANCH   5  12
ATOM     11  C   UNL     1       2.561   3.719  17.427  0.00  0.00    +0.000 C 
ATOM     12  O   UNL     1       3.055   5.038  17.604  0.00  0.00    +0.000 OA
ENDBRANCH   5  12
ENDBRANCH   1   9
BRANCH   2  13
ATOM     13  C   UNL     1       8.483   9.409  18.328  0.00  0.00    +0.000 A 
ATOM     14  C   UNL     1       7.980  10.400  17.468  0.00  0.00    +0.000 A 
ATOM     15  C   UNL     1       8.393  11.728  17.588  0.00  0.00    +0.000 A 
ATOM     16  C   UNL     1       9.312  12.084  18.576  0.00  0.00    +0.000 A 
ATOM     17  C   UNL     1       9.801  11.106  19.452  0.00  0.00    +0.000 A 
ATOM     18  C   UNL     1       9.387   9.769  19.333  0.00  0.00    +0.000 A 
BRANCH  16  19
ATOM     19  C   UNL     1       9.747  13.444  18.696  0.00  0.00    +0.000 C 
ATOM     20  N   UNL     1      10.088  14.549  18.794  0.00  0.00    +0.000 NA
ENDBRANCH  16  19
ENDBRANCH   2  13
TORSDOF 4
ENDMDL
MODEL 9
REMARK VINA RESULT:      -6.2      2.921      7.723
REMARK  Name = 
REMARK  5 active torsions:
REMARK  status: ('A' for Active; 'I' for Inactive)
REMARK    1  A    between atoms: C_1  and  O_2
REMARK    2  A    between atoms: O_2  and  C_3
REMARK    3  A    between atoms: C_7  and  N_8
REMARK    4  A    between atoms: C_9  and  C_11
REMARK    5  A    between atoms: C_14  and  C_15
REMARK                            x       y       z     vdW  Elec       q    Type
REMARK                         _______ _______ _______ _____ _____    ______ ____
ROOT
ATOM      1  N   UNL     1       1.231   9.197  19.231  0.00  0.00    +0.000 N 
ATOM      2  C   UNL     1       2.051   8.548  18.322  0.00  0.00    +0.000 C 
ATOM      3  O   UNL     1       2.365   8.967  17.213  0.00  0.00    +0.000 OA
ATOM      4  H   UNL     1       1.130   8.810  20.157  0.00  0.00    +0.000 HD
ENDROOT
BRANCH   1   9
ATOM      5  C   UNL     1      -1.474  11.427  18.010  0.00  0.00    +0.000 A 
ATOM      6  C   UNL     1      -1.003  12.678  18.413  0.00  0.00    +0.000 A 
ATOM      7  C   UNL     1       0.211  12.792  19.079  0.00  0.00    +0.000 A 
ATOM      8  C   UNL     1       0.959  11.650  19.357  0.00  0.00    +0.000 A 
ATOM      9  C   UNL     1       0.501  10.386  18.978  0.00  0.00    +0.000 A 
ATOM     10  C   UNL     1      -0.717  10.283  18.285  0.00  0.00    +0.000 A 
BRANCH   5  12
ATOM     11  C   UNL     1      -3.016  10.359  16.539  0.00  0.00    +0.000 C 
ATOM     12  O   UNL     1      -2.674  11.470  17.354  0.00  0.00    +0.000 OA
ENDBRANCH   5  12
ENDBRANCH   1   9
BRANCH   2  13
ATOM     13  C   UNL     1       2.594   7.217  18.720  0.00  0.00    +0.000 A 
ATOM     14  C   UNL     1       3.574   6.656  17.885  0.00  0.00    +0.000 A 
ATOM     15  C   UNL     1       4.131   5.408  18.172  0.00  0.00    +0.000 A 
ATOM     16  C   UNL     1       3.715   4.707  19.305  0.00  0.00    +0.000 A 
ATOM     17  C   UNL     1       2.754   5.269  20.155  0.00  0.00    +0.000 A 
ATOM     18  C   UNL     1       2.194   6.525  19.868  0.00  0.00    +0.000 A 
BRANCH  16  19
ATOM     19  C   UNL     1       4.275   3.421  19.599  0.00  0.00    +0.000 C 
ATOM     20  N   UNL     1       4.718   2.374  19.837  0.00  0.00    +0.000 NA
ENDBRANCH  16  19
ENDBRANCH   2  13
TORSDOF 4
ENDMDL
