MODEL 1
REMARK VINA RESULT:      -7.1      0.000      0.000
REMARK  Name = 
REMARK  5 active torsions:
REMARK  status: ('A' for Active; 'I' for Inactive)
REMARK    1  A    between atoms: C_1  and  C_2
REMARK    2  A    between atoms: C_5  and  C_6
REMARK    3  A    between atoms: C_6  and  N_7
REMARK    4  A    between atoms: C_15  and  C_17
REMARK    5  A    between atoms: C_17  and  C_18
REMARK                            x       y       z     vdW  Elec       q    Type
REMARK                         _______ _______ _______ _____ _____    ______ ____
ROOT
ATOM      1  N   UNL     1       1.493   7.978  19.153  0.00  0.00    +0.000 NA
ATOM      2  C   UNL     1       2.294   8.433  17.979  0.00  0.00    +0.000 C 
ATOM      3  C   UNL     1       3.355   7.349  17.716  0.00  0.00    +0.000 C 
ATOM      4  C   UNL     1       2.823   6.183  18.511  0.00  0.00    +0.000 C 
ATOM      5  C   UNL     1       2.316   6.930  19.743  0.00  0.00    +0.000 C 
ATOM      6  C   UNL     1       1.793   5.777  20.581  0.00  0.00    +0.000 C 
ATOM      7  C   UNL     1       2.912   4.731  20.370  0.00  0.00    +0.000 C 
ATOM      8  N   UNL     1       3.589   5.125  19.126  0.00  0.00    +0.000 N 
ATOM      9  C   UNL     1       4.659   4.403  18.649  0.00  0.00    +0.000 C 
ATOM     10  O   UNL     1       5.085   3.424  19.262  0.00  0.00    +0.000 OA
ENDROOT
BRANCH   1  11
ATOM     11  C   UNL     1       1.249   9.074  20.103  0.00  0.00    +0.000 C 
BRANCH  11  16
ATOM     12  C   UNL     1       0.652  13.642  18.619  0.00  0.00    +0.000 C 
ATOM     13  C   UNL     1       0.190  12.255  18.822  0.00  0.00    +0.000 A 
ATOM     14  C   UNL     1      -0.990  11.600  18.542  0.00  0.00    +0.000 A 
ATOM     15  C   UNL     1      -0.817  10.266  18.977  0.00  0.00    +0.000 A 
ATOM     16  C   UNL     1       0.457  10.185  19.497  0.00  0.00    +0.000 A 
ATOM     17  O   UNL     1       1.076  11.399  19.403  0.00  0.00    +0.000 OA
ENDBRANCH  11  16
ENDBRANCH   1  11
BRANCH   9  18
ATOM     18  C   UNL     1       5.356   4.883  17.387  0.00  0.00    +0.000 C 
BRANCH  18  19
ATOM     19  C   UNL     1       6.391   5.933  17.693  0.00  0.00    +0.000 A 
ATOM     20  C   UNL     1       6.667   7.130  17.053  0.00  0.00    +0.000 A 
ATOM     21  C   UNL     1       7.765   7.826  17.637  0.00  0.00    +0.000 A 
ATOM     22  C   UNL     1       8.283   7.153  18.719  0.00  0.00    +0.000 A 
ATOM     23  S   UNL     1       7.455   5.688  19.020  0.00  0.00    +0.000 S 
ENDBRANCH  18  19
ENDBRANCH   9  18
TORSDOF 4
ENDMDL
MODEL 2
REMARK VINA RESULT:      -7.0      3.108      4.927
REMARK  Name = 
REMARK  5 active torsions:
REMARK  status: ('A' for Active; 'I' for Inactive)
REMARK    1  A    between atoms: C_1  and  C_2
REMARK    2  A    between atoms: C_5  and  C_6
REMARK    3  A    between atoms: C_6  and  N_7
REMARK    4  A    between atoms: C_15  and  C_17
REMARK    5  A    between atoms: C_17  and  C_18
REMARK                            x       y       z     vdW  Elec       q    Type
REMARK                         _______ _______ _______ _____ _____    ______ ____
ROOT
ATOM      1  N   UNL     1       0.372  10.431  20.743  0.00  0.00    +0.000 NA
ATOM      2  C   UNL     1       0.219   9.413  21.824  0.00  0.00    +0.000 C 
ATOM      3  C   UNL     1       0.900   8.126  21.324  0.00  0.00    +0.000 C 
ATOM      4  C   UNL     1       1.726   8.631  20.169  0.00  0.00    +0.000 C 
ATOM      5  C   UNL     1       0.742   9.639  19.578  0.00  0.00    +0.000 C 
ATOM      6  C   UNL     1       1.537  10.152  18.390  0.00  0.00    +0.000 C 
ATOM      7  C   UNL     1       2.145   8.835  17.854  0.00  0.00    +0.000 C 
ATOM      8  N   UNL     1       2.113   7.898  18.986  0.00  0.00    +0.000 N 
ATOM      9  C   UNL     1       2.575   6.610  18.846  0.00  0.00    +0.000 C 
ATOM     10  O   UNL     1       3.007   6.207  17.765  0.00  0.00    +0.000 OA
ENDROOT
BRANCH   1  11
ATOM     11  C   UNL     1      -0.876  11.177  20.518  0.00  0.00    +0.000 C 
BRANCH  11  16
ATOM     12  C   UNL     1      -3.788  12.742  24.052  0.00  0.00    +0.000 C 
ATOM     13  C   UNL     1      -2.539  12.775  23.267  0.00  0.00    +0.000 A 
ATOM     14  C   UNL     1      -1.401  13.550  23.331  0.00  0.00    +0.000 A 
ATOM     15  C   UNL     1      -0.550  13.095  22.298  0.00  0.00    +0.000 A 
ATOM     16  C   UNL     1      -1.218  12.070  21.663  0.00  0.00    +0.000 A 
ATOM     17  O   UNL     1      -2.434  11.871  22.254  0.00  0.00    +0.000 OA
ENDBRANCH  11  16
ENDBRANCH   1  11
BRANCH   9  18
ATOM     18  C   UNL     1       2.472   5.666  20.031  0.00  0.00    +0.000 C 
BRANCH  18  19
ATOM     19  C   UNL     1       2.263   4.242  19.588  0.00  0.00    +0.000 A 
ATOM     20  C   UNL     1       1.093   3.557  19.304  0.00  0.00    +0.000 A 
ATOM     21  C   UNL     1       1.325   2.195  18.951  0.00  0.00    +0.000 A 
ATOM     22  C   UNL     1       2.665   1.885  18.955  0.00  0.00    +0.000 A 
ATOM     23  S   UNL     1       3.634   3.224  19.389  0.00  0.00    +0.000 S 
ENDBRANCH  18  19
ENDBRANCH   9  18
TORSDOF 4
ENDMDL
MODEL 3
REMARK VINA RESULT:      -7.0      1.794      2.211
REMARK  Name = 
REMARK  5 active torsions:
REMARK  status: ('A' for Active; 'I' for Inactive)
REMARK    1  A    between atoms: C_1  and  C_2
REMARK    2  A    between atoms: C_5  and  C_6
REMARK    3  A    between atoms: C_6  and  N_7
REMARK    4  A    between atoms: C_15  and  C_17
REMARK    5  A    between atoms: C_17  and  C_18
REMARK                            x       y       z     vdW  Elec       q    Type
REMARK                         _______ _______ _______ _____ _____    ______ ____
ROOT
ATOM      1  N   UNL     1       1.583   7.275  19.791  0.00  0.00    +0.000 NA
ATOM      2  C   UNL     1       2.393   7.797  18.652  0.00  0.00    +0.000 C 
ATOM      3  C   UNL     1       3.116   6.589  18.028  0.00  0.00    +0.000 C 
ATOM      4  C   UNL     1       2.355   5.426  18.612  0.00  0.00    +0.000 C 
ATOM      5  C   UNL     1       2.144   5.951  20.030  0.00  0.00    +0.000 C 
ATOM      6  C   UNL     1       1.398   4.787  20.658  0.00  0.00    +0.000 C 
ATOM      7  C   UNL     1       2.190   3.589  20.086  0.00  0.00    +0.000 C 
ATOM      8  N   UNL     1       2.860   4.101  18.881  0.00  0.00    +0.000 N 
ATOM      9  C   UNL     1       3.670   3.283  18.127  0.00  0.00    +0.000 C 
ATOM     10  O   UNL     1       3.868   2.113  18.455  0.00  0.00    +0.000 OA
ENDROOT
BRANCH   1  11
ATOM     11  C   UNL     1       1.698   8.135  20.979  0.00  0.00    +0.000 C 
BRANCH  11  16
ATOM     12  C   UNL     1      -1.328  11.255  23.106  0.00  0.00    +0.000 C 
ATOM     13  C   UNL     1      -0.652  10.676  21.930  0.00  0.00    +0.000 A 
ATOM     14  C   UNL     1      -0.693  10.955  20.581  0.00  0.00    +0.000 A 
ATOM     15  C   UNL     1       0.190  10.042  19.958  0.00  0.00    +0.000 A 
ATOM     16  C   UNL     1       0.717   9.259  20.963  0.00  0.00    +0.000 A 
ATOM     17  O   UNL     1       0.205   9.644  22.170  0.00  0.00    +0.000 OA
ENDBRANCH  11  16
ENDBRANCH   1  11
BRANCH   9  18
ATOM     18  C   UNL     1       4.380   3.874  16.922  0.00  0.00    +0.000 C 
BRANCH  18  19
ATOM     19  C   UNL     1       5.589   4.674  17.330  0.00  0.00    +0.000 A 
ATOM     20  C   UNL     1       6.289   4.690  18.526  0.00  0.00    +0.000 A 
ATOM     21  C   UNL     1       7.362   5.628  18.522  0.00  0.00    +0.000 A 
ATOM     22  C   UNL     1       7.465   6.286  17.318  0.00  0.00    +0.000 A 
ATOM     23  S   UNL     1       6.271   5.781  16.206  0.00  0.00    +0.000 S 
ENDBRANCH  18  19
ENDBRANCH   9  18
TORSDOF 4
ENDMDL
MODEL 4
REMARK VINA RESULT:      -7.0      3.013      7.636
REMARK  Name = 
REMARK  5 active torsions:
REMARK  status: ('A' for Active; 'I' for Inactive)
REMARK    1  A    between atoms: C_1  and  C_2
REMARK    2  A    between atoms: C_5  and  C_6
REMARK    3  A    between atoms: C_6  and  N_7
REMARK    4  A    between atoms: C_15  and  C_17
REMARK    5  A    between atoms: C_17  and  C_18
REMARK                            x       y       z     vdW  Elec       q    Type
REMARK                         _______ _______ _______ _____ _____    ______ ____
ROOT
ATOM      1  N   UNL     1       3.854   5.907  18.140  0.00  0.00    +0.000 NA
ATOM      2  C   UNL     1       3.873   7.149  17.312  0.00  0.00    +0.000 C 
ATOM      3  C   UNL     1       2.900   8.142  17.975  0.00  0.00    +0.000 C 
ATOM      4  C   UNL     1       2.706   7.533  19.340  0.00  0.00    +0.000 C 
ATOM      5  C   UNL     1       2.654   6.057  18.953  0.00  0.00    +0.000 C 
ATOM      6  C   UNL     1       2.432   5.413  20.309  0.00  0.00    +0.000 C 
ATOM      7  C   UNL     1       1.392   6.377  20.925  0.00  0.00    +0.000 C 
ATOM      8  N   UNL     1       1.538   7.638  20.183  0.00  0.00    +0.000 N 
ATOM      9  C   UNL     1       0.741   8.721  20.474  0.00  0.00    +0.000 C 
ATOM     10  O   UNL     1      -0.125   8.652  21.347  0.00  0.00    +0.000 OA
ENDROOT
BRANCH   1  11
ATOM     11  C   UNL     1       3.795   4.698  17.304  0.00  0.00    +0.000 C 
BRANCH  11  16
ATOM     12  C   UNL     1       6.180   3.751  13.201  0.00  0.00    +0.000 C 
ATOM     13  C   UNL     1       6.117   4.076  14.639  0.00  0.00    +0.000 A 
ATOM     14  C   UNL     1       7.077   4.289  15.605  0.00  0.00    +0.000 A 
ATOM     15  C   UNL     1       6.381   4.564  16.805  0.00  0.00    +0.000 A 
ATOM     16  C   UNL     1       5.037   4.501  16.502  0.00  0.00    +0.000 A 
ATOM     17  O   UNL     1       4.873   4.204  15.178  0.00  0.00    +0.000 OA
ENDBRANCH  11  16
ENDBRANCH   1  11
BRANCH   9  18
ATOM     18  C   UNL     1       0.897   9.983  19.644  0.00  0.00    +0.000 C 
BRANCH  18  19
ATOM     19  C   UNL     1      -0.372  10.319  18.905  0.00  0.00    +0.000 A 
ATOM     20  C   UNL     1      -0.884   9.801  17.726  0.00  0.00    +0.000 A 
ATOM     21  C   UNL     1      -2.106  10.423  17.338  0.00  0.00    +0.000 A 
ATOM     22  C   UNL     1      -2.504  11.382  18.240  0.00  0.00    +0.000 A 
ATOM     23  S   UNL     1      -1.406  11.536  19.540  0.00  0.00    +0.000 S 
ENDBRANCH  18  19
ENDBRANCH   9  18
TORSDOF 4
ENDMDL
MODEL 5
REMARK VINA RESULT:      -7.0      0.885      1.329
REMARK  Name = 
REMARK  5 active torsions:
REMARK  status: ('A' for Active; 'I' for Inactive)
REMARK    1  A    between atoms: C_1  and  C_2
REMARK    2  A    between atoms: C_5  and  C_6
REMARK    3  A    between atoms: C_6  and  N_7
REMARK    4  A    between atoms: C_15  and  C_17
REMARK    5  A    between atoms: C_17  and  C_18
REMARK                            x       y       z     vdW  Elec       q    Type
REMARK                         _______ _______ _______ _____ _____    ______ ____
ROOT
ATOM      1  N   UNL     1       1.521   8.138  19.022  0.00  0.00    +0.000 NA
ATOM      2  C   UNL     1       2.353   8.543  17.852  0.00  0.00    +0.000 C 
ATOM      3  C   UNL     1       3.396   7.429  17.641  0.00  0.00    +0.000 C 
ATOM      4  C   UNL     1       2.825   6.299  18.458  0.00  0.00    +0.000 C 
ATOM      5  C   UNL     1       2.310   7.091  19.658  0.00  0.00    +0.000 C 
ATOM      6  C   UNL     1       1.747   5.975  20.518  0.00  0.00    +0.000 C 
ATOM      7  C   UNL     1       2.848   4.901  20.360  0.00  0.00    +0.000 C 
ATOM      8  N   UNL     1       3.556   5.244  19.119  0.00  0.00    +0.000 N 
ATOM      9  C   UNL     1       4.619   4.486  18.683  0.00  0.00    +0.000 C 
ATOM     10  O   UNL     1       5.013   3.517  19.333  0.00  0.00    +0.000 OA
ENDROOT
BRANCH   1  11
ATOM     11  C   UNL     1       1.282   9.268  19.935  0.00  0.00    +0.000 C 
BRANCH  11  16
ATOM     12  C   UNL     1      -2.617  10.236  17.238  0.00  0.00    +0.000 C 
ATOM     13  C   UNL     1      -1.602  10.582  18.252  0.00  0.00    +0.000 A 
ATOM     14  C   UNL     1      -1.379  11.700  19.025  0.00  0.00    +0.000 A 
ATOM     15  C   UNL     1      -0.238  11.419  19.812  0.00  0.00    +0.000 A 
ATOM     16  C   UNL     1       0.168  10.146  19.473  0.00  0.00    +0.000 A 
ATOM     17  O   UNL     1      -0.664   9.631  18.519  0.00  0.00    +0.000 OA
ENDBRANCH  11  16
ENDBRANCH   1  11
BRANCH   9  18
ATOM     18  C   UNL     1       5.350   4.914  17.422  0.00  0.00    +0.000 C 
BRANCH  18  19
ATOM     19  C   UNL     1       6.395   5.958  17.717  0.00  0.00    +0.000 A 
ATOM     20  C   UNL     1       6.675   7.150  17.069  0.00  0.00    +0.000 A 
ATOM     21  C   UNL     1       7.782   7.841  17.643  0.00  0.00    +0.000 A 
ATOM     22  C   UNL     1       8.303   7.168  18.724  0.00  0.00    +0.000 A 
ATOM     23  S   UNL     1       7.467   5.711  19.037  0.00  0.00    +0.000 S 
ENDBRANCH  18  19
ENDBRANCH   9  18
TORSDOF 4
ENDMDL
MODEL 6
REMARK VINA RESULT:      -6.9      2.056      2.471
REMARK  Name = 
REMARK  5 active torsions:
REMARK  status: ('A' for Active; 'I' for Inactive)
REMARK    1  A    between atoms: C_1  and  C_2
REMARK    2  A    between atoms: C_5  and  C_6
REMARK    3  A    between atoms: C_6  and  N_7
REMARK    4  A    between atoms: C_15  and  C_17
REMARK    5  A    between atoms: C_17  and  C_18
REMARK                            x       y       z     vdW  Elec       q    Type
REMARK                         _______ _______ _______ _____ _____    ______ ____
ROOT
ATOM      1  N   UNL     1       1.595   7.180  20.160  0.00  0.00    +0.000 NA
ATOM      2  C   UNL     1       2.277   7.740  18.957  0.00  0.00    +0.000 C 
ATOM      3  C   UNL     1       2.823   6.542  18.157  0.00  0.00    +0.000 C 
ATOM      4  C   UNL     1       2.070   5.385  18.761  0.00  0.00    +0.000 C 
ATOM      5  C   UNL     1       2.090   5.811  20.228  0.00  0.00    +0.000 C 
ATOM      6  C   UNL     1       1.357   4.649  20.873  0.00  0.00    +0.000 C 
ATOM      7  C   UNL     1       1.980   3.454  20.116  0.00  0.00    +0.000 C 
ATOM      8  N   UNL     1       2.514   4.015  18.867  0.00  0.00    +0.000 N 
ATOM      9  C   UNL     1       3.156   3.212  17.953  0.00  0.00    +0.000 C 
ATOM     10  O   UNL     1       3.315   2.010  18.169  0.00  0.00    +0.000 OA
ENDROOT
BRANCH   1  11
ATOM     11  C   UNL     1       1.929   7.938  21.376  0.00  0.00    +0.000 C 
BRANCH  11  16
ATOM     12  C   UNL     1      -0.081  12.299  20.769  0.00  0.00    +0.000 C 
ATOM     13  C   UNL     1       0.006  10.969  21.403  0.00  0.00    +0.000 A 
ATOM     14  C   UNL     1      -0.737  10.331  22.372  0.00  0.00    +0.000 A 
ATOM     15  C   UNL     1      -0.149   9.058  22.552  0.00  0.00    +0.000 A 
ATOM     16  C   UNL     1       0.919   8.993  21.682  0.00  0.00    +0.000 A 
ATOM     17  O   UNL     1       1.016  10.160  20.978  0.00  0.00    +0.000 OA
ENDBRANCH  11  16
ENDBRANCH   1  11
BRANCH   9  18
ATOM     18  C   UNL     1       3.735   3.851  16.702  0.00  0.00    +0.000 C 
BRANCH  18  19
ATOM     19  C   UNL     1       5.198   4.167  16.871  0.00  0.00    +0.000 A 
ATOM     20  C   UNL     1       5.924   4.462  18.013  0.00  0.00    +0.000 A 
ATOM     21  C   UNL     1       7.293   4.744  17.737  0.00  0.00    +0.000 A 
ATOM     22  C   UNL     1       7.580   4.636  16.396  0.00  0.00    +0.000 A 
ATOM     23  S   UNL     1       6.205   4.207  15.478  0.00  0.00    +0.000 S 
ENDBRANCH  18  19
ENDBRANCH   9  18
TORSDOF 4
ENDMDL
MODEL 7
REMARK VINA RESULT:      -6.9      3.166      7.906
REMARK  Name = 
REMARK  5 active torsions:
REMARK  status: ('A' for Active; 'I' for Inactive)
REMARK    1  A    between atoms: C_1  and  C_2
REMARK    2  A    between atoms: C_5  and  C_6
REMARK    3  A    between atoms: C_6  and  N_7
REMARK    4  A    between atoms: C_15  and  C_17
REMARK    5  A    between atoms: C_17  and  C_18
REMARK                            x       y       z     vdW  Elec       q    Type
REMARK                         _______ _______ _______ _____ _____    ______ ____
ROOT
ATOM      1  N   UNL     1       2.831   7.329  18.795  0.00  0.00    +0.000 NA
ATOM      2  C   UNL     1       2.563   8.071  17.529  0.00  0.00    +0.000 C 
ATOM      3  C   UNL     1       1.534   9.167  17.864  0.00  0.00    +0.000 C 
ATOM      4  C   UNL     1       1.596   9.213  19.369  0.00  0.00    +0.000 C 
ATOM      5  C   UNL     1       1.725   7.720  19.661  0.00  0.00    +0.000 C 
ATOM      6  C   UNL     1       1.765   7.727  21.178  0.00  0.00    +0.000 C 
ATOM      7  C   UNL     1       0.669   8.770  21.495  0.00  0.00    +0.000 C 
ATOM      8  N   UNL     1       0.533   9.579  20.275  0.00  0.00    +0.000 N 
ATOM      9  C   UNL     1      -0.381  10.605  20.211  0.00  0.00    +0.000 C 
ATOM     10  O   UNL     1      -1.119  10.856  21.164  0.00  0.00    +0.000 OA
ENDROOT
BRANCH   1  11
ATOM     11  C   UNL     1       2.861   5.874  18.577  0.00  0.00    +0.000 C 
BRANCH  11  16
ATOM     12  C   UNL     1       6.312   4.147  15.657  0.00  0.00    +0.000 C 
ATOM     13  C   UNL     1       5.802   4.591  16.968  0.00  0.00    +0.000 A 
ATOM     14  C   UNL     1       6.366   4.685  18.222  0.00  0.00    +0.000 A 
ATOM     15  C   UNL     1       5.358   5.188  19.076  0.00  0.00    +0.000 A 
ATOM     16  C   UNL     1       4.237   5.371  18.295  0.00  0.00    +0.000 A 
ATOM     17  O   UNL     1       4.505   5.008  17.005  0.00  0.00    +0.000 OA
ENDBRANCH  11  16
ENDBRANCH   1  11
BRANCH   9  18
ATOM     18  C   UNL     1      -0.518  11.377  18.910  0.00  0.00    +0.000 C 
BRANCH  18  19
ATOM     19  C   UNL     1      -1.723  10.927  18.125  0.00  0.00    +0.000 A 
ATOM     20  C   UNL     1      -1.835   9.974  17.126  0.00  0.00    +0.000 A 
ATOM     21  C   UNL     1      -3.158   9.875  16.606  0.00  0.00    +0.000 A 
ATOM     22  C   UNL     1      -4.023  10.740  17.235  0.00  0.00    +0.000 A 
ATOM     23  S   UNL     1      -3.242  11.669  18.437  0.00  0.00    +0.000 S 
ENDBRANCH  18  19
ENDBRANCH   9  18
TORSDOF 4
ENDMDL
MODEL 8
REMARK VINA RESULT:      -6.8      4.065      7.031
REMARK  Name = 
REMARK  5 active torsions:
REMARK  status: ('A' for Active; 'I' for Inactive)
REMARK    1  A    between atoms: C_1  and  C_2
REMARK    2  A    between atoms: C_5  and  C_6
REMARK    3  A    between atoms: C_6  and  N_7
REMARK    4  A    between atoms: C_15  and  C_17
REMARK    5  A    between atoms: C_17  and  C_18
REMARK                            x       y       z     vdW  Elec       q    Type
REMARK                         _______ _______ _______ _____ _____    ______ ____
ROOT
ATOM      1  N   UNL     1      -3.736  10.739  17.601  0.00  0.00    +0.000 NA
ATOM      2  C   UNL     1      -3.000   9.799  16.705  0.00  0.00    +0.000 C 
ATOM      3  C   UNL     1      -1.517   9.862  17.114  0.00  0.00    +0.000 C 
ATOM      4  C   UNL     1      -1.587  10.532  18.463  0.00  0.00    +0.000 C 
ATOM      5  C   UNL     1      -2.679  11.560  18.176  0.00  0.00    +0.000 C 
ATOM      6  C   UNL     1      -2.759  12.274  19.514  0.00  0.00    +0.000 C 
ATOM      7  C   UNL     1      -1.259  12.401  19.867  0.00  0.00    +0.000 C 
ATOM      8  N   UNL     1      -0.580  11.364  19.077  0.00  0.00    +0.000 N 
ATOM      9  C   UNL     1       0.785  11.209  19.147  0.00  0.00    +0.000 C 
ATOM     10  O   UNL     1       1.471  11.948  19.855  0.00  0.00    +0.000 OA
ENDROOT
BRANCH   1  11
ATOM     11  C   UNL     1      -4.709  11.551  16.854  0.00  0.00    +0.000 C 
BRANCH  11  16
ATOM     12  C   UNL     1      -7.693  11.027  20.628  0.00  0.00    +0.000 C 
ATOM     13  C   UNL     1      -7.228  11.710  19.406  0.00  0.00    +0.000 A 
ATOM     14  C   UNL     1      -7.667  12.820  18.717  0.00  0.00    +0.000 A 
ATOM     15  C   UNL     1      -6.797  12.973  17.613  0.00  0.00    +0.000 A 
ATOM     16  C   UNL     1      -5.879  11.948  17.692  0.00  0.00    +0.000 A 
ATOM     17  O   UNL     1      -6.139  11.174  18.787  0.00  0.00    +0.000 OA
ENDBRANCH  11  16
ENDBRANCH   1  11
BRANCH   9  18
ATOM     18  C   UNL     1       1.444  10.157  18.271  0.00  0.00    +0.000 C 
BRANCH  18  19
ATOM     19  C   UNL     1       1.671   8.874  19.025  0.00  0.00    +0.000 A 
ATOM     20  C   UNL     1       1.301   8.514  20.311  0.00  0.00    +0.000 A 
ATOM     21  C   UNL     1       1.747   7.208  20.667  0.00  0.00    +0.000 A 
ATOM     22  C   UNL     1       2.426   6.599  19.637  0.00  0.00    +0.000 A 
ATOM     23  S   UNL     1       2.532   7.600  18.256  0.00  0.00    +0.000 S 
ENDBRANCH  18  19
ENDBRANCH   9  18
TORSDOF 4
ENDMDL
MODEL 9
REMARK VINA RESULT:      -6.8      1.003      1.499
REMARK  Name = 
REMARK  5 active torsions:
REMARK  status: ('A' for Active; 'I' for Inactive)
REMARK    1  A    between atoms: C_1  and  C_2
REMARK    2  A    between atoms: C_5  and  C_6
REMARK    3  A    between atoms: C_6  and  N_7
REMARK    4  A    between atoms: C_15  and  C_17
REMARK    5  A    between atoms: C_17  and  C_18
REMARK                            x       y       z     vdW  Elec       q    Type
REMARK                         _______ _______ _______ _____ _____    ______ ____
ROOT
ATOM      1  N   UNL     1       1.521   7.879  19.332  0.00  0.00    +0.000 NA
ATOM      2  C   UNL     1       2.367   8.210  18.149  0.00  0.00    +0.000 C 
ATOM      3  C   UNL     1       3.279   6.993  17.899  0.00  0.00    +0.000 C 
ATOM      4  C   UNL     1       2.606   5.919  18.714  0.00  0.00    +0.000 C 
ATOM      5  C   UNL     1       2.206   6.743  19.936  0.00  0.00    +0.000 C 
ATOM      6  C   UNL     1       1.543   5.680  20.794  0.00  0.00    +0.000 C 
ATOM      7  C   UNL     1       2.517   4.496  20.596  0.00  0.00    +0.000 C 
ATOM      8  N   UNL     1       3.233   4.781  19.343  0.00  0.00    +0.000 N 
ATOM      9  C   UNL     1       4.197   3.919  18.874  0.00  0.00    +0.000 C 
ATOM     10  O   UNL     1       4.498   2.903  19.501  0.00  0.00    +0.000 OA
ENDROOT
BRANCH   1  11
ATOM     11  C   UNL     1       1.426   9.013  20.266  0.00  0.00    +0.000 C 
BRANCH  11  16
ATOM     12  C   UNL     1      -2.387  11.243  18.289  0.00  0.00    +0.000 C 
ATOM     13  C   UNL     1      -0.992  11.202  18.767  0.00  0.00    +0.000 A 
ATOM     14  C   UNL     1       0.022  12.135  18.814  0.00  0.00    +0.000 A 
ATOM     15  C   UNL     1       1.136  11.483  19.390  0.00  0.00    +0.000 A 
ATOM     16  C   UNL     1       0.740  10.191  19.660  0.00  0.00    +0.000 A 
ATOM     17  O   UNL     1      -0.561  10.016  19.281  0.00  0.00    +0.000 OA
ENDBRANCH  11  16
ENDBRANCH   1  11
BRANCH   9  18
ATOM     18  C   UNL     1       4.944   4.286  17.603  0.00  0.00    +0.000 C 
BRANCH  18  19
ATOM     19  C   UNL     1       6.097   5.212  17.886  0.00  0.00    +0.000 A 
ATOM     20  C   UNL     1       6.872   5.352  19.026  0.00  0.00    +0.000 A 
ATOM     21  C   UNL     1       7.850   6.381  18.903  0.00  0.00    +0.000 A 
ATOM     22  C   UNL     1       7.808   6.984  17.667  0.00  0.00    +0.000 A 
ATOM     23  S   UNL     1       6.593   6.318  16.668  0.00  0.00    +0.000 S 
ENDBRANCH  18  19
ENDBRANCH   9  18
TORSDOF 4
ENDMDL
