MODEL 1
REMARK VINA RESULT:      -8.8      0.000      0.000
REMARK  Name = 
REMARK  9 active torsions:
REMARK  status: ('A' for Active; 'I' for Inactive)
REMARK    1  A    between atoms: C_1  and  O_2
REMARK    2  A    between atoms: O_2  and  C_3
REMARK    3  A    between atoms: C_8  and  C_9
REMARK    4  A    between atoms: C_9  and  C_11
REMARK    5  A    between atoms: C_15  and  C_16
REMARK    6  A    between atoms: C_19  and  O_20
REMARK    7  A    between atoms: O_20  and  C_21
REMARK    8  A    between atoms: C_21  and  C_22
REMARK    9  A    between atoms: C_22  and  O_24
REMARK                            x       y       z     vdW  Elec       q    Type
REMARK                         _______ _______ _______ _____ _____    ______ ____
ROOT
ATOM      1  C   UNL     1       3.233   4.717  19.435  0.00  0.00    +0.000 A 
ATOM      2  C   UNL     1       2.390   4.562  20.478  0.00  0.00    +0.000 A 
ATOM      3  C   UNL     1       1.696   5.813  20.739  0.00  0.00    +0.000 A 
ATOM      4  C   UNL     1       2.094   6.735  19.848  0.00  0.00    +0.000 A 
ATOM      5  C   UNL     1       1.824   8.160  19.581  0.00  0.00    +0.000 A 
ATOM      6  N   UNL     1       2.259   8.763  18.509  0.00  0.00    +0.000 NA
ATOM      7  O   UNL     1       3.021   8.030  17.550  0.00  0.00    +0.000 OA
ATOM      8  C   UNL     1       3.396   6.740  17.870  0.00  0.00    +0.000 A 
ATOM      9  C   UNL     1       3.000   6.069  18.951  0.00  0.00    +0.000 A 
ENDROOT
BRANCH   5  10
ATOM     10  C   UNL     1       1.000   8.934  20.560  0.00  0.00    +0.000 A 
ATOM     11  C   UNL     1       0.084   9.917  20.166  0.00  0.00    +0.000 A 
ATOM     12  C   UNL     1      -0.571  10.700  21.120  0.00  0.00    +0.000 A 
ATOM     13  C   UNL     1      -0.387  10.456  22.480  0.00  0.00    +0.000 A 
ATOM     14  C   UNL     1       0.468   9.430  22.883  0.00  0.00    +0.000 A 
ATOM     15  C   UNL     1       1.159   8.676  21.927  0.00  0.00    +0.000 A 
BRANCH  13  16
ATOM     16  O   UNL     1      -1.055  11.305  23.320  0.00  0.00    +0.000 OA
BRANCH  16  17
ATOM     17  C   UNL     1      -1.502  12.524  22.718  0.00  0.00    +0.000 C 
BRANCH  17  18
ATOM     18  C   UNL     1      -2.955  12.756  23.102  0.00  0.00    +0.000 C 
ATOM     19  O   UNL     1      -3.617  13.710  22.721  0.00  0.00    +0.000 OA
BRANCH  18  20
ATOM     20  O   UNL     1      -3.464  11.786  23.903  0.00  0.00    +0.000 OA
ATOM     21  H   UNL     1      -3.339  12.039  24.844  0.00  0.00    +0.000 HD
ENDBRANCH  18  20
ENDBRANCH  17  18
ENDBRANCH  16  17
ENDBRANCH  13  16
ENDBRANCH   5  10
BRANCH   1  22
ATOM     22  C   UNL     1       4.170   3.717  18.878  0.00  0.00    +0.000 C 
ATOM     23  O   UNL     1       4.227   2.589  19.368  0.00  0.00    +0.000 OA
BRANCH  22  29
ATOM     24  C   UNL     1       6.410   4.623  17.943  0.00  0.00    +0.000 A 
ATOM     25  C   UNL     1       7.159   4.965  16.805  0.00  0.00    +0.000 A 
ATOM     26  C   UNL     1       6.658   4.755  15.521  0.00  0.00    +0.000 A 
ATOM     27  C   UNL     1       5.392   4.207  15.354  0.00  0.00    +0.000 A 
ATOM     28  C   UNL     1       4.627   3.879  16.473  0.00  0.00    +0.000 A 
ATOM     29  C   UNL     1       5.119   4.078  17.776  0.00  0.00    +0.000 A 
BRANCH  24  31
ATOM     30  C   UNL     1       7.866   5.896  19.325  0.00  0.00    +0.000 C 
ATOM     31  O   UNL     1       6.883   4.863  19.210  0.00  0.00    +0.000 OA
ENDBRANCH  24  31
ENDBRANCH  22  29
ENDBRANCH   1  22
TORSDOF 8
ENDMDL
MODEL 2
REMARK VINA RESULT:      -8.6      0.483      1.114
REMARK  Name = 
REMARK  9 active torsions:
REMARK  status: ('A' for Active; 'I' for Inactive)
REMARK    1  A    between atoms: C_1  and  O_2
REMARK    2  A    between atoms: O_2  and  C_3
REMARK    3  A    between atoms: C_8  and  C_9
REMARK    4  A    between atoms: C_9  and  C_11
REMARK    5  A    between atoms: C_15  and  C_16
REMARK    6  A    between atoms: C_19  and  O_20
REMARK    7  A    between atoms: O_20  and  C_21
REMARK    8  A    between atoms: C_21  and  C_22
REMARK    9  A    between atoms: C_22  and  O_24
REMARK                            x       y       z     vdW  Elec       q    Type
REMARK                         _______ _______ _______ _____ _____    ______ ____
ROOT
ATOM      1  C   UNL     1       3.163   4.818  19.556  0.00  0.00    +0.000 A 
ATOM      2  C   UNL     1       2.371   4.721  20.644  0.00  0.00    +0.000 A 
ATOM      3  C   UNL     1       1.698   5.988  20.879  0.00  0.00    +0.000 A 
ATOM      4  C   UNL     1       2.057   6.863  19.926  0.00  0.00    +0.000 A 
ATOM      5  C   UNL     1       1.784   8.276  19.604  0.00  0.00    +0.000 A 
ATOM      6  N   UNL     1       2.169   8.824  18.485  0.00  0.00    +0.000 NA
ATOM      7  O   UNL     1       2.879   8.040  17.527  0.00  0.00    +0.000 OA
ATOM      8  C   UNL     1       3.262   6.764  17.889  0.00  0.00    +0.000 A 
ATOM      9  C   UNL     1       2.914   6.148  19.019  0.00  0.00    +0.000 A 
ENDROOT
BRANCH   5  10
ATOM     10  C   UNL     1       1.013   9.103  20.584  0.00  0.00    +0.000 A 
ATOM     11  C   UNL     1       0.756   8.680  21.893  0.00  0.00    +0.000 A 
ATOM     12  C   UNL     1      -0.073   9.429  22.732  0.00  0.00    +0.000 A 
ATOM     13  C   UNL     1      -0.587  10.652  22.306  0.00  0.00    +0.000 A 
ATOM     14  C   UNL     1      -0.277  11.120  21.029  0.00  0.00    +0.000 A 
ATOM     15  C   UNL     1       0.517  10.347  20.172  0.00  0.00    +0.000 A 
BRANCH  13  16
ATOM     16  O   UNL     1      -1.410  11.281  23.200  0.00  0.00    +0.000 OA
BRANCH  16  17
ATOM     17  C   UNL     1      -2.445  12.077  22.614  0.00  0.00    +0.000 C 
BRANCH  17  18
ATOM     18  C   UNL     1      -3.375  12.560  23.716  0.00  0.00    +0.000 C 
ATOM     19  O   UNL     1      -4.096  11.823  24.372  0.00  0.00    +0.000 OA
BRANCH  18  20
ATOM     20  O   UNL     1      -3.321  13.900  23.921  0.00  0.00    +0.000 OA
ATOM     21  H   UNL     1      -3.038  14.348  23.094  0.00  0.00    +0.000 HD
ENDBRANCH  18  20
ENDBRANCH  17  18
ENDBRANCH  16  17
ENDBRANCH  13  16
ENDBRANCH   5  10
BRANCH   1  22
ATOM     22  C   UNL     1       4.066   3.786  19.003  0.00  0.00    +0.000 C 
ATOM     23  O   UNL     1       4.002   2.628  19.418  0.00  0.00    +0.000 OA
BRANCH  22  29
ATOM     24  C   UNL     1       6.344   4.787  18.281  0.00  0.00    +0.000 A 
ATOM     25  C   UNL     1       7.207   5.105  17.221  0.00  0.00    +0.000 A 
ATOM     26  C   UNL     1       6.888   4.772  15.904  0.00  0.00    +0.000 A 
ATOM     27  C   UNL     1       5.691   4.123  15.627  0.00  0.00    +0.000 A 
ATOM     28  C   UNL     1       4.812   3.817  16.666  0.00  0.00    +0.000 A 
ATOM     29  C   UNL     1       5.122   4.140  18.001  0.00  0.00    +0.000 A 
BRANCH  24  31
ATOM     30  C   UNL     1       7.943   5.683  19.795  0.00  0.00    +0.000 C 
ATOM     31  O   UNL     1       6.635   5.147  19.575  0.00  0.00    +0.000 OA
ENDBRANCH  24  31
ENDBRANCH  22  29
ENDBRANCH   1  22
TORSDOF 8
ENDMDL
MODEL 3
REMARK VINA RESULT:      -8.2      3.130      9.908
REMARK  Name = 
REMARK  9 active torsions:
REMARK  status: ('A' for Active; 'I' for Inactive)
REMARK    1  A    between atoms: C_1  and  O_2
REMARK    2  A    between atoms: O_2  and  C_3
REMARK    3  A    between atoms: C_8  and  C_9
REMARK    4  A    between atoms: C_9  and  C_11
REMARK    5  A    between atoms: C_15  and  C_16
REMARK    6  A    between atoms: C_19  and  O_20
REMARK    7  A    between atoms: O_20  and  C_21
REMARK    8  A    between atoms: C_21  and  C_22
REMARK    9  A    between atoms: C_22  and  O_24
REMARK                            x       y       z     vdW  Elec       q    Type
REMARK                         _______ _______ _______ _____ _____    ______ ____
ROOT
ATOM      1  C   UNL     1       1.247   9.238  19.155  0.00  0.00    +0.000 A 
ATOM      2  C   UNL     1       1.756   9.423  17.918  0.00  0.00    +0.000 A 
ATOM      3  C   UNL     1       2.647   8.324  17.582  0.00  0.00    +0.000 A 
ATOM      4  C   UNL     1       2.674   7.449  18.600  0.00  0.00    +0.000 A 
ATOM      5  C   UNL     1       3.369   6.187  18.916  0.00  0.00    +0.000 A 
ATOM      6  N   UNL     1       3.061   5.463  19.956  0.00  0.00    +0.000 NA
ATOM      7  O   UNL     1       2.014   5.892  20.827  0.00  0.00    +0.000 OA
ATOM      8  C   UNL     1       1.466   7.141  20.614  0.00  0.00    +0.000 A 
ATOM      9  C   UNL     1       1.743   7.937  19.581  0.00  0.00    +0.000 A 
ENDROOT
BRANCH   5  10
ATOM     10  C   UNL     1       4.447   5.707  17.996  0.00  0.00    +0.000 A 
ATOM     11  C   UNL     1       5.724   6.279  17.965  0.00  0.00    +0.000 A 
ATOM     12  C   UNL     1       6.657   5.881  17.005  0.00  0.00    +0.000 A 
ATOM     13  C   UNL     1       6.360   4.848  16.118  0.00  0.00    +0.000 A 
ATOM     14  C   UNL     1       5.116   4.220  16.188  0.00  0.00    +0.000 A 
ATOM     15  C   UNL     1       4.164   4.651  17.121  0.00  0.00    +0.000 A 
BRANCH  13  16
ATOM     16  O   UNL     1       7.338   4.567  15.203  0.00  0.00    +0.000 OA
BRANCH  16  17
ATOM     17  C   UNL     1       6.870   4.329  13.871  0.00  0.00    +0.000 C 
BRANCH  17  18
ATOM     18  C   UNL     1       7.750   5.098  12.899  0.00  0.00    +0.000 C 
ATOM     19  O   UNL     1       8.615   5.891  13.242  0.00  0.00    +0.000 OA
BRANCH  18  20
ATOM     20  O   UNL     1       7.499   4.809  11.597  0.00  0.00    +0.000 OA
ATOM     21  H   UNL     1       8.267   4.331  11.213  0.00  0.00    +0.000 HD
ENDBRANCH  18  20
ENDBRANCH  17  18
ENDBRANCH  16  17
ENDBRANCH  13  16
ENDBRANCH   5  10
BRANCH   1  22
ATOM     22  C   UNL     1       0.350  10.142  19.905  0.00  0.00    +0.000 C 
ATOM     23  O   UNL     1      -0.447   9.678  20.722  0.00  0.00    +0.000 OA
BRANCH  22  29
ATOM     24  C   UNL     1      -0.524  12.275  18.723  0.00  0.00    +0.000 A 
ATOM     25  C   UNL     1      -0.379  13.659  18.531  0.00  0.00    +0.000 A 
ATOM     26  C   UNL     1       0.576  14.389  19.237  0.00  0.00    +0.000 A 
ATOM     27  C   UNL     1       1.412  13.744  20.140  0.00  0.00    +0.000 A 
ATOM     28  C   UNL     1       1.294  12.367  20.329  0.00  0.00    +0.000 A 
ATOM     29  C   UNL     1       0.331  11.615  19.630  0.00  0.00    +0.000 A 
BRANCH  24  31
ATOM     30  C   UNL     1      -2.795  11.627  18.446  0.00  0.00    +0.000 C 
ATOM     31  O   UNL     1      -1.437  11.544  18.003  0.00  0.00    +0.000 OA
ENDBRANCH  24  31
ENDBRANCH  22  29
ENDBRANCH   1  22
TORSDOF 8
ENDMDL
MODEL 4
REMARK VINA RESULT:      -8.2      2.788      9.892
REMARK  Name = 
REMARK  9 active torsions:
REMARK  status: ('A' for Active; 'I' for Inactive)
REMARK    1  A    between atoms: C_1  and  O_2
REMARK    2  A    between atoms: O_2  and  C_3
REMARK    3  A    between atoms: C_8  and  C_9
REMARK    4  A    between atoms: C_9  and  C_11
REMARK    5  A    between atoms: C_15  and  C_16
REMARK    6  A    between atoms: C_19  and  O_20
REMARK    7  A    between atoms: O_20  and  C_21
REMARK    8  A    between atoms: C_21  and  C_22
REMARK    9  A    between atoms: C_22  and  O_24
REMARK                            x       y       z     vdW  Elec       q    Type
REMARK                         _______ _______ _______ _____ _____    ______ ____
ROOT
ATOM      1  C   UNL     1       1.263   9.517  19.179  0.00  0.00    +0.000 A 
ATOM      2  C   UNL     1       1.795   9.610  17.942  0.00  0.00    +0.000 A 
ATOM      3  C   UNL     1       2.556   8.408  17.641  0.00  0.00    +0.000 A 
ATOM      4  C   UNL     1       2.480   7.564  18.683  0.00  0.00    +0.000 A 
ATOM      5  C   UNL     1       3.026   6.241  19.037  0.00  0.00    +0.000 A 
ATOM      6  N   UNL     1       2.634   5.585  20.094  0.00  0.00    +0.000 NA
ATOM      7  O   UNL     1       1.639   6.153  20.945  0.00  0.00    +0.000 OA
ATOM      8  C   UNL     1       1.237   7.450  20.695  0.00  0.00    +0.000 A 
ATOM      9  C   UNL     1       1.606   8.181  19.644  0.00  0.00    +0.000 A 
ENDROOT
BRANCH   5  10
ATOM     10  C   UNL     1       4.047   5.617  18.138  0.00  0.00    +0.000 A 
ATOM     11  C   UNL     1       5.364   6.081  18.054  0.00  0.00    +0.000 A 
ATOM     12  C   UNL     1       6.246   5.548  17.111  0.00  0.00    +0.000 A 
ATOM     13  C   UNL     1       5.853   4.486  16.298  0.00  0.00    +0.000 A 
ATOM     14  C   UNL     1       4.565   3.966  16.425  0.00  0.00    +0.000 A 
ATOM     15  C   UNL     1       3.666   4.531  17.339  0.00  0.00    +0.000 A 
BRANCH  13  16
ATOM     16  O   UNL     1       6.789   4.068  15.392  0.00  0.00    +0.000 OA
BRANCH  16  17
ATOM     17  C   UNL     1       6.316   3.942  14.047  0.00  0.00    +0.000 C 
BRANCH  17  18
ATOM     18  C   UNL     1       7.269   4.681  13.122  0.00  0.00    +0.000 C 
ATOM     19  O   UNL     1       7.343   4.481  11.918  0.00  0.00    +0.000 OA
BRANCH  18  20
ATOM     20  O   UNL     1       8.029   5.608  13.756  0.00  0.00    +0.000 OA
ATOM     21  H   UNL     1       8.095   5.381  14.710  0.00  0.00    +0.000 HD
ENDBRANCH  18  20
ENDBRANCH  17  18
ENDBRANCH  16  17
ENDBRANCH  13  16
ENDBRANCH   5  10
BRANCH   1  22
ATOM     22  C   UNL     1       0.471  10.538  19.899  0.00  0.00    +0.000 C 
ATOM     23  O   UNL     1       0.896  11.014  20.952  0.00  0.00    +0.000 OA
BRANCH  22  29
ATOM     24  C   UNL     1      -1.696  11.955  19.977  0.00  0.00    +0.000 A 
ATOM     25  C   UNL     1      -2.976  12.181  19.444  0.00  0.00    +0.000 A 
ATOM     26  C   UNL     1      -3.446  11.443  18.358  0.00  0.00    +0.000 A 
ATOM     27  C   UNL     1      -2.646  10.457  17.794  0.00  0.00    +0.000 A 
ATOM     28  C   UNL     1      -1.380  10.206  18.323  0.00  0.00    +0.000 A 
ATOM     29  C   UNL     1      -0.886  10.946  19.414  0.00  0.00    +0.000 A 
BRANCH  24  31
ATOM     30  C   UNL     1      -2.046  12.554  22.251  0.00  0.00    +0.000 C 
ATOM     31  O   UNL     1      -1.243  12.651  21.071  0.00  0.00    +0.000 OA
ENDBRANCH  24  31
ENDBRANCH  22  29
ENDBRANCH   1  22
TORSDOF 8
ENDMDL
MODEL 5
REMARK VINA RESULT:      -8.1      3.279      9.968
REMARK  Name = 
REMARK  9 active torsions:
REMARK  status: ('A' for Active; 'I' for Inactive)
REMARK    1  A    between atoms: C_1  and  O_2
REMARK    2  A    between atoms: O_2  and  C_3
REMARK    3  A    between atoms: C_8  and  C_9
REMARK    4  A    between atoms: C_9  and  C_11
REMARK    5  A    between atoms: C_15  and  C_16
REMARK    6  A    between atoms: C_19  and  O_20
REMARK    7  A    between atoms: O_20  and  C_21
REMARK    8  A    between atoms: C_21  and  C_22
REMARK    9  A    between atoms: C_22  and  O_24
REMARK                            x       y       z     vdW  Elec       q    Type
REMARK                         _______ _______ _______ _____ _____    ______ ____
ROOT
ATOM      1  C   UNL     1       1.254   9.527  19.286  0.00  0.00    +0.000 A 
ATOM      2  C   UNL     1       1.623   9.656  17.995  0.00  0.00    +0.000 A 
ATOM      3  C   UNL     1       2.341   8.467  17.566  0.00  0.00    +0.000 A 
ATOM      4  C   UNL     1       2.400   7.594  18.585  0.00  0.00    +0.000 A 
ATOM      5  C   UNL     1       2.990   6.264  18.831  0.00  0.00    +0.000 A 
ATOM      6  N   UNL     1       2.737   5.578  19.911  0.00  0.00    +0.000 NA
ATOM      7  O   UNL     1       1.858   6.119  20.897  0.00  0.00    +0.000 OA
ATOM      8  C   UNL     1       1.425   7.420  20.736  0.00  0.00    +0.000 A 
ATOM      9  C   UNL     1       1.656   8.181  19.667  0.00  0.00    +0.000 A 
ENDROOT
BRANCH   5  10
ATOM     10  C   UNL     1       3.887   5.670  17.792  0.00  0.00    +0.000 A 
ATOM     11  C   UNL     1       4.661   6.451  16.925  0.00  0.00    +0.000 A 
ATOM     12  C   UNL     1       5.388   5.857  15.891  0.00  0.00    +0.000 A 
ATOM     13  C   UNL     1       5.421   4.470  15.759  0.00  0.00    +0.000 A 
ATOM     14  C   UNL     1       4.713   3.677  16.662  0.00  0.00    +0.000 A 
ATOM     15  C   UNL     1       3.947   4.276  17.672  0.00  0.00    +0.000 A 
BRANCH  13  16
ATOM     16  O   UNL     1       6.139   4.003  14.692  0.00  0.00    +0.000 OA
BRANCH  16  17
ATOM     17  C   UNL     1       5.422   3.955  13.454  0.00  0.00    +0.000 C 
BRANCH  17  18
ATOM     18  C   UNL     1       6.363   3.474  12.361  0.00  0.00    +0.000 C 
ATOM     19  O   UNL     1       7.256   4.157  11.880  0.00  0.00    +0.000 OA
BRANCH  18  20
ATOM     20  O   UNL     1       6.132   2.195  11.973  0.00  0.00    +0.000 OA
ATOM     21  H   UNL     1       6.840   1.612  12.324  0.00  0.00    +0.000 HD
ENDBRANCH  18  20
ENDBRANCH  17  18
ENDBRANCH  16  17
ENDBRANCH  13  16
ENDBRANCH   5  10
BRANCH   1  22
ATOM     22  C   UNL     1       0.559  10.524  20.130  0.00  0.00    +0.000 C 
ATOM     23  O   UNL     1      -0.071  10.156  21.122  0.00  0.00    +0.000 OA
BRANCH  22  29
ATOM     24  C   UNL     1      -0.557  12.660  19.180  0.00  0.00    +0.000 A 
ATOM     25  C   UNL     1      -0.405  14.010  18.824  0.00  0.00    +0.000 A 
ATOM     26  C   UNL     1       0.796  14.684  19.047  0.00  0.00    +0.000 A 
ATOM     27  C   UNL     1       1.869  14.013  19.621  0.00  0.00    +0.000 A 
ATOM     28  C   UNL     1       1.741  12.667  19.963  0.00  0.00    +0.000 A 
ATOM     29  C   UNL     1       0.535  11.973  19.751  0.00  0.00    +0.000 A 
BRANCH  24  31
ATOM     30  C   UNL     1      -1.983  11.671  17.554  0.00  0.00    +0.000 C 
ATOM     31  O   UNL     1      -1.724  11.980  18.927  0.00  0.00    +0.000 OA
ENDBRANCH  24  31
ENDBRANCH  22  29
ENDBRANCH   1  22
TORSDOF 8
ENDMDL
MODEL 6
REMARK VINA RESULT:      -8.1      1.235      2.102
REMARK  Name = 
REMARK  9 active torsions:
REMARK  status: ('A' for Active; 'I' for Inactive)
REMARK    1  A    between atoms: C_1  and  O_2
REMARK    2  A    between atoms: O_2  and  C_3
REMARK    3  A    between atoms: C_8  and  C_9
REMARK    4  A    between atoms: C_9  and  C_11
REMARK    5  A    between atoms: C_15  and  C_16
REMARK    6  A    between atoms: C_19  and  O_20
REMARK    7  A    between atoms: O_20  and  C_21
REMARK    8  A    between atoms: C_21  and  C_22
REMARK    9  A    between atoms: C_22  and  O_24
REMARK                            x       y       z     vdW  Elec       q    Type
REMARK                         _______ _______ _______ _____ _____    ______ ____
ROOT
ATOM      1  C   UNL     1       2.797   5.492  19.330  0.00  0.00    +0.000 A 
ATOM      2  C   UNL     1       2.088   5.324  20.466  0.00  0.00    +0.000 A 
ATOM      3  C   UNL     1       1.421   6.566  20.820  0.00  0.00    +0.000 A 
ATOM      4  C   UNL     1       1.701   7.498  19.894  0.00  0.00    +0.000 A 
ATOM      5  C   UNL     1       1.391   8.923  19.674  0.00  0.00    +0.000 A 
ATOM      6  N   UNL     1       1.688   9.537  18.562  0.00  0.00    +0.000 NA
ATOM      7  O   UNL     1       2.334   8.818  17.512  0.00  0.00    +0.000 OA
ATOM      8  C   UNL     1       2.754   7.529  17.773  0.00  0.00    +0.000 A 
ATOM      9  C   UNL     1       2.497   6.847  18.889  0.00  0.00    +0.000 A 
ENDROOT
BRANCH   5  10
ATOM     10  C   UNL     1       0.686   9.683  20.752  0.00  0.00    +0.000 A 
ATOM     11  C   UNL     1       0.335   9.106  21.978  0.00  0.00    +0.000 A 
ATOM     12  C   UNL     1      -0.431   9.817  22.905  0.00  0.00    +0.000 A 
ATOM     13  C   UNL     1      -0.786  11.142  22.658  0.00  0.00    +0.000 A 
ATOM     14  C   UNL     1      -0.379  11.751  21.471  0.00  0.00    +0.000 A 
ATOM     15  C   UNL     1       0.350  11.023  20.522  0.00  0.00    +0.000 A 
BRANCH  13  16
ATOM     16  O   UNL     1      -1.563  11.726  23.621  0.00  0.00    +0.000 OA
BRANCH  16  17
ATOM     17  C   UNL     1      -2.849  12.169  23.175  0.00  0.00    +0.000 C 
BRANCH  17  18
ATOM     18  C   UNL     1      -3.430  13.112  24.216  0.00  0.00    +0.000 C 
ATOM     19  O   UNL     1      -3.139  14.296  24.303  0.00  0.00    +0.000 OA
BRANCH  18  20
ATOM     20  O   UNL     1      -4.327  12.518  25.044  0.00  0.00    +0.000 OA
ATOM     21  H   UNL     1      -4.205  12.857  25.957  0.00  0.00    +0.000 HD
ENDBRANCH  18  20
ENDBRANCH  17  18
ENDBRANCH  16  17
ENDBRANCH  13  16
ENDBRANCH   5  10
BRANCH   1  22
ATOM     22  C   UNL     1       3.667   4.505  18.655  0.00  0.00    +0.000 C 
ATOM     23  O   UNL     1       3.239   3.377  18.407  0.00  0.00    +0.000 OA
BRANCH  22  29
ATOM     24  C   UNL     1       5.727   4.649  17.090  0.00  0.00    +0.000 A 
ATOM     25  C   UNL     1       7.096   4.938  16.968  0.00  0.00    +0.000 A 
ATOM     26  C   UNL     1       7.832   5.415  18.052  0.00  0.00    +0.000 A 
ATOM     27  C   UNL     1       7.212   5.600  19.281  0.00  0.00    +0.000 A 
ATOM     28  C   UNL     1       5.857   5.299  19.425  0.00  0.00    +0.000 A 
ATOM     29  C   UNL     1       5.097   4.823  18.340  0.00  0.00    +0.000 A 
BRANCH  24  31
ATOM     30  C   UNL     1       5.606   4.277  14.745  0.00  0.00    +0.000 C 
ATOM     31  O   UNL     1       5.005   4.142  16.036  0.00  0.00    +0.000 OA
ENDBRANCH  24  31
ENDBRANCH  22  29
ENDBRANCH   1  22
TORSDOF 8
ENDMDL
MODEL 7
REMARK VINA RESULT:      -8.1      3.054      9.902
REMARK  Name = 
REMARK  9 active torsions:
REMARK  status: ('A' for Active; 'I' for Inactive)
REMARK    1  A    between atoms: C_1  and  O_2
REMARK    2  A    between atoms: O_2  and  C_3
REMARK    3  A    between atoms: C_8  and  C_9
REMARK    4  A    between atoms: C_9  and  C_11
REMARK    5  A    between atoms: C_15  and  C_16
REMARK    6  A    between atoms: C_19  and  O_20
REMARK    7  A    between atoms: O_20  and  C_21
REMARK    8  A    between atoms: C_21  and  C_22
REMARK    9  A    between atoms: C_22  and  O_24
REMARK                            x       y       z     vdW  Elec       q    Type
REMARK                         _______ _______ _______ _____ _____    ______ ____
ROOT
ATOM      1  C   UNL     1       1.112   9.482  19.397  0.00  0.00    +0.000 A 
ATOM      2  C   UNL     1       1.499   9.666  18.117  0.00  0.00    +0.000 A 
ATOM      3  C   UNL     1       2.308   8.538  17.681  0.00  0.00    +0.000 A 
ATOM      4  C   UNL     1       2.405   7.649  18.683  0.00  0.00    +0.000 A 
ATOM      5  C   UNL     1       3.080   6.359  18.914  0.00  0.00    +0.000 A 
ATOM      6  N   UNL     1       2.852   5.633  19.974  0.00  0.00    +0.000 NA
ATOM      7  O   UNL     1       1.917   6.089  20.951  0.00  0.00    +0.000 OA
ATOM      8  C   UNL     1       1.398   7.360  20.807  0.00  0.00    +0.000 A 
ATOM      9  C   UNL     1       1.599   8.159  19.759  0.00  0.00    +0.000 A 
ENDROOT
BRANCH   5  10
ATOM     10  C   UNL     1       4.039   5.851  17.884  0.00  0.00    +0.000 A 
ATOM     11  C   UNL     1       3.841   4.649  17.195  0.00  0.00    +0.000 A 
ATOM     12  C   UNL     1       4.824   4.154  16.334  0.00  0.00    +0.000 A 
ATOM     13  C   UNL     1       5.979   4.893  16.083  0.00  0.00    +0.000 A 
ATOM     14  C   UNL     1       6.152   6.128  16.707  0.00  0.00    +0.000 A 
ATOM     15  C   UNL     1       5.188   6.602  17.606  0.00  0.00    +0.000 A 
BRANCH  13  16
ATOM     16  O   UNL     1       6.883   4.294  15.248  0.00  0.00    +0.000 OA
BRANCH  16  17
ATOM     17  C   UNL     1       6.405   4.031  13.925  0.00  0.00    +0.000 C 
BRANCH  17  18
ATOM     18  C   UNL     1       7.332   4.704  12.926  0.00  0.00    +0.000 C 
ATOM     19  O   UNL     1       7.356   4.440  11.733  0.00  0.00    +0.000 OA
BRANCH  18  20
ATOM     20  O   UNL     1       8.131   5.649  13.481  0.00  0.00    +0.000 OA
ATOM     21  H   UNL     1       7.880   5.780  14.422  0.00  0.00    +0.000 HD
ENDBRANCH  18  20
ENDBRANCH  17  18
ENDBRANCH  16  17
ENDBRANCH  13  16
ENDBRANCH   5  10
BRANCH   1  22
ATOM     22  C   UNL     1       0.332  10.410  20.245  0.00  0.00    +0.000 C 
ATOM     23  O   UNL     1      -0.387   9.965  21.141  0.00  0.00    +0.000 OA
BRANCH  22  29
ATOM     24  C   UNL     1      -0.714  12.617  19.380  0.00  0.00    +0.000 A 
ATOM     25  C   UNL     1      -0.538  13.990  19.143  0.00  0.00    +0.000 A 
ATOM     26  C   UNL     1       0.639  14.641  19.512  0.00  0.00    +0.000 A 
ATOM     27  C   UNL     1       1.666  13.925  20.114  0.00  0.00    +0.000 A 
ATOM     28  C   UNL     1       1.516  12.556  20.339  0.00  0.00    +0.000 A 
ATOM     29  C   UNL     1       0.333  11.884  19.980  0.00  0.00    +0.000 A 
BRANCH  24  31
ATOM     30  C   UNL     1      -1.964  11.687  17.584  0.00  0.00    +0.000 C 
ATOM     31  O   UNL     1      -1.855  11.962  18.984  0.00  0.00    +0.000 OA
ENDBRANCH  24  31
ENDBRANCH  22  29
ENDBRANCH   1  22
TORSDOF 8
ENDMDL
MODEL 8
REMARK VINA RESULT:      -8.0      2.134      9.141
REMARK  Name = 
REMARK  9 active torsions:
REMARK  status: ('A' for Active; 'I' for Inactive)
REMARK    1  A    between atoms: C_1  and  O_2
REMARK    2  A    between atoms: O_2  and  C_3
REMARK    3  A    between atoms: C_8  and  C_9
REMARK    4  A    between atoms: C_9  and  C_11
REMARK    5  A    between atoms: C_15  and  C_16
REMARK    6  A    between atoms: C_19  and  O_20
REMARK    7  A    between atoms: O_20  and  C_21
REMARK    8  A    between atoms: C_21  and  C_22
REMARK    9  A    between atoms: C_22  and  O_24
REMARK                            x       y       z     vdW  Elec       q    Type
REMARK                         _______ _______ _______ _____ _____    ______ ____
ROOT
ATOM      1  C   UNL     1       0.519   9.825  21.024  0.00  0.00    +0.000 A 
ATOM      2  C   UNL     1       0.796   8.671  21.667  0.00  0.00    +0.000 A 
ATOM      3  C   UNL     1       1.485   7.758  20.768  0.00  0.00    +0.000 A 
ATOM      4  C   UNL     1       1.651   8.354  19.576  0.00  0.00    +0.000 A 
ATOM      5  C   UNL     1       2.216   7.992  18.263  0.00  0.00    +0.000 A 
ATOM      6  N   UNL     1       2.381   8.867  17.310  0.00  0.00    +0.000 NA
ATOM      7  O   UNL     1       2.010  10.227  17.532  0.00  0.00    +0.000 OA
ATOM      8  C   UNL     1       1.348  10.534  18.704  0.00  0.00    +0.000 A 
ATOM      9  C   UNL     1       1.135   9.689  19.712  0.00  0.00    +0.000 A 
ENDROOT
BRANCH   5  10
ATOM     10  C   UNL     1       2.640   6.577  18.025  0.00  0.00    +0.000 A 
ATOM     11  C   UNL     1       1.729   5.518  17.947  0.00  0.00    +0.000 A 
ATOM     12  C   UNL     1       2.179   4.199  17.848  0.00  0.00    +0.000 A 
ATOM     13  C   UNL     1       3.541   3.925  17.738  0.00  0.00    +0.000 A 
ATOM     14  C   UNL     1       4.455   4.979  17.740  0.00  0.00    +0.000 A 
ATOM     15  C   UNL     1       4.006   6.297  17.886  0.00  0.00    +0.000 A 
BRANCH  13  16
ATOM     16  O   UNL     1       3.865   2.597  17.679  0.00  0.00    +0.000 OA
BRANCH  16  17
ATOM     17  C   UNL     1       3.270   1.782  18.694  0.00  0.00    +0.000 C 
BRANCH  17  18
ATOM     18  C   UNL     1       3.923   2.107  20.028  0.00  0.00    +0.000 C 
ATOM     19  O   UNL     1       3.326   2.591  20.979  0.00  0.00    +0.000 OA
BRANCH  18  20
ATOM     20  O   UNL     1       5.242   1.793  20.076  0.00  0.00    +0.000 OA
ATOM     21  H   UNL     1       5.528   1.444  19.203  0.00  0.00    +0.000 HD
ENDBRANCH  18  20
ENDBRANCH  17  18
ENDBRANCH  16  17
ENDBRANCH  13  16
ENDBRANCH   5  10
BRANCH   1  22
ATOM     22  C   UNL     1      -0.221  10.993  21.547  0.00  0.00    +0.000 C 
ATOM     23  O   UNL     1      -0.997  10.855  22.493  0.00  0.00    +0.000 OA
BRANCH  22  29
ATOM     24  C   UNL     1      -1.003  12.866  19.937  0.00  0.00    +0.000 A 
ATOM     25  C   UNL     1      -0.729  14.120  19.367  0.00  0.00    +0.000 A 
ATOM     26  C   UNL     1       0.396  14.854  19.744  0.00  0.00    +0.000 A 
ATOM     27  C   UNL     1       1.271  14.339  20.692  0.00  0.00    +0.000 A 
ATOM     28  C   UNL     1       1.024  13.087  21.254  0.00  0.00    +0.000 A 
ATOM     29  C   UNL     1      -0.109  12.335  20.891  0.00  0.00    +0.000 A 
BRANCH  24  31
ATOM     30  C   UNL     1      -3.353  12.531  20.069  0.00  0.00    +0.000 C 
ATOM     31  O   UNL     1      -2.088  12.121  19.541  0.00  0.00    +0.000 OA
ENDBRANCH  24  31
ENDBRANCH  22  29
ENDBRANCH   1  22
TORSDOF 8
ENDMDL
MODEL 9
REMARK VINA RESULT:      -8.0      2.714      4.179
REMARK  Name = 
REMARK  9 active torsions:
REMARK  status: ('A' for Active; 'I' for Inactive)
REMARK    1  A    between atoms: C_1  and  O_2
REMARK    2  A    between atoms: O_2  and  C_3
REMARK    3  A    between atoms: C_8  and  C_9
REMARK    4  A    between atoms: C_9  and  C_11
REMARK    5  A    between atoms: C_15  and  C_16
REMARK    6  A    between atoms: C_19  and  O_20
REMARK    7  A    between atoms: O_20  and  C_21
REMARK    8  A    between atoms: C_21  and  C_22
REMARK    9  A    between atoms: C_22  and  O_24
REMARK                            x       y       z     vdW  Elec       q    Type
REMARK                         _______ _______ _______ _____ _____    ______ ____
ROOT
ATOM      1  C   UNL     1       6.070   5.563  16.675  0.00  0.00    +0.000 A 
ATOM      2  C   UNL     1       6.292   6.860  16.973  0.00  0.00    +0.000 A 
ATOM      3  C   UNL     1       5.139   7.411  17.668  0.00  0.00    +0.000 A 
ATOM      4  C   UNL     1       4.212   6.451  17.816  0.00  0.00    +0.000 A 
ATOM      5  C   UNL     1       2.851   6.347  18.375  0.00  0.00    +0.000 A 
ATOM      6  N   UNL     1       2.242   5.202  18.519  0.00  0.00    +0.000 NA
ATOM      7  O   UNL     1       2.905   3.999  18.130  0.00  0.00    +0.000 OA
ATOM      8  C   UNL     1       4.115   4.110  17.474  0.00  0.00    +0.000 A 
ATOM      9  C   UNL     1       4.785   5.245  17.281  0.00  0.00    +0.000 A 
ENDROOT
BRANCH   5  10
ATOM     10  C   UNL     1       2.155   7.595  18.818  0.00  0.00    +0.000 A 
ATOM     11  C   UNL     1       1.791   7.825  20.149  0.00  0.00    +0.000 A 
ATOM     12  C   UNL     1       1.033   8.947  20.494  0.00  0.00    +0.000 A 
ATOM     13  C   UNL     1       0.702   9.898  19.531  0.00  0.00    +0.000 A 
ATOM     14  C   UNL     1       1.123   9.716  18.214  0.00  0.00    +0.000 A 
ATOM     15  C   UNL     1       1.844   8.568  17.859  0.00  0.00    +0.000 A 
BRANCH  13  16
ATOM     16  O   UNL     1      -0.069  10.937  19.978  0.00  0.00    +0.000 OA
BRANCH  16  17
ATOM     17  C   UNL     1      -1.236  11.205  19.196  0.00  0.00    +0.000 C 
BRANCH  17  18
ATOM     18  C   UNL     1      -1.205  12.659  18.752  0.00  0.00    +0.000 C 
ATOM     19  O   UNL     1      -1.281  13.608  19.518  0.00  0.00    +0.000 OA
BRANCH  18  20
ATOM     20  O   UNL     1      -1.067  12.812  17.411  0.00  0.00    +0.000 OA
ATOM     21  H   UNL     1      -1.084  11.931  16.977  0.00  0.00    +0.000 HD
ENDBRANCH  18  20
ENDBRANCH  17  18
ENDBRANCH  16  17
ENDBRANCH  13  16
ENDBRANCH   5  10
BRANCH   1  22
ATOM     22  C   UNL     1       6.953   4.647  15.922  0.00  0.00    +0.000 C 
ATOM     23  O   UNL     1       7.942   4.159  16.471  0.00  0.00    +0.000 OA
BRANCH  22  29
ATOM     24  C   UNL     1       7.504   4.832  13.397  0.00  0.00    +0.000 A 
ATOM     25  C   UNL     1       7.117   4.529  12.082  0.00  0.00    +0.000 A 
ATOM     26  C   UNL     1       5.984   3.757  11.823  0.00  0.00    +0.000 A 
ATOM     27  C   UNL     1       5.214   3.284  12.877  0.00  0.00    +0.000 A 
ATOM     28  C   UNL     1       5.573   3.592  14.190  0.00  0.00    +0.000 A 
ATOM     29  C   UNL     1       6.716   4.364  14.470  0.00  0.00    +0.000 A 
BRANCH  24  31
ATOM     30  C   UNL     1       9.155   6.308  12.532  0.00  0.00    +0.000 C 
ATOM     31  O   UNL     1       8.596   5.624  13.658  0.00  0.00    +0.000 OA
ENDBRANCH  24  31
ENDBRANCH  22  29
ENDBRANCH   1  22
TORSDOF 8
ENDMDL
