MODEL 1
REMARK VINA RESULT:      -8.1      0.000      0.000
REMARK  Name = 
REMARK  7 active torsions:
REMARK  status: ('A' for Active; 'I' for Inactive)
REMARK    1  A    between atoms: C_2  and  C_14
REMARK    2  A    between atoms: N_3  and  C_4
REMARK    3  A    between atoms: C_8  and  C_9
REMARK    4  A    between atoms: C_17  and  C_18
REMARK    5  A    between atoms: C_18  and  P_21
REMARK    6  A    between atoms: P_21  and  O_23
REMARK    7  A    between atoms: P_21  and  O_24
REMARK                            x       y       z     vdW  Elec       q    Type
REMARK                         _______ _______ _______ _____ _____    ______ ____
ROOT
ATOM      1  C   UNL     1       2.209   7.837  18.832  0.00  0.00    +0.000 A 
ATOM      2  C   UNL     1       1.685   8.066  20.108  0.00  0.00    +0.000 A 
ATOM      3  C   UNL     1       0.834   9.152  20.327  0.00  0.00    +0.000 A 
ATOM      4  C   UNL     1       0.474  10.006  19.274  0.00  0.00    +0.000 A 
ATOM      5  C   UNL     1       0.967   9.747  17.989  0.00  0.00    +0.000 A 
ATOM      6  C   UNL     1       1.825   8.670  17.771  0.00  0.00    +0.000 A 
ENDROOT
BRANCH   1   8
ATOM      7  O   UNL     1       2.871   5.612  18.931  0.00  0.00    +0.000 OA
ATOM      8  C   UNL     1       3.158   6.734  18.526  0.00  0.00    +0.000 C 
ATOM      9  N   UNL     1       4.292   7.074  17.805  0.00  0.00    +0.000 N 
ATOM     10  H   UNL     1       4.454   8.048  17.592  0.00  0.00    +0.000 HD
BRANCH   9  11
ATOM     11  C   UNL     1       5.298   6.178  17.388  0.00  0.00    +0.000 A 
ATOM     12  C   UNL     1       6.362   5.797  18.208  0.00  0.00    +0.000 A 
ATOM     13  C   UNL     1       7.354   4.943  17.732  0.00  0.00    +0.000 A 
ATOM     14  C   UNL     1       7.296   4.465  16.427  0.00  0.00    +0.000 A 
ATOM     15  C   UNL     1       6.229   4.819  15.591  0.00  0.00    +0.000 A 
ATOM     16  C   UNL     1       5.217   5.658  16.092  0.00  0.00    +0.000 A 
BRANCH  15  17
ATOM     17  C   UNL     1       6.174   4.337  14.164  0.00  0.00    +0.000 C 
ATOM     18  F   UNL     1       4.970   4.539  13.564  0.00  0.00    +0.000 F 
ATOM     19  F   UNL     1       7.097   4.947  13.370  0.00  0.00    +0.000 F 
ATOM     20  F   UNL     1       6.421   3.001  14.061  0.00  0.00    +0.000 F 
ENDBRANCH  15  17
ENDBRANCH   9  11
ENDBRANCH   1   8
BRANCH   4  21
ATOM     21  C   UNL     1      -0.390  11.206  19.532  0.00  0.00    +0.000 C 
ATOM     22  F   UNL     1      -1.008  11.165  20.747  0.00  0.00    +0.000 F 
ATOM     23  F   UNL     1       0.270  12.405  19.507  0.00  0.00    +0.000 F 
BRANCH  21  24
ATOM     24  P   UNL     1      -1.781  11.574  18.439  0.00  0.00    +0.000 P 
ATOM     25  O   UNL     1      -2.541  10.422  17.853  0.00  0.00    +0.000 OA
BRANCH  24  26
ATOM     26  O   UNL     1      -2.731  12.610  19.237  0.00  0.00    +0.000 OA
ATOM     27  H   UNL     1      -3.285  12.173  19.916  0.00  0.00    +0.000 HD
ENDBRANCH  24  26
BRANCH  24  28
ATOM     28  O   UNL     1      -1.253  12.570  17.286  0.00  0.00    +0.000 OA
ATOM     29  H   UNL     1      -2.008  12.955  16.799  0.00  0.00    +0.000 HD
ENDBRANCH  24  28
ENDBRANCH  21  24
ENDBRANCH   4  21
TORSDOF 7
ENDMDL
MODEL 2
REMARK VINA RESULT:      -8.1      3.782      9.328
REMARK  Name = 
REMARK  7 active torsions:
REMARK  status: ('A' for Active; 'I' for Inactive)
REMARK    1  A    between atoms: C_2  and  C_14
REMARK    2  A    between atoms: N_3  and  C_4
REMARK    3  A    between atoms: C_8  and  C_9
REMARK    4  A    between atoms: C_17  and  C_18
REMARK    5  A    between atoms: C_18  and  P_21
REMARK    6  A    between atoms: P_21  and  O_23
REMARK    7  A    between atoms: P_21  and  O_24
REMARK                            x       y       z     vdW  Elec       q    Type
REMARK                         _______ _______ _______ _____ _____    ______ ____
ROOT
ATOM      1  C   UNL     1       2.461   7.659  18.838  0.00  0.00    +0.000 A 
ATOM      2  C   UNL     1       3.229   7.864  17.687  0.00  0.00    +0.000 A 
ATOM      3  C   UNL     1       4.201   6.929  17.322  0.00  0.00    +0.000 A 
ATOM      4  C   UNL     1       4.401   5.767  18.084  0.00  0.00    +0.000 A 
ATOM      5  C   UNL     1       3.599   5.547  19.211  0.00  0.00    +0.000 A 
ATOM      6  C   UNL     1       2.637   6.484  19.582  0.00  0.00    +0.000 A 
ENDROOT
BRANCH   1   8
ATOM      7  O   UNL     1       1.115   8.565  20.502  0.00  0.00    +0.000 OA
ATOM      8  C   UNL     1       1.442   8.628  19.321  0.00  0.00    +0.000 C 
ATOM      9  N   UNL     1       0.947   9.524  18.385  0.00  0.00    +0.000 N 
ATOM     10  H   UNL     1       1.240   9.427  17.423  0.00  0.00    +0.000 HD
BRANCH   9  11
ATOM     11  C   UNL     1       0.001  10.538  18.641  0.00  0.00    +0.000 A 
ATOM     12  C   UNL     1       0.294  11.679  19.390  0.00  0.00    +0.000 A 
ATOM     13  C   UNL     1      -0.689  12.630  19.651  0.00  0.00    +0.000 A 
ATOM     14  C   UNL     1      -1.982  12.446  19.170  0.00  0.00    +0.000 A 
ATOM     15  C   UNL     1      -2.297  11.318  18.401  0.00  0.00    +0.000 A 
ATOM     16  C   UNL     1      -1.287  10.379  18.118  0.00  0.00    +0.000 A 
BRANCH  15  17
ATOM     17  C   UNL     1      -3.702  11.089  17.906  0.00  0.00    +0.000 C 
ATOM     18  F   UNL     1      -3.924  11.565  16.651  0.00  0.00    +0.000 F 
ATOM     19  F   UNL     1      -4.036   9.769  17.872  0.00  0.00    +0.000 F 
ATOM     20  F   UNL     1      -4.633  11.687  18.701  0.00  0.00    +0.000 F 
ENDBRANCH  15  17
ENDBRANCH   9  11
ENDBRANCH   1   8
BRANCH   4  21
ATOM     21  C   UNL     1       5.490   4.800  17.720  0.00  0.00    +0.000 C 
ATOM     22  F   UNL     1       5.649   3.808  18.641  0.00  0.00    +0.000 F 
ATOM     23  F   UNL     1       5.310   4.156  16.526  0.00  0.00    +0.000 F 
BRANCH  21  24
ATOM     24  P   UNL     1       7.191   5.382  17.527  0.00  0.00    +0.000 P 
ATOM     25  O   UNL     1       7.662   6.489  18.420  0.00  0.00    +0.000 OA
BRANCH  24  26
ATOM     26  O   UNL     1       8.135   4.072  17.601  0.00  0.00    +0.000 OA
ATOM     27  H   UNL     1       8.552   3.855  16.742  0.00  0.00    +0.000 HD
ENDBRANCH  24  26
BRANCH  24  28
ATOM     28  O   UNL     1       7.412   5.752  15.974  0.00  0.00    +0.000 OA
ATOM     29  H   UNL     1       7.554   6.714  15.871  0.00  0.00    +0.000 HD
ENDBRANCH  24  28
ENDBRANCH  21  24
ENDBRANCH   4  21
TORSDOF 7
ENDMDL
MODEL 3
REMARK VINA RESULT:      -8.0      3.816      9.274
REMARK  Name = 
REMARK  7 active torsions:
REMARK  status: ('A' for Active; 'I' for Inactive)
REMARK    1  A    between atoms: C_2  and  C_14
REMARK    2  A    between atoms: N_3  and  C_4
REMARK    3  A    between atoms: C_8  and  C_9
REMARK    4  A    between atoms: C_17  and  C_18
REMARK    5  A    between atoms: C_18  and  P_21
REMARK    6  A    between atoms: P_21  and  O_23
REMARK    7  A    between atoms: P_21  and  O_24
REMARK                            x       y       z     vdW  Elec       q    Type
REMARK                         _______ _______ _______ _____ _____    ______ ____
ROOT
ATOM      1  C   UNL     1       2.492   7.605  18.837  0.00  0.00    +0.000 A 
ATOM      2  C   UNL     1       3.242   7.735  17.663  0.00  0.00    +0.000 A 
ATOM      3  C   UNL     1       4.227   6.792  17.358  0.00  0.00    +0.000 A 
ATOM      4  C   UNL     1       4.459   5.697  18.203  0.00  0.00    +0.000 A 
ATOM      5  C   UNL     1       3.676   5.548  19.355  0.00  0.00    +0.000 A 
ATOM      6  C   UNL     1       2.700   6.494  19.666  0.00  0.00    +0.000 A 
ENDROOT
BRANCH   1   8
ATOM      7  O   UNL     1       1.100   8.566  20.430  0.00  0.00    +0.000 OA
ATOM      8  C   UNL     1       1.460   8.589  19.257  0.00  0.00    +0.000 C 
ATOM      9  N   UNL     1       0.993   9.453  18.278  0.00  0.00    +0.000 N 
ATOM     10  H   UNL     1       1.312   9.324  17.329  0.00  0.00    +0.000 HD
BRANCH   9  11
ATOM     11  C   UNL     1       0.040  10.474  18.473  0.00  0.00    +0.000 A 
ATOM     12  C   UNL     1       0.320  11.650  19.171  0.00  0.00    +0.000 A 
ATOM     13  C   UNL     1      -0.670  12.609  19.373  0.00  0.00    +0.000 A 
ATOM     14  C   UNL     1      -1.955  12.398  18.884  0.00  0.00    +0.000 A 
ATOM     15  C   UNL     1      -2.256  11.234  18.166  0.00  0.00    +0.000 A 
ATOM     16  C   UNL     1      -1.240  10.287  17.941  0.00  0.00    +0.000 A 
BRANCH  15  17
ATOM     17  C   UNL     1      -3.653  10.978  17.662  0.00  0.00    +0.000 C 
ATOM     18  F   UNL     1      -4.587  11.815  18.188  0.00  0.00    +0.000 F 
ATOM     19  F   UNL     1      -3.753  11.105  16.310  0.00  0.00    +0.000 F 
ATOM     20  F   UNL     1      -4.081   9.716  17.949  0.00  0.00    +0.000 F 
ENDBRANCH  15  17
ENDBRANCH   9  11
ENDBRANCH   1   8
BRANCH   4  21
ATOM     21  C   UNL     1       5.562   4.725  17.900  0.00  0.00    +0.000 C 
ATOM     22  F   UNL     1       5.584   3.661  18.753  0.00  0.00    +0.000 F 
ATOM     23  F   UNL     1       5.517   4.178  16.646  0.00  0.00    +0.000 F 
BRANCH  21  24
ATOM     24  P   UNL     1       7.287   5.263  17.961  0.00  0.00    +0.000 P 
ATOM     25  O   UNL     1       7.679   6.463  17.153  0.00  0.00    +0.000 OA
BRANCH  24  26
ATOM     26  O   UNL     1       7.667   5.410  19.525  0.00  0.00    +0.000 OA
ATOM     27  H   UNL     1       7.957   6.314  19.762  0.00  0.00    +0.000 HD
ENDBRANCH  24  26
BRANCH  24  28
ATOM     28  O   UNL     1       8.213   3.993  17.605  0.00  0.00    +0.000 OA
ATOM     29  H   UNL     1       7.682   3.297  17.171  0.00  0.00    +0.000 HD
ENDBRANCH  24  28
ENDBRANCH  21  24
ENDBRANCH   4  21
TORSDOF 7
ENDMDL
MODEL 4
REMARK VINA RESULT:      -8.0      0.190      1.218
REMARK  Name = 
REMARK  7 active torsions:
REMARK  status: ('A' for Active; 'I' for Inactive)
REMARK    1  A    between atoms: C_2  and  C_14
REMARK    2  A    between atoms: N_3  and  C_4
REMARK    3  A    between atoms: C_8  and  C_9
REMARK    4  A    between atoms: C_17  and  C_18
REMARK    5  A    between atoms: C_18  and  P_21
REMARK    6  A    between atoms: P_21  and  O_23
REMARK    7  A    between atoms: P_21  and  O_24
REMARK                            x       y       z     vdW  Elec       q    Type
REMARK                         _______ _______ _______ _____ _____    ______ ____
ROOT
ATOM      1  C   UNL     1       2.226   8.029  18.743  0.00  0.00    +0.000 A 
ATOM      2  C   UNL     1       1.862   8.944  17.749  0.00  0.00    +0.000 A 
ATOM      3  C   UNL     1       0.955   9.965  18.041  0.00  0.00    +0.000 A 
ATOM      4  C   UNL     1       0.420  10.103  19.331  0.00  0.00    +0.000 A 
ATOM      5  C   UNL     1       0.821   9.210  20.333  0.00  0.00    +0.000 A 
ATOM      6  C   UNL     1       1.718   8.184  20.040  0.00  0.00    +0.000 A 
ENDROOT
BRANCH   1   8
ATOM      7  O   UNL     1       2.857   5.808  19.009  0.00  0.00    +0.000 OA
ATOM      8  C   UNL     1       3.147   6.887  18.501  0.00  0.00    +0.000 C 
ATOM      9  N   UNL     1       4.261   7.145  17.716  0.00  0.00    +0.000 N 
ATOM     10  H   UNL     1       4.430   8.094  17.417  0.00  0.00    +0.000 HD
BRANCH   9  11
ATOM     11  C   UNL     1       5.239   6.199  17.344  0.00  0.00    +0.000 A 
ATOM     12  C   UNL     1       6.243   5.765  18.211  0.00  0.00    +0.000 A 
ATOM     13  C   UNL     1       7.212   4.861  17.780  0.00  0.00    +0.000 A 
ATOM     14  C   UNL     1       7.189   4.386  16.472  0.00  0.00    +0.000 A 
ATOM     15  C   UNL     1       6.181   4.793  15.589  0.00  0.00    +0.000 A 
ATOM     16  C   UNL     1       5.190   5.683  16.045  0.00  0.00    +0.000 A 
BRANCH  15  17
ATOM     17  C   UNL     1       6.166   4.314  14.160  0.00  0.00    +0.000 C 
ATOM     18  F   UNL     1       6.445   2.989  14.024  0.00  0.00    +0.000 F 
ATOM     19  F   UNL     1       4.962   4.509  13.556  0.00  0.00    +0.000 F 
ATOM     20  F   UNL     1       7.080   4.967  13.388  0.00  0.00    +0.000 F 
ENDBRANCH  15  17
ENDBRANCH   9  11
ENDBRANCH   1   8
BRANCH   4  21
ATOM     21  C   UNL     1      -0.602  11.164  19.619  0.00  0.00    +0.000 C 
ATOM     22  F   UNL     1      -1.297  10.935  20.770  0.00  0.00    +0.000 F 
ATOM     23  F   UNL     1      -0.096  12.429  19.751  0.00  0.00    +0.000 F 
BRANCH  21  24
ATOM     24  P   UNL     1      -1.946  11.469  18.449  0.00  0.00    +0.000 P 
ATOM     25  O   UNL     1      -2.632  10.284  17.840  0.00  0.00    +0.000 OA
BRANCH  24  26
ATOM     26  O   UNL     1      -2.973  12.479  19.182  0.00  0.00    +0.000 OA
ATOM     27  H   UNL     1      -3.907  12.198  19.099  0.00  0.00    +0.000 HD
ENDBRANCH  24  26
BRANCH  24  28
ATOM     28  O   UNL     1      -1.393  12.470  17.312  0.00  0.00    +0.000 OA
ATOM     29  H   UNL     1      -1.907  12.363  16.487  0.00  0.00    +0.000 HD
ENDBRANCH  24  28
ENDBRANCH  21  24
ENDBRANCH   4  21
TORSDOF 7
ENDMDL
MODEL 5
REMARK VINA RESULT:      -8.0      0.791      1.760
REMARK  Name = 
REMARK  7 active torsions:
REMARK  status: ('A' for Active; 'I' for Inactive)
REMARK    1  A    between atoms: C_2  and  C_14
REMARK    2  A    between atoms: N_3  and  C_4
REMARK    3  A    between atoms: C_8  and  C_9
REMARK    4  A    between atoms: C_17  and  C_18
REMARK    5  A    between atoms: C_18  and  P_21
REMARK    6  A    between atoms: P_21  and  O_23
REMARK    7  A    between atoms: P_21  and  O_24
REMARK                            x       y       z     vdW  Elec       q    Type
REMARK                         _______ _______ _______ _____ _____    ______ ____
ROOT
ATOM      1  C   UNL     1       2.198   8.004  18.725  0.00  0.00    +0.000 A 
ATOM      2  C   UNL     1       1.784   8.870  17.708  0.00  0.00    +0.000 A 
ATOM      3  C   UNL     1       0.850   9.872  17.983  0.00  0.00    +0.000 A 
ATOM      4  C   UNL     1       0.339  10.041  19.279  0.00  0.00    +0.000 A 
ATOM      5  C   UNL     1       0.790   9.198  20.303  0.00  0.00    +0.000 A 
ATOM      6  C   UNL     1       1.713   8.191  20.027  0.00  0.00    +0.000 A 
ENDROOT
BRANCH   1   8
ATOM      7  O   UNL     1       2.914   5.820  19.069  0.00  0.00    +0.000 OA
ATOM      8  C   UNL     1       3.150   6.884  18.504  0.00  0.00    +0.000 C 
ATOM      9  N   UNL     1       4.229   7.143  17.673  0.00  0.00    +0.000 N 
ATOM     10  H   UNL     1       4.356   8.083  17.327  0.00  0.00    +0.000 HD
BRANCH   9  11
ATOM     11  C   UNL     1       5.227   6.214  17.311  0.00  0.00    +0.000 A 
ATOM     12  C   UNL     1       6.236   5.804  18.186  0.00  0.00    +0.000 A 
ATOM     13  C   UNL     1       7.224   4.917  17.765  0.00  0.00    +0.000 A 
ATOM     14  C   UNL     1       7.217   4.435  16.460  0.00  0.00    +0.000 A 
ATOM     15  C   UNL     1       6.206   4.817  15.569  0.00  0.00    +0.000 A 
ATOM     16  C   UNL     1       5.196   5.691  16.015  0.00  0.00    +0.000 A 
BRANCH  15  17
ATOM     17  C   UNL     1       6.209   4.330  14.143  0.00  0.00    +0.000 C 
ATOM     18  F   UNL     1       7.131   4.947  13.355  0.00  0.00    +0.000 F 
ATOM     19  F   UNL     1       6.465   2.996  14.046  0.00  0.00    +0.000 F 
ATOM     20  F   UNL     1       5.007   4.523  13.530  0.00  0.00    +0.000 F 
ENDBRANCH  15  17
ENDBRANCH   9  11
ENDBRANCH   1   8
BRANCH   4  21
ATOM     21  C   UNL     1      -0.711  11.079  19.551  0.00  0.00    +0.000 C 
ATOM     22  F   UNL     1      -1.958  10.688  19.161  0.00  0.00    +0.000 F 
ATOM     23  F   UNL     1      -0.840  11.434  20.866  0.00  0.00    +0.000 F 
BRANCH  21  24
ATOM     24  P   UNL     1      -0.593  12.710  18.781  0.00  0.00    +0.000 P 
ATOM     25  O   UNL     1       0.757  13.357  18.705  0.00  0.00    +0.000 OA
BRANCH  24  26
ATOM     26  O   UNL     1      -1.312  12.590  17.338  0.00  0.00    +0.000 OA
ATOM     27  H   UNL     1      -2.178  13.045  17.306  0.00  0.00    +0.000 HD
ENDBRANCH  24  26
BRANCH  24  28
ATOM     28  O   UNL     1      -1.662  13.675  19.503  0.00  0.00    +0.000 OA
ATOM     29  H   UNL     1      -1.409  13.824  20.436  0.00  0.00    +0.000 HD
ENDBRANCH  24  28
ENDBRANCH  21  24
ENDBRANCH   4  21
TORSDOF 7
ENDMDL
MODEL 6
REMARK VINA RESULT:      -7.9      0.202      1.123
REMARK  Name = 
REMARK  7 active torsions:
REMARK  status: ('A' for Active; 'I' for Inactive)
REMARK    1  A    between atoms: C_2  and  C_14
REMARK    2  A    between atoms: N_3  and  C_4
REMARK    3  A    between atoms: C_8  and  C_9
REMARK    4  A    between atoms: C_17  and  C_18
REMARK    5  A    between atoms: C_18  and  P_21
REMARK    6  A    between atoms: P_21  and  O_23
REMARK    7  A    between atoms: P_21  and  O_24
REMARK                            x       y       z     vdW  Elec       q    Type
REMARK                         _______ _______ _______ _____ _____    ______ ____
ROOT
ATOM      1  C   UNL     1       2.226   7.854  18.841  0.00  0.00    +0.000 A 
ATOM      2  C   UNL     1       1.673   8.080  20.105  0.00  0.00    +0.000 A 
ATOM      3  C   UNL     1       0.827   9.172  20.310  0.00  0.00    +0.000 A 
ATOM      4  C   UNL     1       0.501  10.036  19.253  0.00  0.00    +0.000 A 
ATOM      5  C   UNL     1       1.024   9.780  17.979  0.00  0.00    +0.000 A 
ATOM      6  C   UNL     1       1.877   8.697  17.776  0.00  0.00    +0.000 A 
ENDROOT
BRANCH   1   8
ATOM      7  O   UNL     1       2.908   5.639  19.016  0.00  0.00    +0.000 OA
ATOM      8  C   UNL     1       3.172   6.744  18.552  0.00  0.00    +0.000 C 
ATOM      9  N   UNL     1       4.279   7.058  17.778  0.00  0.00    +0.000 N 
ATOM     10  H   UNL     1       4.426   8.022  17.517  0.00  0.00    +0.000 HD
BRANCH   9  11
ATOM     11  C   UNL     1       5.277   6.150  17.367  0.00  0.00    +0.000 A 
ATOM     12  C   UNL     1       6.321   5.742  18.200  0.00  0.00    +0.000 A 
ATOM     13  C   UNL     1       7.306   4.876  17.731  0.00  0.00    +0.000 A 
ATOM     14  C   UNL     1       7.263   4.415  16.419  0.00  0.00    +0.000 A 
ATOM     15  C   UNL     1       6.216   4.797  15.570  0.00  0.00    +0.000 A 
ATOM     16  C   UNL     1       5.209   5.648  16.064  0.00  0.00    +0.000 A 
BRANCH  15  17
ATOM     17  C   UNL     1       6.177   4.334  14.136  0.00  0.00    +0.000 C 
ATOM     18  F   UNL     1       6.434   3.006  13.983  0.00  0.00    +0.000 F 
ATOM     19  F   UNL     1       4.969   4.553  13.548  0.00  0.00    +0.000 F 
ATOM     20  F   UNL     1       7.091   4.981  13.360  0.00  0.00    +0.000 F 
ENDBRANCH  15  17
ENDBRANCH   9  11
ENDBRANCH   1   8
BRANCH   4  21
ATOM     21  C   UNL     1      -0.358  11.243  19.498  0.00  0.00    +0.000 C 
ATOM     22  F   UNL     1      -0.802  11.328  20.784  0.00  0.00    +0.000 F 
ATOM     23  F   UNL     1       0.253  12.442  19.249  0.00  0.00    +0.000 F 
BRANCH  21  24
ATOM     24  P   UNL     1      -1.898  11.461  18.576  0.00  0.00    +0.000 P 
ATOM     25  O   UNL     1      -3.077  12.036  19.301  0.00  0.00    +0.000 OA
BRANCH  24  26
ATOM     26  O   UNL     1      -1.520  12.287  17.239  0.00  0.00    +0.000 OA
ATOM     27  H   UNL     1      -1.295  13.222  17.421  0.00  0.00    +0.000 HD
ENDBRANCH  24  26
BRANCH  24  28
ATOM     28  O   UNL     1      -2.267  10.049  17.891  0.00  0.00    +0.000 OA
ATOM     29  H   UNL     1      -3.107   9.705  18.255  0.00  0.00    +0.000 HD
ENDBRANCH  24  28
ENDBRANCH  21  24
ENDBRANCH   4  21
TORSDOF 7
ENDMDL
MODEL 7
REMARK VINA RESULT:      -7.9      3.734      9.280
REMARK  Name = 
REMARK  7 active torsions:
REMARK  status: ('A' for Active; 'I' for Inactive)
REMARK    1  A    between atoms: C_2  and  C_14
REMARK    2  A    between atoms: N_3  and  C_4
REMARK    3  A    between atoms: C_8  and  C_9
REMARK    4  A    between atoms: C_17  and  C_18
REMARK    5  A    between atoms: C_18  and  P_21
REMARK    6  A    between atoms: P_21  and  O_23
REMARK    7  A    between atoms: P_21  and  O_24
REMARK                            x       y       z     vdW  Elec       q    Type
REMARK                         _______ _______ _______ _____ _____    ______ ____
ROOT
ATOM      1  C   UNL     1       2.404   7.667  18.974  0.00  0.00    +0.000 A 
ATOM      2  C   UNL     1       2.710   6.493  19.671  0.00  0.00    +0.000 A 
ATOM      3  C   UNL     1       3.673   5.615  19.167  0.00  0.00    +0.000 A 
ATOM      4  C   UNL     1       4.361   5.908  17.979  0.00  0.00    +0.000 A 
ATOM      5  C   UNL     1       4.081   7.106  17.309  0.00  0.00    +0.000 A 
ATOM      6  C   UNL     1       3.112   7.977  17.805  0.00  0.00    +0.000 A 
ENDROOT
BRANCH   1   8
ATOM      7  O   UNL     1       0.952   8.529  20.571  0.00  0.00    +0.000 OA
ATOM      8  C   UNL     1       1.360   8.628  19.418  0.00  0.00    +0.000 C 
ATOM      9  N   UNL     1       0.936   9.558  18.480  0.00  0.00    +0.000 N 
ATOM     10  H   UNL     1       1.294   9.490  17.538  0.00  0.00    +0.000 HD
BRANCH   9  11
ATOM     11  C   UNL     1      -0.019  10.571  18.704  0.00  0.00    +0.000 A 
ATOM     12  C   UNL     1       0.265  11.740  19.412  0.00  0.00    +0.000 A 
ATOM     13  C   UNL     1      -0.727  12.690  19.643  0.00  0.00    +0.000 A 
ATOM     14  C   UNL     1      -2.019  12.477  19.173  0.00  0.00    +0.000 A 
ATOM     15  C   UNL     1      -2.325  11.319  18.445  0.00  0.00    +0.000 A 
ATOM     16  C   UNL     1      -1.307  10.381  18.192  0.00  0.00    +0.000 A 
BRANCH  15  17
ATOM     17  C   UNL     1      -3.729  11.060  17.962  0.00  0.00    +0.000 C 
ATOM     18  F   UNL     1      -3.995   9.746  17.733  0.00  0.00    +0.000 F 
ATOM     19  F   UNL     1      -4.673  11.485  18.847  0.00  0.00    +0.000 F 
ATOM     20  F   UNL     1      -3.999  11.704  16.793  0.00  0.00    +0.000 F 
ENDBRANCH  15  17
ENDBRANCH   9  11
ENDBRANCH   1   8
BRANCH   4  21
ATOM     21  C   UNL     1       5.347   4.929  17.413  0.00  0.00    +0.000 C 
ATOM     22  F   UNL     1       5.342   3.731  18.065  0.00  0.00    +0.000 F 
ATOM     23  F   UNL     1       5.157   4.620  16.094  0.00  0.00    +0.000 F 
BRANCH  21  24
ATOM     24  P   UNL     1       7.112   5.321  17.407  0.00  0.00    +0.000 P 
ATOM     25  O   UNL     1       7.552   6.576  16.715  0.00  0.00    +0.000 OA
BRANCH  24  26
ATOM     26  O   UNL     1       7.604   5.247  18.944  0.00  0.00    +0.000 OA
ATOM     27  H   UNL     1       7.698   6.130  19.356  0.00  0.00    +0.000 HD
ENDBRANCH  24  26
BRANCH  24  28
ATOM     28  O   UNL     1       7.901   4.036  16.838  0.00  0.00    +0.000 OA
ATOM     29  H   UNL     1       8.536   3.706  17.504  0.00  0.00    +0.000 HD
ENDBRANCH  24  28
ENDBRANCH  21  24
ENDBRANCH   4  21
TORSDOF 7
ENDMDL
MODEL 8
REMARK VINA RESULT:      -7.9      3.767      9.183
REMARK  Name = 
REMARK  7 active torsions:
REMARK  status: ('A' for Active; 'I' for Inactive)
REMARK    1  A    between atoms: C_2  and  C_14
REMARK    2  A    between atoms: N_3  and  C_4
REMARK    3  A    between atoms: C_8  and  C_9
REMARK    4  A    between atoms: C_17  and  C_18
REMARK    5  A    between atoms: C_18  and  P_21
REMARK    6  A    between atoms: P_21  and  O_23
REMARK    7  A    between atoms: P_21  and  O_24
REMARK                            x       y       z     vdW  Elec       q    Type
REMARK                         _______ _______ _______ _____ _____    ______ ____
ROOT
ATOM      1  C   UNL     1       2.502   7.582  18.968  0.00  0.00    +0.000 A 
ATOM      2  C   UNL     1       2.795   6.433  19.709  0.00  0.00    +0.000 A 
ATOM      3  C   UNL     1       3.759   5.533  19.246  0.00  0.00    +0.000 A 
ATOM      4  C   UNL     1       4.460   5.781  18.056  0.00  0.00    +0.000 A 
ATOM      5  C   UNL     1       4.192   6.955  17.341  0.00  0.00    +0.000 A 
ATOM      6  C   UNL     1       3.223   7.848  17.795  0.00  0.00    +0.000 A 
ENDROOT
BRANCH   1   8
ATOM      7  O   UNL     1       1.050   8.520  20.522  0.00  0.00    +0.000 OA
ATOM      8  C   UNL     1       1.457   8.563  19.365  0.00  0.00    +0.000 C 
ATOM      9  N   UNL     1       1.032   9.447  18.385  0.00  0.00    +0.000 N 
ATOM     10  H   UNL     1       1.389   9.335  17.447  0.00  0.00    +0.000 HD
BRANCH   9  11
ATOM     11  C   UNL     1       0.076  10.469  18.561  0.00  0.00    +0.000 A 
ATOM     12  C   UNL     1       0.360  11.669  19.215  0.00  0.00    +0.000 A 
ATOM     13  C   UNL     1      -0.633  12.629  19.401  0.00  0.00    +0.000 A 
ATOM     14  C   UNL     1      -1.924  12.394  18.940  0.00  0.00    +0.000 A 
ATOM     15  C   UNL     1      -2.229  11.205  18.266  0.00  0.00    +0.000 A 
ATOM     16  C   UNL     1      -1.211  10.256  18.056  0.00  0.00    +0.000 A 
BRANCH  15  17
ATOM     17  C   UNL     1      -3.633  10.924  17.793  0.00  0.00    +0.000 C 
ATOM     18  F   UNL     1      -4.596  11.468  18.585  0.00  0.00    +0.000 F 
ATOM     19  F   UNL     1      -3.866  11.396  16.538  0.00  0.00    +0.000 F 
ATOM     20  F   UNL     1      -3.902   9.589  17.744  0.00  0.00    +0.000 F 
ENDBRANCH  15  17
ENDBRANCH   9  11
ENDBRANCH   1   8
BRANCH   4  21
ATOM     21  C   UNL     1       5.447   4.778  17.535  0.00  0.00    +0.000 C 
ATOM     22  F   UNL     1       5.489   3.636  18.281  0.00  0.00    +0.000 F 
ATOM     23  F   UNL     1       5.220   4.361  16.252  0.00  0.00    +0.000 F 
BRANCH  21  24
ATOM     24  P   UNL     1       7.202   5.201  17.437  0.00  0.00    +0.000 P 
ATOM     25  O   UNL     1       8.203   4.109  17.666  0.00  0.00    +0.000 OA
BRANCH  24  26
ATOM     26  O   UNL     1       7.413   5.959  16.025  0.00  0.00    +0.000 OA
ATOM     27  H   UNL     1       8.051   6.699  16.082  0.00  0.00    +0.000 HD
ENDBRANCH  24  26
BRANCH  24  28
ATOM     28  O   UNL     1       7.465   6.449  18.422  0.00  0.00    +0.000 OA
ATOM     29  H   UNL     1       8.372   6.411  18.784  0.00  0.00    +0.000 HD
ENDBRANCH  24  28
ENDBRANCH  21  24
ENDBRANCH   4  21
TORSDOF 7
ENDMDL
MODEL 9
REMARK VINA RESULT:      -7.9      0.864      1.514
REMARK  Name = 
REMARK  7 active torsions:
REMARK  status: ('A' for Active; 'I' for Inactive)
REMARK    1  A    between atoms: C_2  and  C_14
REMARK    2  A    between atoms: N_3  and  C_4
REMARK    3  A    between atoms: C_8  and  C_9
REMARK    4  A    between atoms: C_17  and  C_18
REMARK    5  A    between atoms: C_18  and  P_21
REMARK    6  A    between atoms: P_21  and  O_23
REMARK    7  A    between atoms: P_21  and  O_24
REMARK                            x       y       z     vdW  Elec       q    Type
REMARK                         _______ _______ _______ _____ _____    ______ ____
ROOT
ATOM      1  C   UNL     1       2.131   7.919  19.001  0.00  0.00    +0.000 A 
ATOM      2  C   UNL     1       1.544   8.160  20.247  0.00  0.00    +0.000 A 
ATOM      3  C   UNL     1       0.623   9.201  20.394  0.00  0.00    +0.000 A 
ATOM      4  C   UNL     1       0.258   9.996  19.297  0.00  0.00    +0.000 A 
ATOM      5  C   UNL     1       0.817   9.722  18.042  0.00  0.00    +0.000 A 
ATOM      6  C   UNL     1       1.744   8.691  17.897  0.00  0.00    +0.000 A 
ENDROOT
BRANCH   1   8
ATOM      7  O   UNL     1       3.075   5.843  19.451  0.00  0.00    +0.000 OA
ATOM      8  C   UNL     1       3.153   6.863  18.773  0.00  0.00    +0.000 C 
ATOM      9  N   UNL     1       4.112   7.128  17.806  0.00  0.00    +0.000 N 
ATOM     10  H   UNL     1       4.115   8.037  17.367  0.00  0.00    +0.000 HD
BRANCH   9  11
ATOM     11  C   UNL     1       5.147   6.253  17.418  0.00  0.00    +0.000 A 
ATOM     12  C   UNL     1       6.187   5.881  18.271  0.00  0.00    +0.000 A 
ATOM     13  C   UNL     1       7.210   5.047  17.823  0.00  0.00    +0.000 A 
ATOM     14  C   UNL     1       7.207   4.582  16.512  0.00  0.00    +0.000 A 
ATOM     15  C   UNL     1       6.165   4.927  15.642  0.00  0.00    +0.000 A 
ATOM     16  C   UNL     1       5.121   5.745  16.115  0.00  0.00    +0.000 A 
BRANCH  15  17
ATOM     17  C   UNL     1       6.168   4.459  14.209  0.00  0.00    +0.000 C 
ATOM     18  F   UNL     1       6.480   3.143  14.064  0.00  0.00    +0.000 F 
ATOM     19  F   UNL     1       4.962   4.629  13.601  0.00  0.00    +0.000 F 
ATOM     20  F   UNL     1       7.068   5.141  13.447  0.00  0.00    +0.000 F 
ENDBRANCH  15  17
ENDBRANCH   9  11
ENDBRANCH   1   8
BRANCH   4  21
ATOM     21  C   UNL     1      -0.683  11.152  19.477  0.00  0.00    +0.000 C 
ATOM     22  F   UNL     1      -1.950  10.876  19.056  0.00  0.00    +0.000 F 
ATOM     23  F   UNL     1      -0.820  11.584  20.768  0.00  0.00    +0.000 F 
BRANCH  21  24
ATOM     24  P   UNL     1      -0.363  12.721  18.638  0.00  0.00    +0.000 P 
ATOM     25  O   UNL     1       1.061  13.166  18.496  0.00  0.00    +0.000 OA
BRANCH  24  26
ATOM     26  O   UNL     1      -1.142  12.652  17.223  0.00  0.00    +0.000 OA
ATOM     27  H   UNL     1      -1.021  13.460  16.683  0.00  0.00    +0.000 HD
ENDBRANCH  24  26
BRANCH  24  28
ATOM     28  O   UNL     1      -1.259  13.854  19.352  0.00  0.00    +0.000 OA
ATOM     29  H   UNL     1      -1.331  13.675  20.311  0.00  0.00    +0.000 HD
ENDBRANCH  24  28
ENDBRANCH  21  24
ENDBRANCH   4  21
TORSDOF 7
ENDMDL
