MODEL 1
REMARK VINA RESULT:      -6.9      0.000      0.000
REMARK  Name = 
REMARK  9 active torsions:
REMARK  status: ('A' for Active; 'I' for Inactive)
REMARK    1  A    between atoms: C_1  and  C_2
REMARK    2  A    between atoms: C_2  and  C_3
REMARK    3  A    between atoms: C_3  and  N_4
REMARK    4  A    between atoms: N_4  and  C_5
REMARK    5  A    between atoms: N_4  and  C_8
REMARK    6  A    between atoms: C_5  and  C_6
REMARK    7  A    between atoms: C_6  and  C_7
REMARK    8  A    between atoms: C_14  and  O_15
REMARK    9  A    between atoms: C_18  and  C_19
REMARK                            x       y       z     vdW  Elec       q    Type
REMARK                         _______ _______ _______ _____ _____    ______ ____
ROOT
ATOM      1  C   UNL     1       4.546   5.265  17.231  0.00  0.00    +0.000 C 
ATOM      2  C   UNL     1       3.714   6.494  17.667  0.00  0.00    +0.000 C 
ATOM      3  C   UNL     1       2.369   6.082  18.265  0.00  0.00    +0.000 C 
ATOM      4  C   UNL     1       2.470   5.005  19.308  0.00  0.00    +0.000 A 
ATOM      5  C   UNL     1       1.400   4.819  20.201  0.00  0.00    +0.000 A 
ATOM      6  C   UNL     1       1.434   3.799  21.155  0.00  0.00    +0.000 A 
ATOM      7  C   UNL     1       2.522   2.942  21.194  0.00  0.00    +0.000 A 
ATOM      8  C   UNL     1       3.580   3.100  20.306  0.00  0.00    +0.000 A 
ATOM      9  C   UNL     1       3.575   4.148  19.365  0.00  0.00    +0.000 A 
ATOM     10  C   UNL     1       4.809   4.366  18.499  0.00  0.00    +0.000 C 
ATOM     11  C   UNL     1       5.936   4.907  19.404  0.00  0.00    +0.000 C 
ENDROOT
BRANCH   7  12
ATOM     12  O   UNL     1       2.605   1.930  22.104  0.00  0.00    +0.000 OA
ATOM     13  H   UNL     1       1.841   1.991  22.699  0.00  0.00    +0.000 HD
ENDBRANCH   7  12
BRANCH   1  14
ATOM     14  N   UNL     1       5.793   5.635  16.475  0.00  0.00    +0.000 NA
BRANCH  14  15
ATOM     15  C   UNL     1       5.677   5.309  15.037  0.00  0.00    +0.000 C 
BRANCH  15  17
ATOM     16  C   UNL     1       6.090   3.690  13.088  0.00  0.00    +0.000 C 
ATOM     17  C   UNL     1       6.354   4.012  14.552  0.00  0.00    +0.000 C 
ENDBRANCH  15  17
ENDBRANCH  14  15
BRANCH  14  18
ATOM     18  C   UNL     1       6.251   7.025  16.705  0.00  0.00    +0.000 C 
BRANCH  18  19
ATOM     19  C   UNL     1       7.603   7.201  17.416  0.00  0.00    +0.000 C 
ATOM     20  C   UNL     1       7.896   8.671  17.712  0.00  0.00    +0.000 C 
ENDBRANCH  18  19
ENDBRANCH  14  18
ENDBRANCH   1  14
TORSDOF 6
ENDMDL
MODEL 2
REMARK VINA RESULT:      -6.9      1.393      1.582
REMARK  Name = 
REMARK  9 active torsions:
REMARK  status: ('A' for Active; 'I' for Inactive)
REMARK    1  A    between atoms: C_1  and  C_2
REMARK    2  A    between atoms: C_2  and  C_3
REMARK    3  A    between atoms: C_3  and  N_4
REMARK    4  A    between atoms: N_4  and  C_5
REMARK    5  A    between atoms: N_4  and  C_8
REMARK    6  A    between atoms: C_5  and  C_6
REMARK    7  A    between atoms: C_6  and  C_7
REMARK    8  A    between atoms: C_14  and  O_15
REMARK    9  A    between atoms: C_18  and  C_19
REMARK                            x       y       z     vdW  Elec       q    Type
REMARK                         _______ _______ _______ _____ _____    ______ ____
ROOT
ATOM      1  C   UNL     1       5.100   4.065  17.498  0.00  0.00    +0.000 C 
ATOM      2  C   UNL     1       3.878   4.468  16.638  0.00  0.00    +0.000 C 
ATOM      3  C   UNL     1       2.693   3.532  16.868  0.00  0.00    +0.000 C 
ATOM      4  C   UNL     1       2.374   3.296  18.317  0.00  0.00    +0.000 A 
ATOM      5  C   UNL     1       1.106   2.799  18.665  0.00  0.00    +0.000 A 
ATOM      6  C   UNL     1       0.785   2.522  19.995  0.00  0.00    +0.000 A 
ATOM      7  C   UNL     1       1.746   2.708  20.978  0.00  0.00    +0.000 A 
ATOM      8  C   UNL     1       3.012   3.181  20.650  0.00  0.00    +0.000 A 
ATOM      9  C   UNL     1       3.334   3.500  19.317  0.00  0.00    +0.000 A 
ATOM     10  C   UNL     1       4.685   4.137  19.017  0.00  0.00    +0.000 C 
ATOM     11  C   UNL     1       4.667   5.575  19.575  0.00  0.00    +0.000 C 
ENDROOT
BRANCH   7  12
ATOM     12  O   UNL     1       1.486   2.453  22.291  0.00  0.00    +0.000 OA
ATOM     13  H   UNL     1       0.534   2.292  22.389  0.00  0.00    +0.000 HD
ENDBRANCH   7  12
BRANCH   1  14
ATOM     14  N   UNL     1       6.340   4.850  17.166  0.00  0.00    +0.000 NA
BRANCH  14  15
ATOM     15  C   UNL     1       7.114   4.214  16.078  0.00  0.00    +0.000 C 
BRANCH  15  17
ATOM     16  C   UNL     1       6.135   3.902  13.725  0.00  0.00    +0.000 C 
ATOM     17  C   UNL     1       6.942   4.792  14.660  0.00  0.00    +0.000 C 
ENDBRANCH  15  17
ENDBRANCH  14  15
BRANCH  14  18
ATOM     18  C   UNL     1       6.097   6.290  16.921  0.00  0.00    +0.000 C 
BRANCH  18  19
ATOM     19  C   UNL     1       7.185   7.267  17.393  0.00  0.00    +0.000 C 
ATOM     20  C   UNL     1       7.969   6.708  18.578  0.00  0.00    +0.000 C 
ENDBRANCH  18  19
ENDBRANCH  14  18
ENDBRANCH   1  14
TORSDOF 6
ENDMDL
MODEL 3
REMARK VINA RESULT:      -6.8      1.492      3.077
REMARK  Name = 
REMARK  9 active torsions:
REMARK  status: ('A' for Active; 'I' for Inactive)
REMARK    1  A    between atoms: C_1  and  C_2
REMARK    2  A    between atoms: C_2  and  C_3
REMARK    3  A    between atoms: C_3  and  N_4
REMARK    4  A    between atoms: N_4  and  C_5
REMARK    5  A    between atoms: N_4  and  C_8
REMARK    6  A    between atoms: C_5  and  C_6
REMARK    7  A    between atoms: C_6  and  C_7
REMARK    8  A    between atoms: C_14  and  O_15
REMARK    9  A    between atoms: C_18  and  C_19
REMARK                            x       y       z     vdW  Elec       q    Type
REMARK                         _______ _______ _______ _____ _____    ______ ____
ROOT
ATOM      1  C   UNL     1       5.132   3.986  17.588  0.00  0.00    +0.000 C 
ATOM      2  C   UNL     1       3.935   4.184  16.626  0.00  0.00    +0.000 C 
ATOM      3  C   UNL     1       2.811   3.190  16.912  0.00  0.00    +0.000 C 
ATOM      4  C   UNL     1       2.427   3.105  18.363  0.00  0.00    +0.000 A 
ATOM      5  C   UNL     1       1.180   2.553  18.707  0.00  0.00    +0.000 A 
ATOM      6  C   UNL     1       0.805   2.413  20.045  0.00  0.00    +0.000 A 
ATOM      7  C   UNL     1       1.690   2.792  21.042  0.00  0.00    +0.000 A 
ATOM      8  C   UNL     1       2.935   3.322  20.720  0.00  0.00    +0.000 A 
ATOM      9  C   UNL     1       3.309   3.504  19.374  0.00  0.00    +0.000 A 
ATOM     10  C   UNL     1       4.625   4.206  19.064  0.00  0.00    +0.000 C 
ATOM     11  C   UNL     1       4.468   5.695  19.437  0.00  0.00    +0.000 C 
ENDROOT
BRANCH   7  12
ATOM     12  O   UNL     1       1.374   2.676  22.363  0.00  0.00    +0.000 OA
ATOM     13  H   UNL     1       0.898   1.840  22.490  0.00  0.00    +0.000 HD
ENDBRANCH   7  12
BRANCH   1  14
ATOM     14  N   UNL     1       6.327   4.823  17.221  0.00  0.00    +0.000 NA
BRANCH  14  15
ATOM     15  C   UNL     1       7.228   5.023  18.378  0.00  0.00    +0.000 C 
BRANCH  15  17
ATOM     16  C   UNL     1       7.357   7.448  17.546  0.00  0.00    +0.000 C 
ATOM     17  C   UNL     1       7.871   6.413  18.537  0.00  0.00    +0.000 C 
ENDBRANCH  15  17
ENDBRANCH  14  15
BRANCH  14  18
ATOM     18  C   UNL     1       7.048   4.354  16.016  0.00  0.00    +0.000 C 
BRANCH  18  19
ATOM     19  C   UNL     1       6.631   4.974  14.673  0.00  0.00    +0.000 C 
ATOM     20  C   UNL     1       6.170   3.910  13.680  0.00  0.00    +0.000 C 
ENDBRANCH  18  19
ENDBRANCH  14  18
ENDBRANCH   1  14
TORSDOF 6
ENDMDL
MODEL 4
REMARK VINA RESULT:      -6.7      1.611      1.801
REMARK  Name = 
REMARK  9 active torsions:
REMARK  status: ('A' for Active; 'I' for Inactive)
REMARK    1  A    between atoms: C_1  and  C_2
REMARK    2  A    between atoms: C_2  and  C_3
REMARK    3  A    between atoms: C_3  and  N_4
REMARK    4  A    between atoms: N_4  and  C_5
REMARK    5  A    between atoms: N_4  and  C_8
REMARK    6  A    between atoms: C_5  and  C_6
REMARK    7  A    between atoms: C_6  and  C_7
REMARK    8  A    between atoms: C_14  and  O_15
REMARK    9  A    between atoms: C_18  and  C_19
REMARK                            x       y       z     vdW  Elec       q    Type
REMARK                         _______ _______ _______ _____ _____    ______ ____
ROOT
ATOM      1  C   UNL     1       4.328   5.823  17.475  0.00  0.00    +0.000 C 
ATOM      2  C   UNL     1       4.319   6.263  18.958  0.00  0.00    +0.000 C 
ATOM      3  C   UNL     1       2.927   6.136  19.576  0.00  0.00    +0.000 C 
ATOM      4  C   UNL     1       2.267   4.811  19.324  0.00  0.00    +0.000 A 
ATOM      5  C   UNL     1       1.194   4.416  20.142  0.00  0.00    +0.000 A 
ATOM      6  C   UNL     1       0.522   3.214  19.912  0.00  0.00    +0.000 A 
ATOM      7  C   UNL     1       0.900   2.420  18.840  0.00  0.00    +0.000 A 
ATOM      8  C   UNL     1       1.946   2.804  18.009  0.00  0.00    +0.000 A 
ATOM      9  C   UNL     1       2.656   3.995  18.254  0.00  0.00    +0.000 A 
ATOM     10  C   UNL     1       3.877   4.315  17.400  0.00  0.00    +0.000 C 
ATOM     11  C   UNL     1       4.997   3.325  17.783  0.00  0.00    +0.000 C 
ENDROOT
BRANCH   7  12
ATOM     12  O   UNL     1       0.278   1.237  18.570  0.00  0.00    +0.000 OA
ATOM     13  H   UNL     1      -0.356   1.383  17.850  0.00  0.00    +0.000 HD
ENDBRANCH   7  12
BRANCH   1  14
ATOM     14  N   UNL     1       5.635   6.104  16.784  0.00  0.00    +0.000 NA
BRANCH  14  15
ATOM     15  C   UNL     1       5.550   5.846  15.330  0.00  0.00    +0.000 C 
BRANCH  15  17
ATOM     16  C   UNL     1       6.053   3.905  13.727  0.00  0.00    +0.000 C 
ATOM     17  C   UNL     1       6.615   4.917  14.716  0.00  0.00    +0.000 C 
ENDBRANCH  15  17
ENDBRANCH  14  15
BRANCH  14  18
ATOM     18  C   UNL     1       6.209   7.434  17.091  0.00  0.00    +0.000 C 
BRANCH  18  19
ATOM     19  C   UNL     1       7.634   7.459  17.667  0.00  0.00    +0.000 C 
ATOM     20  C   UNL     1       7.880   6.286  18.614  0.00  0.00    +0.000 C 
ENDBRANCH  18  19
ENDBRANCH  14  18
ENDBRANCH   1  14
TORSDOF 6
ENDMDL
MODEL 5
REMARK VINA RESULT:      -6.6      1.912      3.659
REMARK  Name = 
REMARK  9 active torsions:
REMARK  status: ('A' for Active; 'I' for Inactive)
REMARK    1  A    between atoms: C_1  and  C_2
REMARK    2  A    between atoms: C_2  and  C_3
REMARK    3  A    between atoms: C_3  and  N_4
REMARK    4  A    between atoms: N_4  and  C_5
REMARK    5  A    between atoms: N_4  and  C_8
REMARK    6  A    between atoms: C_5  and  C_6
REMARK    7  A    between atoms: C_6  and  C_7
REMARK    8  A    between atoms: C_14  and  O_15
REMARK    9  A    between atoms: C_18  and  C_19
REMARK                            x       y       z     vdW  Elec       q    Type
REMARK                         _______ _______ _______ _____ _____    ______ ____
ROOT
ATOM      1  C   UNL     1       5.068   4.289  17.353  0.00  0.00    +0.000 C 
ATOM      2  C   UNL     1       3.913   3.449  16.756  0.00  0.00    +0.000 C 
ATOM      3  C   UNL     1       2.932   2.992  17.835  0.00  0.00    +0.000 C 
ATOM      4  C   UNL     1       2.481   4.092  18.755  0.00  0.00    +0.000 A 
ATOM      5  C   UNL     1       1.311   3.910  19.513  0.00  0.00    +0.000 A 
ATOM      6  C   UNL     1       0.883   4.887  20.414  0.00  0.00    +0.000 A 
ATOM      7  C   UNL     1       1.644   6.033  20.584  0.00  0.00    +0.000 A 
ATOM      8  C   UNL     1       2.814   6.221  19.857  0.00  0.00    +0.000 A 
ATOM      9  C   UNL     1       3.235   5.261  18.917  0.00  0.00    +0.000 A 
ATOM     10  C   UNL     1       4.450   5.562  18.048  0.00  0.00    +0.000 C 
ATOM     11  C   UNL     1       4.055   6.669  17.048  0.00  0.00    +0.000 C 
ENDROOT
BRANCH   7  12
ATOM     12  O   UNL     1       1.273   7.018  21.451  0.00  0.00    +0.000 OA
ATOM     13  H   UNL     1       1.083   6.611  22.311  0.00  0.00    +0.000 HD
ENDBRANCH   7  12
BRANCH   1  14
ATOM     14  N   UNL     1       6.147   4.603  16.353  0.00  0.00    +0.000 NA
BRANCH  14  15
ATOM     15  C   UNL     1       7.466   4.759  17.004  0.00  0.00    +0.000 C 
BRANCH  15  17
ATOM     16  C   UNL     1       7.861   5.767  19.332  0.00  0.00    +0.000 C 
ATOM     17  C   UNL     1       7.693   6.032  17.842  0.00  0.00    +0.000 C 
ENDBRANCH  15  17
ENDBRANCH  14  15
BRANCH  14  18
ATOM     18  C   UNL     1       6.191   3.677  15.198  0.00  0.00    +0.000 C 
BRANCH  18  19
ATOM     19  C   UNL     1       6.527   4.290  13.830  0.00  0.00    +0.000 C 
ATOM     20  C   UNL     1       5.880   3.509  12.688  0.00  0.00    +0.000 C 
ENDBRANCH  18  19
ENDBRANCH  14  18
ENDBRANCH   1  14
TORSDOF 6
ENDMDL
MODEL 6
REMARK VINA RESULT:      -6.6      3.012      6.222
REMARK  Name = 
REMARK  9 active torsions:
REMARK  status: ('A' for Active; 'I' for Inactive)
REMARK    1  A    between atoms: C_1  and  C_2
REMARK    2  A    between atoms: C_2  and  C_3
REMARK    3  A    between atoms: C_3  and  N_4
REMARK    4  A    between atoms: N_4  and  C_5
REMARK    5  A    between atoms: N_4  and  C_8
REMARK    6  A    between atoms: C_5  and  C_6
REMARK    7  A    between atoms: C_6  and  C_7
REMARK    8  A    between atoms: C_14  and  O_15
REMARK    9  A    between atoms: C_18  and  C_19
REMARK                            x       y       z     vdW  Elec       q    Type
REMARK                         _______ _______ _______ _____ _____    ______ ____
ROOT
ATOM      1  C   UNL     1       3.712   5.396  18.273  0.00  0.00    +0.000 C 
ATOM      2  C   UNL     1       3.571   3.865  18.093  0.00  0.00    +0.000 C 
ATOM      3  C   UNL     1       3.761   3.449  16.635  0.00  0.00    +0.000 C 
ATOM      4  C   UNL     1       4.985   4.034  15.989  0.00  0.00    +0.000 A 
ATOM      5  C   UNL     1       5.490   3.438  14.820  0.00  0.00    +0.000 A 
ATOM      6  C   UNL     1       6.597   3.978  14.162  0.00  0.00    +0.000 A 
ATOM      7  C   UNL     1       7.180   5.136  14.653  0.00  0.00    +0.000 A 
ATOM      8  C   UNL     1       6.682   5.749  15.797  0.00  0.00    +0.000 A 
ATOM      9  C   UNL     1       5.591   5.192  16.491  0.00  0.00    +0.000 A 
ATOM     10  C   UNL     1       5.158   5.820  17.810  0.00  0.00    +0.000 C 
ATOM     11  C   UNL     1       6.246   5.516  18.861  0.00  0.00    +0.000 C 
ENDROOT
BRANCH   7  12
ATOM     12  O   UNL     1       8.262   5.705  14.050  0.00  0.00    +0.000 OA
ATOM     13  H   UNL     1       8.010   6.591  13.744  0.00  0.00    +0.000 HD
ENDBRANCH   7  12
BRANCH   1  14
ATOM     14  N   UNL     1       3.353   5.862  19.657  0.00  0.00    +0.000 NA
BRANCH  14  15
ATOM     15  C   UNL     1       2.502   7.072  19.622  0.00  0.00    +0.000 C 
BRANCH  15  17
ATOM     16  C   UNL     1       2.063   9.077  18.080  0.00  0.00    +0.000 C 
ATOM     17  C   UNL     1       2.033   7.563  18.239  0.00  0.00    +0.000 C 
ENDBRANCH  15  17
ENDBRANCH  14  15
BRANCH  14  18
ATOM     18  C   UNL     1       2.795   4.803  20.529  0.00  0.00    +0.000 C 
BRANCH  18  19
ATOM     19  C   UNL     1       1.263   4.699  20.602  0.00  0.00    +0.000 C 
ATOM     20  C   UNL     1       0.775   3.300  20.230  0.00  0.00    +0.000 C 
ENDBRANCH  18  19
ENDBRANCH  14  18
ENDBRANCH   1  14
TORSDOF 6
ENDMDL
MODEL 7
REMARK VINA RESULT:      -6.5      3.009      6.456
REMARK  Name = 
REMARK  9 active torsions:
REMARK  status: ('A' for Active; 'I' for Inactive)
REMARK    1  A    between atoms: C_1  and  C_2
REMARK    2  A    between atoms: C_2  and  C_3
REMARK    3  A    between atoms: C_3  and  N_4
REMARK    4  A    between atoms: N_4  and  C_5
REMARK    5  A    between atoms: N_4  and  C_8
REMARK    6  A    between atoms: C_5  and  C_6
REMARK    7  A    between atoms: C_6  and  C_7
REMARK    8  A    between atoms: C_14  and  O_15
REMARK    9  A    between atoms: C_18  and  C_19
REMARK                            x       y       z     vdW  Elec       q    Type
REMARK                         _______ _______ _______ _____ _____    ______ ____
ROOT
ATOM      1  C   UNL     1       3.106   5.385  18.492  0.00  0.00    +0.000 C 
ATOM      2  C   UNL     1       2.961   3.857  18.296  0.00  0.00    +0.000 C 
ATOM      3  C   UNL     1       3.245   3.443  16.853  0.00  0.00    +0.000 C 
ATOM      4  C   UNL     1       4.516   4.017  16.293  0.00  0.00    +0.000 A 
ATOM      5  C   UNL     1       5.092   3.420  15.158  0.00  0.00    +0.000 A 
ATOM      6  C   UNL     1       6.247   3.950  14.579  0.00  0.00    +0.000 A 
ATOM      7  C   UNL     1       6.807   5.100  15.113  0.00  0.00    +0.000 A 
ATOM      8  C   UNL     1       6.240   5.714  16.223  0.00  0.00    +0.000 A 
ATOM      9  C   UNL     1       5.098   5.167  16.840  0.00  0.00    +0.000 A 
ATOM     10  C   UNL     1       4.584   5.795  18.129  0.00  0.00    +0.000 C 
ATOM     11  C   UNL     1       5.596   5.475  19.250  0.00  0.00    +0.000 C 
ENDROOT
BRANCH   7  12
ATOM     12  O   UNL     1       7.933   5.659  14.586  0.00  0.00    +0.000 OA
ATOM     13  H   UNL     1       8.702   5.298  15.056  0.00  0.00    +0.000 HD
ENDBRANCH   7  12
BRANCH   1  14
ATOM     14  N   UNL     1       2.659   5.851  19.851  0.00  0.00    +0.000 NA
BRANCH  14  15
ATOM     15  C   UNL     1       2.214   7.261  19.825  0.00  0.00    +0.000 C 
BRANCH  15  17
ATOM     16  C   UNL     1       0.938   9.210  20.904  0.00  0.00    +0.000 C 
ATOM     17  C   UNL     1       1.307   7.734  20.977  0.00  0.00    +0.000 C 
ENDBRANCH  15  17
ENDBRANCH  14  15
BRANCH  14  18
ATOM     18  C   UNL     1       1.674   4.958  20.504  0.00  0.00    +0.000 C 
BRANCH  18  19
ATOM     19  C   UNL     1       2.217   3.977  21.555  0.00  0.00    +0.000 C 
ATOM     20  C   UNL     1       1.468   2.646  21.524  0.00  0.00    +0.000 C 
ENDBRANCH  18  19
ENDBRANCH  14  18
ENDBRANCH   1  14
TORSDOF 6
ENDMDL
MODEL 8
REMARK VINA RESULT:      -6.5      0.502      2.687
REMARK  Name = 
REMARK  9 active torsions:
REMARK  status: ('A' for Active; 'I' for Inactive)
REMARK    1  A    between atoms: C_1  and  C_2
REMARK    2  A    between atoms: C_2  and  C_3
REMARK    3  A    between atoms: C_3  and  N_4
REMARK    4  A    between atoms: N_4  and  C_5
REMARK    5  A    between atoms: N_4  and  C_8
REMARK    6  A    between atoms: C_5  and  C_6
REMARK    7  A    between atoms: C_6  and  C_7
REMARK    8  A    between atoms: C_14  and  O_15
REMARK    9  A    between atoms: C_18  and  C_19
REMARK                            x       y       z     vdW  Elec       q    Type
REMARK                         _______ _______ _______ _____ _____    ______ ____
ROOT
ATOM      1  C   UNL     1       4.370   5.495  17.179  0.00  0.00    +0.000 C 
ATOM      2  C   UNL     1       3.464   6.649  17.671  0.00  0.00    +0.000 C 
ATOM      3  C   UNL     1       2.173   6.125  18.298  0.00  0.00    +0.000 C 
ATOM      4  C   UNL     1       2.385   5.036  19.311  0.00  0.00    +0.000 A 
ATOM      5  C   UNL     1       1.361   4.750  20.230  0.00  0.00    +0.000 A 
ATOM      6  C   UNL     1       1.499   3.715  21.157  0.00  0.00    +0.000 A 
ATOM      7  C   UNL     1       2.648   2.940  21.142  0.00  0.00    +0.000 A 
ATOM      8  C   UNL     1       3.663   3.196  20.227  0.00  0.00    +0.000 A 
ATOM      9  C   UNL     1       3.552   4.262  19.314  0.00  0.00    +0.000 A 
ATOM     10  C   UNL     1       4.739   4.590  18.417  0.00  0.00    +0.000 C 
ATOM     11  C   UNL     1       5.851   5.192  19.301  0.00  0.00    +0.000 C 
ENDROOT
BRANCH   7  12
ATOM     12  O   UNL     1       2.834   1.917  22.024  0.00  0.00    +0.000 OA
ATOM     13  H   UNL     1       2.176   2.003  22.733  0.00  0.00    +0.000 HD
ENDBRANCH   7  12
BRANCH   1  14
ATOM     14  N   UNL     1       5.562   5.973  16.397  0.00  0.00    +0.000 NA
BRANCH  14  15
ATOM     15  C   UNL     1       6.099   7.240  16.940  0.00  0.00    +0.000 C 
BRANCH  15  17
ATOM     16  C   UNL     1       8.066   8.607  17.864  0.00  0.00    +0.000 C 
ATOM     17  C   UNL     1       7.581   7.254  17.363  0.00  0.00    +0.000 C 
ENDBRANCH  15  17
ENDBRANCH  14  15
BRANCH  14  18
ATOM     18  C   UNL     1       6.614   4.948  16.207  0.00  0.00    +0.000 C 
BRANCH  18  19
ATOM     19  C   UNL     1       7.095   4.705  14.768  0.00  0.00    +0.000 C 
ATOM     20  C   UNL     1       6.059   3.937  13.950  0.00  0.00    +0.000 C 
ENDBRANCH  18  19
ENDBRANCH  14  18
ENDBRANCH   1  14
TORSDOF 6
ENDMDL
MODEL 9
REMARK VINA RESULT:      -6.4      1.670      3.135
REMARK  Name = 
REMARK  9 active torsions:
REMARK  status: ('A' for Active; 'I' for Inactive)
REMARK    1  A    between atoms: C_1  and  C_2
REMARK    2  A    between atoms: C_2  and  C_3
REMARK    3  A    between atoms: C_3  and  N_4
REMARK    4  A    between atoms: N_4  and  C_5
REMARK    5  A    between atoms: N_4  and  C_8
REMARK    6  A    between atoms: C_5  and  C_6
REMARK    7  A    between atoms: C_6  and  C_7
REMARK    8  A    between atoms: C_14  and  O_15
REMARK    9  A    between atoms: C_18  and  C_19
REMARK                            x       y       z     vdW  Elec       q    Type
REMARK                         _______ _______ _______ _____ _____    ______ ____
ROOT
ATOM      1  C   UNL     1       4.371   5.967  17.535  0.00  0.00    +0.000 C 
ATOM      2  C   UNL     1       4.508   6.200  19.059  0.00  0.00    +0.000 C 
ATOM      3  C   UNL     1       3.167   6.051  19.775  0.00  0.00    +0.000 C 
ATOM      4  C   UNL     1       2.416   4.802  19.409  0.00  0.00    +0.000 A 
ATOM      5  C   UNL     1       1.394   4.346  20.261  0.00  0.00    +0.000 A 
ATOM      6  C   UNL     1       0.641   3.217  19.934  0.00  0.00    +0.000 A 
ATOM      7  C   UNL     1       0.884   2.562  18.737  0.00  0.00    +0.000 A 
ATOM      8  C   UNL     1       1.877   3.010  17.874  0.00  0.00    +0.000 A 
ATOM      9  C   UNL     1       2.670   4.124  18.211  0.00  0.00    +0.000 A 
ATOM     10  C   UNL     1       3.832   4.504  17.301  0.00  0.00    +0.000 C 
ATOM     11  C   UNL     1       4.923   3.424  17.448  0.00  0.00    +0.000 C 
ENDROOT
BRANCH   7  12
ATOM     12  O   UNL     1       0.177   1.456  18.369  0.00  0.00    +0.000 OA
ATOM     13  H   UNL     1      -0.628   1.746  17.911  0.00  0.00    +0.000 HD
ENDBRANCH   7  12
BRANCH   1  14
ATOM     14  N   UNL     1       5.629   6.283  16.774  0.00  0.00    +0.000 NA
BRANCH  14  15
ATOM     15  C   UNL     1       6.829   5.755  17.460  0.00  0.00    +0.000 C 
BRANCH  15  17
ATOM     16  C   UNL     1       7.587   8.206  17.530  0.00  0.00    +0.000 C 
ATOM     17  C   UNL     1       7.834   6.783  18.013  0.00  0.00    +0.000 C 
ENDBRANCH  15  17
ENDBRANCH  14  15
BRANCH  14  18
ATOM     18  C   UNL     1       5.583   5.904  15.343  0.00  0.00    +0.000 C 
BRANCH  18  19
ATOM     19  C   UNL     1       6.702   4.982  14.832  0.00  0.00    +0.000 C 
ATOM     20  C   UNL     1       6.165   3.926  13.868  0.00  0.00    +0.000 C 
ENDBRANCH  18  19
ENDBRANCH  14  18
ENDBRANCH   1  14
TORSDOF 6
ENDMDL
