MODEL 1
REMARK VINA RESULT:      -8.5      0.000      0.000
REMARK  Name = 
REMARK  8 active torsions:
REMARK  status: ('A' for Active; 'I' for Inactive)
REMARK    1  A    between atoms: C_1  and  O_2
REMARK    2  A    between atoms: O_2  and  C_3
REMARK    3  A    between atoms: C_5  and  N_6
REMARK    4  A    between atoms: N_6  and  S_7
REMARK    5  A    between atoms: S_7  and  C_10
REMARK    6  A    between atoms: C_19  and  C_20
REMARK    7  A    between atoms: C_29  and  O_30
REMARK    8  A    between atoms: O_30  and  C_31
REMARK                            x       y       z     vdW  Elec       q    Type
REMARK                         _______ _______ _______ _____ _____    ______ ____
ROOT
ATOM      1  C   UNL     1       6.016   6.284  16.777  0.00  0.00    +0.000 A 
ATOM      2  C   UNL     1       5.019   6.953  17.502  0.00  0.00    +0.000 A 
ATOM      3  C   UNL     1       3.857   6.308  17.945  0.00  0.00    +0.000 A 
ATOM      4  C   UNL     1       3.612   4.998  17.515  0.00  0.00    +0.000 A 
ATOM      5  C   UNL     1       4.581   4.356  16.721  0.00  0.00    +0.000 A 
ATOM      6  C   UNL     1       5.787   4.970  16.362  0.00  0.00    +0.000 A 
ENDROOT
BRANCH   4   7
ATOM      7  C   UNL     1       2.420   4.172  17.837  0.00  0.00    +0.000 C 
ATOM      8  O   UNL     1       1.390   4.410  17.196  0.00  0.00    +0.000 OA
ATOM      9  N   UNL     1       2.443   3.211  18.850  0.00  0.00    +0.000 N 
ATOM     10  C   UNL     1       1.259   2.365  19.011  0.00  0.00    +0.000 C 
ATOM     11  C   UNL     1       0.467   2.779  20.250  0.00  0.00    +0.000 C 
ATOM     12  C   UNL     1       1.362   2.744  21.486  0.00  0.00    +0.000 C 
ATOM     13  C   UNL     1       2.601   3.613  21.275  0.00  0.00    +0.000 C 
ATOM     14  C   UNL     1       3.348   3.220  19.998  0.00  0.00    +0.000 C 
ENDBRANCH   4   7
BRANCH   1  16
ATOM     15  C   UNL     1       7.657   7.865  17.402  0.00  0.00    +0.000 C 
ATOM     16  O   UNL     1       7.190   6.911  16.449  0.00  0.00    +0.000 OA
ENDBRANCH   1  16
BRANCH   3  17
ATOM     17  N   UNL     1       3.010   7.030  18.847  0.00  0.00    +0.000 N 
ATOM     18  H   UNL     1       2.559   6.510  19.600  0.00  0.00    +0.000 HD
BRANCH  17  19
ATOM     19  S   UNL     1       1.997   8.253  18.258  0.00  0.00    +0.000 S 
ATOM     20  O   UNL     1       2.854   9.292  17.727  0.00  0.00    +0.000 OA
ATOM     21  O   UNL     1       0.979   7.637  17.436  0.00  0.00    +0.000 OA
BRANCH  19  22
ATOM     22  C   UNL     1       1.183   8.938  19.665  0.00  0.00    +0.000 A 
ATOM     23  C   UNL     1       1.442   8.435  20.961  0.00  0.00    +0.000 A 
ATOM     24  C   UNL     1       0.849   8.970  22.132  0.00  0.00    +0.000 A 
ATOM     25  C   UNL     1      -0.051  10.047  22.111  0.00  0.00    +0.000 A 
ATOM     26  C   UNL     1      -0.359  10.578  20.835  0.00  0.00    +0.000 A 
ATOM     27  N   UNL     1      -1.163  11.625  20.604  0.00  0.00    +0.000 NA
ATOM     28  S   UNL     1      -1.198  11.843  18.960  0.00  0.00    +0.000 S 
ATOM     29  N   UNL     1      -0.129  10.667  18.469  0.00  0.00    +0.000 NA
ATOM     30  C   UNL     1       0.261  10.008  19.574  0.00  0.00    +0.000 A 
ENDBRANCH  19  22
ENDBRANCH  17  19
ENDBRANCH   3  17
BRANCH   6  31
ATOM     31  O   UNL     1       6.590   4.145  15.628  0.00  0.00    +0.000 OA
ATOM     32  C   UNL     1       6.361   4.006  14.235  0.00  0.00    +0.000 C 
ENDBRANCH   6  31
TORSDOF 6
ENDMDL
MODEL 2
REMARK VINA RESULT:      -7.2      1.459      1.703
REMARK  Name = 
REMARK  8 active torsions:
REMARK  status: ('A' for Active; 'I' for Inactive)
REMARK    1  A    between atoms: C_1  and  O_2
REMARK    2  A    between atoms: O_2  and  C_3
REMARK    3  A    between atoms: C_5  and  N_6
REMARK    4  A    between atoms: N_6  and  S_7
REMARK    5  A    between atoms: S_7  and  C_10
REMARK    6  A    between atoms: C_19  and  C_20
REMARK    7  A    between atoms: C_29  and  O_30
REMARK    8  A    between atoms: O_30  and  C_31
REMARK                            x       y       z     vdW  Elec       q    Type
REMARK                         _______ _______ _______ _____ _____    ______ ____
ROOT
ATOM      1  C   UNL     1       5.822   6.771  17.040  0.00  0.00    +0.000 A 
ATOM      2  C   UNL     1       4.722   7.462  17.569  0.00  0.00    +0.000 A 
ATOM      3  C   UNL     1       3.554   6.804  17.976  0.00  0.00    +0.000 A 
ATOM      4  C   UNL     1       3.423   5.437  17.703  0.00  0.00    +0.000 A 
ATOM      5  C   UNL     1       4.502   4.763  17.099  0.00  0.00    +0.000 A 
ATOM      6  C   UNL     1       5.705   5.404  16.782  0.00  0.00    +0.000 A 
ENDROOT
BRANCH   4   7
ATOM      7  C   UNL     1       2.248   4.583  18.013  0.00  0.00    +0.000 C 
ATOM      8  O   UNL     1       1.173   4.907  17.493  0.00  0.00    +0.000 OA
ATOM      9  N   UNL     1       2.336   3.501  18.891  0.00  0.00    +0.000 N 
ATOM     10  C   UNL     1       1.155   2.648  19.040  0.00  0.00    +0.000 C 
ATOM     11  C   UNL     1       0.471   2.905  20.381  0.00  0.00    +0.000 C 
ATOM     12  C   UNL     1       1.462   2.708  21.526  0.00  0.00    +0.000 C 
ATOM     13  C   UNL     1       2.693   3.591  21.327  0.00  0.00    +0.000 C 
ATOM     14  C   UNL     1       3.330   3.359  19.954  0.00  0.00    +0.000 C 
ENDBRANCH   4   7
BRANCH   1  16
ATOM     15  C   UNL     1       7.828   7.705  17.869  0.00  0.00    +0.000 C 
ATOM     16  O   UNL     1       6.990   7.426  16.748  0.00  0.00    +0.000 OA
ENDBRANCH   1  16
BRANCH   3  17
ATOM     17  N   UNL     1       2.581   7.579  18.688  0.00  0.00    +0.000 N 
ATOM     18  H   UNL     1       1.993   7.099  19.370  0.00  0.00    +0.000 HD
BRANCH  17  19
ATOM     19  S   UNL     1       1.715   8.791  17.883  0.00  0.00    +0.000 S 
ATOM     20  O   UNL     1       2.612   9.372  16.906  0.00  0.00    +0.000 OA
ATOM     21  O   UNL     1       0.436   8.245  17.486  0.00  0.00    +0.000 OA
BRANCH  19  22
ATOM     22  C   UNL     1       1.394  10.045  19.082  0.00  0.00    +0.000 A 
ATOM     23  C   UNL     1       1.629  11.406  18.780  0.00  0.00    +0.000 A 
ATOM     24  C   UNL     1       1.353  12.460  19.687  0.00  0.00    +0.000 A 
ATOM     25  C   UNL     1       0.824  12.247  20.969  0.00  0.00    +0.000 A 
ATOM     26  C   UNL     1       0.586  10.899  21.330  0.00  0.00    +0.000 A 
ATOM     27  N   UNL     1       0.052  10.489  22.489  0.00  0.00    +0.000 NA
ATOM     28  S   UNL     1      -0.011   8.833  22.423  0.00  0.00    +0.000 S 
ATOM     29  N   UNL     1       0.562   8.562  20.885  0.00  0.00    +0.000 NA
ATOM     30  C   UNL     1       0.886   9.762  20.372  0.00  0.00    +0.000 A 
ENDBRANCH  19  22
ENDBRANCH  17  19
ENDBRANCH   3  17
BRANCH   6  31
ATOM     31  O   UNL     1       6.622   4.545  16.246  0.00  0.00    +0.000 OA
ATOM     32  C   UNL     1       6.878   4.579  14.851  0.00  0.00    +0.000 C 
ENDBRANCH   6  31
TORSDOF 6
ENDMDL
MODEL 3
REMARK VINA RESULT:      -6.9      1.543      1.907
REMARK  Name = 
REMARK  8 active torsions:
REMARK  status: ('A' for Active; 'I' for Inactive)
REMARK    1  A    between atoms: C_1  and  O_2
REMARK    2  A    between atoms: O_2  and  C_3
REMARK    3  A    between atoms: C_5  and  N_6
REMARK    4  A    between atoms: N_6  and  S_7
REMARK    5  A    between atoms: S_7  and  C_10
REMARK    6  A    between atoms: C_19  and  C_20
REMARK    7  A    between atoms: C_29  and  O_30
REMARK    8  A    between atoms: O_30  and  C_31
REMARK                            x       y       z     vdW  Elec       q    Type
REMARK                         _______ _______ _______ _____ _____    ______ ____
ROOT
ATOM      1  C   UNL     1       6.423   6.165  16.868  0.00  0.00    +0.000 A 
ATOM      2  C   UNL     1       5.444   6.672  17.735  0.00  0.00    +0.000 A 
ATOM      3  C   UNL     1       4.351   5.905  18.158  0.00  0.00    +0.000 A 
ATOM      4  C   UNL     1       4.148   4.648  17.575  0.00  0.00    +0.000 A 
ATOM      5  C   UNL     1       5.094   4.174  16.645  0.00  0.00    +0.000 A 
ATOM      6  C   UNL     1       6.237   4.904  16.298  0.00  0.00    +0.000 A 
ENDROOT
BRANCH   4   7
ATOM      7  C   UNL     1       3.028   3.714  17.857  0.00  0.00    +0.000 C 
ATOM      8  O   UNL     1       2.097   3.702  17.043  0.00  0.00    +0.000 OA
ATOM      9  N   UNL     1       2.997   2.928  19.011  0.00  0.00    +0.000 N 
ATOM     10  C   UNL     1       1.914   1.952  19.140  0.00  0.00    +0.000 C 
ATOM     11  C   UNL     1       0.883   2.426  20.163  0.00  0.00    +0.000 C 
ATOM     12  C   UNL     1       1.558   2.706  21.504  0.00  0.00    +0.000 C 
ATOM     13  C   UNL     1       2.701   3.705  21.329  0.00  0.00    +0.000 C 
ATOM     14  C   UNL     1       3.692   3.239  20.259  0.00  0.00    +0.000 C 
ENDBRANCH   4   7
BRANCH   1  16
ATOM     15  C   UNL     1       7.839   7.962  17.461  0.00  0.00    +0.000 C 
ATOM     16  O   UNL     1       7.536   6.901  16.555  0.00  0.00    +0.000 OA
ENDBRANCH   1  16
BRANCH   3  17
ATOM     17  N   UNL     1       3.530   6.451  19.198  0.00  0.00    +0.000 N 
ATOM     18  H   UNL     1       3.669   6.106  20.148  0.00  0.00    +0.000 HD
BRANCH  17  19
ATOM     19  S   UNL     1       1.895   6.774  18.899  0.00  0.00    +0.000 S 
ATOM     20  O   UNL     1       1.681   6.591  17.478  0.00  0.00    +0.000 OA
ATOM     21  O   UNL     1       1.107   6.048  19.870  0.00  0.00    +0.000 OA
BRANCH  19  22
ATOM     22  C   UNL     1       1.666   8.492  19.226  0.00  0.00    +0.000 A 
ATOM     23  C   UNL     1       1.914   9.456  18.222  0.00  0.00    +0.000 A 
ATOM     24  C   UNL     1       1.711  10.845  18.413  0.00  0.00    +0.000 A 
ATOM     25  C   UNL     1       1.246  11.391  19.619  0.00  0.00    +0.000 A 
ATOM     26  C   UNL     1       0.997  10.472  20.666  0.00  0.00    +0.000 A 
ATOM     27  N   UNL     1       0.516  10.786  21.877  0.00  0.00    +0.000 NA
ATOM     28  S   UNL     1       0.412   9.366  22.729  0.00  0.00    +0.000 S 
ATOM     29  N   UNL     1       0.897   8.275  21.572  0.00  0.00    +0.000 NA
ATOM     30  C   UNL     1       1.221   8.983  20.477  0.00  0.00    +0.000 A 
ENDBRANCH  19  22
ENDBRANCH  17  19
ENDBRANCH   3  17
BRANCH   6  31
ATOM     31  O   UNL     1       7.032   4.231  15.414  0.00  0.00    +0.000 OA
ATOM     32  C   UNL     1       6.828   4.405  14.021  0.00  0.00    +0.000 C 
ENDBRANCH   6  31
TORSDOF 6
ENDMDL
MODEL 4
REMARK VINA RESULT:      -6.8      1.360      1.550
REMARK  Name = 
REMARK  8 active torsions:
REMARK  status: ('A' for Active; 'I' for Inactive)
REMARK    1  A    between atoms: C_1  and  O_2
REMARK    2  A    between atoms: O_2  and  C_3
REMARK    3  A    between atoms: C_5  and  N_6
REMARK    4  A    between atoms: N_6  and  S_7
REMARK    5  A    between atoms: S_7  and  C_10
REMARK    6  A    between atoms: C_19  and  C_20
REMARK    7  A    between atoms: C_29  and  O_30
REMARK    8  A    between atoms: O_30  and  C_31
REMARK                            x       y       z     vdW  Elec       q    Type
REMARK                         _______ _______ _______ _____ _____    ______ ____
ROOT
ATOM      1  C   UNL     1       5.551   6.590  16.812  0.00  0.00    +0.000 A 
ATOM      2  C   UNL     1       4.350   7.164  17.255  0.00  0.00    +0.000 A 
ATOM      3  C   UNL     1       3.264   6.389  17.681  0.00  0.00    +0.000 A 
ATOM      4  C   UNL     1       3.324   5.000  17.512  0.00  0.00    +0.000 A 
ATOM      5  C   UNL     1       4.504   4.433  16.994  0.00  0.00    +0.000 A 
ATOM      6  C   UNL     1       5.624   5.203  16.660  0.00  0.00    +0.000 A 
ENDROOT
BRANCH   4   7
ATOM      7  C   UNL     1       2.260   4.022  17.857  0.00  0.00    +0.000 C 
ATOM      8  O   UNL     1       1.193   4.122  17.239  0.00  0.00    +0.000 OA
ATOM      9  N   UNL     1       2.432   3.072  18.865  0.00  0.00    +0.000 N 
ATOM     10  C   UNL     1       1.375   2.076  19.049  0.00  0.00    +0.000 C 
ATOM     11  C   UNL     1       0.562   2.380  20.306  0.00  0.00    +0.000 C 
ATOM     12  C   UNL     1       1.481   2.463  21.523  0.00  0.00    +0.000 C 
ATOM     13  C   UNL     1       2.588   3.490  21.288  0.00  0.00    +0.000 C 
ATOM     14  C   UNL     1       3.353   3.201  19.994  0.00  0.00    +0.000 C 
ENDBRANCH   4   7
BRANCH   1  16
ATOM     15  C   UNL     1       7.560   7.578  17.568  0.00  0.00    +0.000 C 
ATOM     16  O   UNL     1       6.633   7.371  16.502  0.00  0.00    +0.000 OA
ENDBRANCH   1  16
BRANCH   3  17
ATOM     17  N   UNL     1       2.171   7.077  18.302  0.00  0.00    +0.000 N 
ATOM     18  H   UNL     1       1.961   8.024  17.986  0.00  0.00    +0.000 HD
BRANCH  17  19
ATOM     19  S   UNL     1       1.912   6.919  19.968  0.00  0.00    +0.000 S 
ATOM     20  O   UNL     1       0.888   5.910  20.142  0.00  0.00    +0.000 OA
ATOM     21  O   UNL     1       3.200   6.791  20.614  0.00  0.00    +0.000 OA
BRANCH  19  22
ATOM     22  C   UNL     1       1.213   8.446  20.505  0.00  0.00    +0.000 A 
ATOM     23  C   UNL     1       0.524   8.529  21.737  0.00  0.00    +0.000 A 
ATOM     24  C   UNL     1      -0.024   9.735  22.240  0.00  0.00    +0.000 A 
ATOM     25  C   UNL     1       0.064  10.958  21.557  0.00  0.00    +0.000 A 
ATOM     26  C   UNL     1       0.729  10.929  20.307  0.00  0.00    +0.000 A 
ATOM     27  N   UNL     1       0.950  11.992  19.521  0.00  0.00    +0.000 NA
ATOM     28  S   UNL     1       1.754  11.433  18.182  0.00  0.00    +0.000 S 
ATOM     29  N   UNL     1       1.930   9.826  18.575  0.00  0.00    +0.000 NA
ATOM     30  C   UNL     1       1.311   9.642  19.755  0.00  0.00    +0.000 A 
ENDBRANCH  19  22
ENDBRANCH  17  19
ENDBRANCH   3  17
BRANCH   6  31
ATOM     31  O   UNL     1       6.665   4.438  16.219  0.00  0.00    +0.000 OA
ATOM     32  C   UNL     1       6.781   4.146  14.837  0.00  0.00    +0.000 C 
ENDBRANCH   6  31
TORSDOF 6
ENDMDL
MODEL 5
REMARK VINA RESULT:      -6.8      1.744      2.167
REMARK  Name = 
REMARK  8 active torsions:
REMARK  status: ('A' for Active; 'I' for Inactive)
REMARK    1  A    between atoms: C_1  and  O_2
REMARK    2  A    between atoms: O_2  and  C_3
REMARK    3  A    between atoms: C_5  and  N_6
REMARK    4  A    between atoms: N_6  and  S_7
REMARK    5  A    between atoms: S_7  and  C_10
REMARK    6  A    between atoms: C_19  and  C_20
REMARK    7  A    between atoms: C_29  and  O_30
REMARK    8  A    between atoms: O_30  and  C_31
REMARK                            x       y       z     vdW  Elec       q    Type
REMARK                         _______ _______ _______ _____ _____    ______ ____
ROOT
ATOM      1  C   UNL     1       6.455   6.500  16.957  0.00  0.00    +0.000 A 
ATOM      2  C   UNL     1       5.154   7.016  17.045  0.00  0.00    +0.000 A 
ATOM      3  C   UNL     1       4.047   6.206  17.329  0.00  0.00    +0.000 A 
ATOM      4  C   UNL     1       4.225   4.818  17.371  0.00  0.00    +0.000 A 
ATOM      5  C   UNL     1       5.524   4.298  17.204  0.00  0.00    +0.000 A 
ATOM      6  C   UNL     1       6.643   5.118  17.018  0.00  0.00    +0.000 A 
ENDROOT
BRANCH   4   7
ATOM      7  C   UNL     1       3.171   3.798  17.609  0.00  0.00    +0.000 C 
ATOM      8  O   UNL     1       2.281   3.710  16.755  0.00  0.00    +0.000 OA
ATOM      9  N   UNL     1       3.151   3.017  18.766  0.00  0.00    +0.000 N 
ATOM     10  C   UNL     1       2.143   1.958  18.854  0.00  0.00    +0.000 C 
ATOM     11  C   UNL     1       1.033   2.352  19.826  0.00  0.00    +0.000 C 
ATOM     12  C   UNL     1       1.623   2.689  21.194  0.00  0.00    +0.000 C 
ATOM     13  C   UNL     1       2.690   3.776  21.064  0.00  0.00    +0.000 C 
ATOM     14  C   UNL     1       3.761   3.386  20.042  0.00  0.00    +0.000 C 
ENDBRANCH   4   7
BRANCH   1  16
ATOM     15  C   UNL     1       7.726   8.299  17.814  0.00  0.00    +0.000 C 
ATOM     16  O   UNL     1       7.532   7.331  16.783  0.00  0.00    +0.000 OA
ENDBRANCH   1  16
BRANCH   3  17
ATOM     17  N   UNL     1       2.804   6.865  17.597  0.00  0.00    +0.000 N 
ATOM     18  H   UNL     1       2.581   7.703  17.060  0.00  0.00    +0.000 HD
BRANCH  17  19
ATOM     19  S   UNL     1       2.245   6.996  19.190  0.00  0.00    +0.000 S 
ATOM     20  O   UNL     1       1.125   6.087  19.321  0.00  0.00    +0.000 OA
ATOM     21  O   UNL     1       3.384   6.904  20.077  0.00  0.00    +0.000 OA
BRANCH  19  22
ATOM     22  C   UNL     1       1.593   8.627  19.351  0.00  0.00    +0.000 A 
ATOM     23  C   UNL     1       1.623   9.524  18.259  0.00  0.00    +0.000 A 
ATOM     24  C   UNL     1       1.080  10.832  18.315  0.00  0.00    +0.000 A 
ATOM     25  C   UNL     1       0.466  11.357  19.463  0.00  0.00    +0.000 A 
ATOM     26  C   UNL     1       0.424  10.505  20.593  0.00  0.00    +0.000 A 
ATOM     27  N   UNL     1      -0.149  10.802  21.768  0.00  0.00    +0.000 NA
ATOM     28  S   UNL     1       0.077   9.486  22.752  0.00  0.00    +0.000 S 
ATOM     29  N   UNL     1       0.843   8.445  21.706  0.00  0.00    +0.000 NA
ATOM     30  C   UNL     1       1.010   9.107  20.548  0.00  0.00    +0.000 A 
ENDBRANCH  19  22
ENDBRANCH  17  19
ENDBRANCH   3  17
BRANCH   6  31
ATOM     31  O   UNL     1       7.800   4.399  16.923  0.00  0.00    +0.000 OA
ATOM     32  C   UNL     1       8.606   4.219  18.076  0.00  0.00    +0.000 C 
ENDBRANCH   6  31
TORSDOF 6
ENDMDL
MODEL 6
REMARK VINA RESULT:      -6.7      3.860      9.265
REMARK  Name = 
REMARK  8 active torsions:
REMARK  status: ('A' for Active; 'I' for Inactive)
REMARK    1  A    between atoms: C_1  and  O_2
REMARK    2  A    between atoms: O_2  and  C_3
REMARK    3  A    between atoms: C_5  and  N_6
REMARK    4  A    between atoms: N_6  and  S_7
REMARK    5  A    between atoms: S_7  and  C_10
REMARK    6  A    between atoms: C_19  and  C_20
REMARK    7  A    between atoms: C_29  and  O_30
REMARK    8  A    between atoms: O_30  and  C_31
REMARK                            x       y       z     vdW  Elec       q    Type
REMARK                         _______ _______ _______ _____ _____    ______ ____
ROOT
ATOM      1  C   UNL     1      -2.362  10.472  17.683  0.00  0.00    +0.000 A 
ATOM      2  C   UNL     1      -1.063  10.335  18.195  0.00  0.00    +0.000 A 
ATOM      3  C   UNL     1      -0.650  10.984  19.365  0.00  0.00    +0.000 A 
ATOM      4  C   UNL     1      -1.510  11.920  19.953  0.00  0.00    +0.000 A 
ATOM      5  C   UNL     1      -2.786  12.112  19.388  0.00  0.00    +0.000 A 
ATOM      6  C   UNL     1      -3.232  11.389  18.275  0.00  0.00    +0.000 A 
ENDROOT
BRANCH   4   7
ATOM      7  C   UNL     1      -1.232  12.739  21.161  0.00  0.00    +0.000 C 
ATOM      8  O   UNL     1      -1.788  12.389  22.208  0.00  0.00    +0.000 OA
ATOM      9  N   UNL     1      -0.429  13.879  21.108  0.00  0.00    +0.000 N 
ATOM     10  C   UNL     1      -0.116  14.550  22.371  0.00  0.00    +0.000 C 
ATOM     11  C   UNL     1      -0.908  15.850  22.500  0.00  0.00    +0.000 C 
ATOM     12  C   UNL     1      -0.643  16.752  21.297  0.00  0.00    +0.000 C 
ATOM     13  C   UNL     1      -0.952  16.014  19.995  0.00  0.00    +0.000 C 
ATOM     14  C   UNL     1      -0.193  14.687  19.912  0.00  0.00    +0.000 C 
ENDBRANCH   4   7
BRANCH   1  16
ATOM     15  C   UNL     1      -2.782  10.450  15.357  0.00  0.00    +0.000 C 
ATOM     16  O   UNL     1      -2.771   9.742  16.597  0.00  0.00    +0.000 OA
ENDBRANCH   1  16
BRANCH   3  17
ATOM     17  N   UNL     1       0.624  10.612  19.906  0.00  0.00    +0.000 N 
ATOM     18  H   UNL     1       1.457  10.818  19.354  0.00  0.00    +0.000 HD
BRANCH  17  19
ATOM     19  S   UNL     1       0.791   9.147  20.739  0.00  0.00    +0.000 S 
ATOM     20  O   UNL     1       1.613   9.413  21.901  0.00  0.00    +0.000 OA
ATOM     21  O   UNL     1      -0.521   8.554  20.875  0.00  0.00    +0.000 OA
BRANCH  19  22
ATOM     22  C   UNL     1       1.731   8.088  19.687  0.00  0.00    +0.000 A 
ATOM     23  C   UNL     1       2.282   8.577  18.480  0.00  0.00    +0.000 A 
ATOM     24  C   UNL     1       3.079   7.787  17.615  0.00  0.00    +0.000 A 
ATOM     25  C   UNL     1       3.390   6.443  17.876  0.00  0.00    +0.000 A 
ATOM     26  C   UNL     1       2.848   5.896  19.064  0.00  0.00    +0.000 A 
ATOM     27  N   UNL     1       3.057   4.650  19.511  0.00  0.00    +0.000 NA
ATOM     28  S   UNL     1       2.206   4.504  20.927  0.00  0.00    +0.000 S 
ATOM     29  N   UNL     1       1.596   6.044  21.081  0.00  0.00    +0.000 NA
ATOM     30  C   UNL     1       1.987   6.730  19.993  0.00  0.00    +0.000 A 
ENDBRANCH  19  22
ENDBRANCH  17  19
ENDBRANCH   3  17
BRANCH   6  31
ATOM     31  O   UNL     1      -4.514  11.710  17.930  0.00  0.00    +0.000 OA
ATOM     32  C   UNL     1      -5.576  10.855  18.320  0.00  0.00    +0.000 C 
ENDBRANCH   6  31
TORSDOF 6
ENDMDL
MODEL 7
REMARK VINA RESULT:      -6.5      3.629      8.806
REMARK  Name = 
REMARK  8 active torsions:
REMARK  status: ('A' for Active; 'I' for Inactive)
REMARK    1  A    between atoms: C_1  and  O_2
REMARK    2  A    between atoms: O_2  and  C_3
REMARK    3  A    between atoms: C_5  and  N_6
REMARK    4  A    between atoms: N_6  and  S_7
REMARK    5  A    between atoms: S_7  and  C_10
REMARK    6  A    between atoms: C_19  and  C_20
REMARK    7  A    between atoms: C_29  and  O_30
REMARK    8  A    between atoms: O_30  and  C_31
REMARK                            x       y       z     vdW  Elec       q    Type
REMARK                         _______ _______ _______ _____ _____    ______ ____
ROOT
ATOM      1  C   UNL     1      -2.352  10.325  17.846  0.00  0.00    +0.000 A 
ATOM      2  C   UNL     1      -1.092   9.747  18.059  0.00  0.00    +0.000 A 
ATOM      3  C   UNL     1      -0.172  10.278  18.973  0.00  0.00    +0.000 A 
ATOM      4  C   UNL     1      -0.457  11.510  19.574  0.00  0.00    +0.000 A 
ATOM      5  C   UNL     1      -1.693  12.126  19.296  0.00  0.00    +0.000 A 
ATOM      6  C   UNL     1      -2.651  11.545  18.458  0.00  0.00    +0.000 A 
ENDROOT
BRANCH   4   7
ATOM      7  C   UNL     1       0.410  12.251  20.526  0.00  0.00    +0.000 C 
ATOM      8  O   UNL     1       0.152  12.121  21.728  0.00  0.00    +0.000 OA
ATOM      9  N   UNL     1       1.431  13.096  20.087  0.00  0.00    +0.000 N 
ATOM     10  C   UNL     1       2.307  13.687  21.099  0.00  0.00    +0.000 C 
ATOM     11  C   UNL     1       1.986  15.168  21.291  0.00  0.00    +0.000 C 
ATOM     12  C   UNL     1       2.081  15.906  19.957  0.00  0.00    +0.000 C 
ATOM     13  C   UNL     1       1.177  15.247  18.915  0.00  0.00    +0.000 C 
ATOM     14  C   UNL     1       1.476  13.752  18.781  0.00  0.00    +0.000 C 
ENDBRANCH   4   7
BRANCH   1  16
ATOM     15  C   UNL     1      -2.947   9.735  15.637  0.00  0.00    +0.000 C 
ATOM     16  O   UNL     1      -3.272   9.726  17.027  0.00  0.00    +0.000 OA
ENDBRANCH   1  16
BRANCH   3  17
ATOM     17  N   UNL     1       0.993   9.495  19.259  0.00  0.00    +0.000 N 
ATOM     18  H   UNL     1       1.434   8.992  18.488  0.00  0.00    +0.000 HD
BRANCH  17  19
ATOM     19  S   UNL     1       1.077   8.602  20.696  0.00  0.00    +0.000 S 
ATOM     20  O   UNL     1       2.063   9.248  21.538  0.00  0.00    +0.000 OA
ATOM     21  O   UNL     1      -0.272   8.379  21.167  0.00  0.00    +0.000 OA
BRANCH  19  22
ATOM     22  C   UNL     1       1.740   7.027  20.259  0.00  0.00    +0.000 A 
ATOM     23  C   UNL     1       1.386   5.870  20.989  0.00  0.00    +0.000 A 
ATOM     24  C   UNL     1       1.854   4.573  20.661  0.00  0.00    +0.000 A 
ATOM     25  C   UNL     1       2.717   4.320  19.583  0.00  0.00    +0.000 A 
ATOM     26  C   UNL     1       3.118   5.448  18.828  0.00  0.00    +0.000 A 
ATOM     27  N   UNL     1       3.904   5.416  17.743  0.00  0.00    +0.000 NA
ATOM     28  S   UNL     1       4.077   6.986  17.235  0.00  0.00    +0.000 S 
ATOM     29  N   UNL     1       3.095   7.773  18.323  0.00  0.00    +0.000 NA
ATOM     30  C   UNL     1       2.631   6.843  19.175  0.00  0.00    +0.000 A 
ENDBRANCH  19  22
ENDBRANCH  17  19
ENDBRANCH   3  17
BRANCH   6  31
ATOM     31  O   UNL     1      -3.787  12.298  18.370  0.00  0.00    +0.000 OA
ATOM     32  C   UNL     1      -4.904  11.974  19.181  0.00  0.00    +0.000 C 
ENDBRANCH   6  31
TORSDOF 6
ENDMDL
MODEL 8
REMARK VINA RESULT:      -6.5      5.372      9.142
REMARK  Name = 
REMARK  8 active torsions:
REMARK  status: ('A' for Active; 'I' for Inactive)
REMARK    1  A    between atoms: C_1  and  O_2
REMARK    2  A    between atoms: O_2  and  C_3
REMARK    3  A    between atoms: C_5  and  N_6
REMARK    4  A    between atoms: N_6  and  S_7
REMARK    5  A    between atoms: S_7  and  C_10
REMARK    6  A    between atoms: C_19  and  C_20
REMARK    7  A    between atoms: C_29  and  O_30
REMARK    8  A    between atoms: O_30  and  C_31
REMARK                            x       y       z     vdW  Elec       q    Type
REMARK                         _______ _______ _______ _____ _____    ______ ____
ROOT
ATOM      1  C   UNL     1      -1.420  10.385  17.947  0.00  0.00    +0.000 A 
ATOM      2  C   UNL     1      -2.063  11.401  18.670  0.00  0.00    +0.000 A 
ATOM      3  C   UNL     1      -1.359  12.296  19.485  0.00  0.00    +0.000 A 
ATOM      4  C   UNL     1       0.005  12.071  19.708  0.00  0.00    +0.000 A 
ATOM      5  C   UNL     1       0.630  11.001  19.040  0.00  0.00    +0.000 A 
ATOM      6  C   UNL     1      -0.056  10.167  18.149  0.00  0.00    +0.000 A 
ENDROOT
BRANCH   4   7
ATOM      7  C   UNL     1       0.903  12.877  20.574  0.00  0.00    +0.000 C 
ATOM      8  O   UNL     1       0.606  12.946  21.772  0.00  0.00    +0.000 OA
ATOM      9  N   UNL     1       1.998  13.571  20.054  0.00  0.00    +0.000 N 
ATOM     10  C   UNL     1       2.893  14.237  21.002  0.00  0.00    +0.000 C 
ATOM     11  C   UNL     1       2.684  15.750  20.966  0.00  0.00    +0.000 C 
ATOM     12  C   UNL     1       2.870  16.275  19.544  0.00  0.00    +0.000 C 
ATOM     13  C   UNL     1       1.944  15.540  18.576  0.00  0.00    +0.000 C 
ATOM     14  C   UNL     1       2.128  14.024  18.670  0.00  0.00    +0.000 C 
ENDBRANCH   4   7
BRANCH   1  16
ATOM     15  C   UNL     1      -2.650  10.262  15.932  0.00  0.00    +0.000 C 
ATOM     16  O   UNL     1      -2.119   9.591  17.074  0.00  0.00    +0.000 OA
ENDBRANCH   1  16
BRANCH   3  17
ATOM     17  N   UNL     1      -2.086  13.414  20.010  0.00  0.00    +0.000 N 
ATOM     18  H   UNL     1      -1.665  14.339  19.928  0.00  0.00    +0.000 HD
BRANCH  17  19
ATOM     19  S   UNL     1      -2.937  13.258  21.466  0.00  0.00    +0.000 S 
ATOM     20  O   UNL     1      -2.465  12.046  22.104  0.00  0.00    +0.000 OA
ATOM     21  O   UNL     1      -2.888  14.529  22.155  0.00  0.00    +0.000 OA
BRANCH  19  22
ATOM     22  C   UNL     1      -4.621  12.973  21.024  0.00  0.00    +0.000 A 
ATOM     23  C   UNL     1      -5.005  12.903  19.665  0.00  0.00    +0.000 A 
ATOM     24  C   UNL     1      -6.334  12.638  19.248  0.00  0.00    +0.000 A 
ATOM     25  C   UNL     1      -7.390  12.424  20.147  0.00  0.00    +0.000 A 
ATOM     26  C   UNL     1      -7.063  12.501  21.522  0.00  0.00    +0.000 A 
ATOM     27  N   UNL     1      -7.916  12.292  22.535  0.00  0.00    +0.000 NA
ATOM     28  S   UNL     1      -7.052  12.504  23.935  0.00  0.00    +0.000 S 
ATOM     29  N   UNL     1      -5.533  12.793  23.321  0.00  0.00    +0.000 NA
ATOM     30  C   UNL     1      -5.647  12.794  21.981  0.00  0.00    +0.000 A 
ENDBRANCH  19  22
ENDBRANCH  17  19
ENDBRANCH   3  17
BRANCH   6  31
ATOM     31  O   UNL     1       0.760   9.227  17.587  0.00  0.00    +0.000 OA
ATOM     32  C   UNL     1       2.056   9.018  18.123  0.00  0.00    +0.000 C 
ENDBRANCH   6  31
TORSDOF 6
ENDMDL
MODEL 9
REMARK VINA RESULT:      -6.5      4.175      9.672
REMARK  Name = 
REMARK  8 active torsions:
REMARK  status: ('A' for Active; 'I' for Inactive)
REMARK    1  A    between atoms: C_1  and  O_2
REMARK    2  A    between atoms: O_2  and  C_3
REMARK    3  A    between atoms: C_5  and  N_6
REMARK    4  A    between atoms: N_6  and  S_7
REMARK    5  A    between atoms: S_7  and  C_10
REMARK    6  A    between atoms: C_19  and  C_20
REMARK    7  A    between atoms: C_29  and  O_30
REMARK    8  A    between atoms: O_30  and  C_31
REMARK                            x       y       z     vdW  Elec       q    Type
REMARK                         _______ _______ _______ _____ _____    ______ ____
ROOT
ATOM      1  C   UNL     1      -2.646  11.452  18.552  0.00  0.00    +0.000 A 
ATOM      2  C   UNL     1      -1.330  11.249  18.996  0.00  0.00    +0.000 A 
ATOM      3  C   UNL     1      -0.915  11.606  20.285  0.00  0.00    +0.000 A 
ATOM      4  C   UNL     1      -1.796  12.326  21.099  0.00  0.00    +0.000 A 
ATOM      5  C   UNL     1      -3.092  12.596  20.618  0.00  0.00    +0.000 A 
ATOM      6  C   UNL     1      -3.536  12.153  19.367  0.00  0.00    +0.000 A 
ENDROOT
BRANCH   4   7
ATOM      7  C   UNL     1      -1.521  12.831  22.469  0.00  0.00    +0.000 C 
ATOM      8  O   UNL     1      -1.184  11.992  23.313  0.00  0.00    +0.000 OA
ATOM      9  N   UNL     1      -1.688  14.176  22.806  0.00  0.00    +0.000 N 
ATOM     10  C   UNL     1      -1.277  14.598  24.146  0.00  0.00    +0.000 C 
ATOM     11  C   UNL     1      -2.498  14.849  25.029  0.00  0.00    +0.000 C 
ATOM     12  C   UNL     1      -3.424  15.871  24.371  0.00  0.00    +0.000 C 
ATOM     13  C   UNL     1      -3.811  15.415  22.964  0.00  0.00    +0.000 C 
ATOM     14  C   UNL     1      -2.574  15.112  22.115  0.00  0.00    +0.000 C 
ENDBRANCH   4   7
BRANCH   1  16
ATOM     15  C   UNL     1      -2.204  10.018  16.726  0.00  0.00    +0.000 C 
ATOM     16  O   UNL     1      -3.053  10.997  17.325  0.00  0.00    +0.000 OA
ENDBRANCH   1  16
BRANCH   3  17
ATOM     17  N   UNL     1       0.386  11.168  20.698  0.00  0.00    +0.000 N 
ATOM     18  H   UNL     1       1.191  11.480  20.154  0.00  0.00    +0.000 HD
BRANCH  17  19
ATOM     19  S   UNL     1       0.604   9.585  21.258  0.00  0.00    +0.000 S 
ATOM     20  O   UNL     1       1.542   9.652  22.360  0.00  0.00    +0.000 OA
ATOM     21  O   UNL     1      -0.700   8.982  21.427  0.00  0.00    +0.000 OA
BRANCH  19  22
ATOM     22  C   UNL     1       1.415   8.710  19.958  0.00  0.00    +0.000 A 
ATOM     23  C   UNL     1       1.759   9.367  18.755  0.00  0.00    +0.000 A 
ATOM     24  C   UNL     1       2.445   8.729  17.691  0.00  0.00    +0.000 A 
ATOM     25  C   UNL     1       2.843   7.384  17.736  0.00  0.00    +0.000 A 
ATOM     26  C   UNL     1       2.507   6.672  18.913  0.00  0.00    +0.000 A 
ATOM     27  N   UNL     1       2.828   5.396  19.166  0.00  0.00    +0.000 NA
ATOM     28  S   UNL     1       2.206   5.038  20.661  0.00  0.00    +0.000 S 
ATOM     29  N   UNL     1       1.569   6.512  21.093  0.00  0.00    +0.000 NA
ATOM     30  C   UNL     1       1.764   7.342  20.054  0.00  0.00    +0.000 A 
ENDBRANCH  19  22
ENDBRANCH  17  19
ENDBRANCH   3  17
BRANCH   6  31
ATOM     31  O   UNL     1      -4.838  12.492  19.131  0.00  0.00    +0.000 OA
ATOM     32  C   UNL     1      -5.863  11.544  19.382  0.00  0.00    +0.000 C 
ENDBRANCH   6  31
TORSDOF 6
ENDMDL
