MODEL 1
REMARK VINA RESULT:      -7.3      0.000      0.000
REMARK  Name = 
REMARK  6 active torsions:
REMARK  status: ('A' for Active; 'I' for Inactive)
REMARK    1  A    between atoms: C_1  and  C_2
REMARK    2  A    between atoms: C_2  and  C_3
REMARK    3  A    between atoms: C_9  and  C_10
REMARK    4  A    between atoms: C_13  and  O_14
REMARK    5  A    between atoms: O_14  and  C_15
REMARK    6  A    between atoms: C_21  and  C_22
REMARK                            x       y       z     vdW  Elec       q    Type
REMARK                         _______ _______ _______ _____ _____    ______ ____
ROOT
ATOM      1  C   UNL     1       0.374  10.140  20.025  0.00  0.00    +0.000 C 
ATOM      2  C   UNL     1       1.396   9.321  19.255  0.00  0.00    +0.000 C 
ATOM      3  O   UNL     1       1.922   9.684  18.216  0.00  0.00    +0.000 OA
ATOM      4  N   UNL     1       1.506   8.132  19.982  0.00  0.00    +0.000 N 
ATOM      5  C   UNL     1       2.274   7.063  19.560  0.00  0.00    +0.000 A 
ATOM      6  N   UNL     1       2.955   6.949  18.440  0.00  0.00    +0.000 NA
ATOM      7  C   UNL     1       3.579   5.712  18.379  0.00  0.00    +0.000 A 
ATOM      8  C   UNL     1       3.377   4.908  19.484  0.00  0.00    +0.000 A 
ATOM      9  S   UNL     1       2.354   5.695  20.602  0.00  0.00    +0.000 S 
ATOM     10  N   UNL     1       0.838   8.146  21.192  0.00  0.00    +0.000 NA
ATOM     11  C   UNL     1       0.246   9.296  21.267  0.00  0.00    +0.000 C 
ATOM     12  C   UNL     1      -0.439   9.754  22.510  0.00  0.00    +0.000 C 
ENDROOT
BRANCH   7  13
ATOM     13  C   UNL     1       4.413   5.325  17.247  0.00  0.00    +0.000 A 
ATOM     14  C   UNL     1       4.753   3.980  17.058  0.00  0.00    +0.000 A 
ATOM     15  C   UNL     1       5.520   3.590  15.955  0.00  0.00    +0.000 A 
ATOM     16  C   UNL     1       5.957   4.533  15.025  0.00  0.00    +0.000 A 
ATOM     17  C   UNL     1       5.656   5.880  15.223  0.00  0.00    +0.000 A 
ATOM     18  C   UNL     1       4.889   6.272  16.327  0.00  0.00    +0.000 A 
BRANCH  16  19
ATOM     19  O   UNL     1       6.702   4.037  13.991  0.00  0.00    +0.000 OA
ATOM     20  C   UNL     1       5.968   3.611  12.849  0.00  0.00    +0.000 C 
ENDBRANCH  16  19
ENDBRANCH   7  13
BRANCH   1  22
ATOM     21  C   UNL     1      -1.624  11.553  19.230  0.00  0.00    +0.000 C 
ATOM     22  C   UNL     1      -0.895  10.223  19.173  0.00  0.00    +0.000 C 
ENDBRANCH   1  22
TORSDOF 3
ENDMDL
MODEL 2
REMARK VINA RESULT:      -7.2      0.400      1.102
REMARK  Name = 
REMARK  6 active torsions:
REMARK  status: ('A' for Active; 'I' for Inactive)
REMARK    1  A    between atoms: C_1  and  C_2
REMARK    2  A    between atoms: C_2  and  C_3
REMARK    3  A    between atoms: C_9  and  C_10
REMARK    4  A    between atoms: C_13  and  O_14
REMARK    5  A    between atoms: O_14  and  C_15
REMARK    6  A    between atoms: C_21  and  C_22
REMARK                            x       y       z     vdW  Elec       q    Type
REMARK                         _______ _______ _______ _____ _____    ______ ____
ROOT
ATOM      1  C   UNL     1       0.414  10.538  19.637  0.00  0.00    +0.000 C 
ATOM      2  C   UNL     1       1.414   9.642  18.927  0.00  0.00    +0.000 C 
ATOM      3  O   UNL     1       1.960   9.924  17.874  0.00  0.00    +0.000 OA
ATOM      4  N   UNL     1       1.479   8.495  19.725  0.00  0.00    +0.000 N 
ATOM      5  C   UNL     1       2.213   7.377  19.375  0.00  0.00    +0.000 A 
ATOM      6  N   UNL     1       2.899   7.175  18.270  0.00  0.00    +0.000 NA
ATOM      7  C   UNL     1       3.481   5.916  18.289  0.00  0.00    +0.000 A 
ATOM      8  C   UNL     1       3.244   5.187  19.438  0.00  0.00    +0.000 A 
ATOM      9  S   UNL     1       2.240   6.073  20.497  0.00  0.00    +0.000 S 
ATOM     10  N   UNL     1       0.803   8.603  20.925  0.00  0.00    +0.000 NA
ATOM     11  C   UNL     1       0.249   9.775  20.926  0.00  0.00    +0.000 C 
ATOM     12  C   UNL     1      -0.430  10.329  22.133  0.00  0.00    +0.000 C 
ENDROOT
BRANCH   7  13
ATOM     13  C   UNL     1       4.311   5.435  17.189  0.00  0.00    +0.000 A 
ATOM     14  C   UNL     1       4.854   6.346  16.276  0.00  0.00    +0.000 A 
ATOM     15  C   UNL     1       5.683   5.903  15.240  0.00  0.00    +0.000 A 
ATOM     16  C   UNL     1       5.982   4.547  15.100  0.00  0.00    +0.000 A 
ATOM     17  C   UNL     1       5.416   3.627  15.982  0.00  0.00    +0.000 A 
ATOM     18  C   UNL     1       4.586   4.070  17.019  0.00  0.00    +0.000 A 
BRANCH  16  19
ATOM     19  O   UNL     1       6.799   4.231  14.049  0.00  0.00    +0.000 OA
ATOM     20  C   UNL     1       6.160   3.630  12.929  0.00  0.00    +0.000 C 
ENDBRANCH  16  19
ENDBRANCH   7  13
BRANCH   1  22
ATOM     21  C   UNL     1      -1.498  11.980  18.695  0.00  0.00    +0.000 C 
ATOM     22  C   UNL     1      -0.845  10.611  18.770  0.00  0.00    +0.000 C 
ENDBRANCH   1  22
TORSDOF 3
ENDMDL
MODEL 3
REMARK VINA RESULT:      -7.0      2.944      8.485
REMARK  Name = 
REMARK  6 active torsions:
REMARK  status: ('A' for Active; 'I' for Inactive)
REMARK    1  A    between atoms: C_1  and  C_2
REMARK    2  A    between atoms: C_2  and  C_3
REMARK    3  A    between atoms: C_9  and  C_10
REMARK    4  A    between atoms: C_13  and  O_14
REMARK    5  A    between atoms: O_14  and  C_15
REMARK    6  A    between atoms: C_21  and  C_22
REMARK                            x       y       z     vdW  Elec       q    Type
REMARK                         _______ _______ _______ _____ _____    ______ ____
ROOT
ATOM      1  C   UNL     1       3.409   3.535  19.469  0.00  0.00    +0.000 C 
ATOM      2  C   UNL     1       2.838   4.789  20.107  0.00  0.00    +0.000 C 
ATOM      3  O   UNL     1       2.439   4.851  21.257  0.00  0.00    +0.000 OA
ATOM      4  N   UNL     1       2.853   5.738  19.080  0.00  0.00    +0.000 N 
ATOM      5  C   UNL     1       2.319   7.005  19.221  0.00  0.00    +0.000 A 
ATOM      6  N   UNL     1       1.687   7.504  20.262  0.00  0.00    +0.000 NA
ATOM      7  C   UNL     1       1.288   8.807  20.003  0.00  0.00    +0.000 A 
ATOM      8  C   UNL     1       1.654   9.288  18.761  0.00  0.00    +0.000 A 
ATOM      9  S   UNL     1       2.476   8.076  17.883  0.00  0.00    +0.000 S 
ATOM     10  N   UNL     1       3.510   5.323  17.937  0.00  0.00    +0.000 NA
ATOM     11  C   UNL     1       3.890   4.104  18.159  0.00  0.00    +0.000 C 
ATOM     12  C   UNL     1       4.785   3.371  17.218  0.00  0.00    +0.000 C 
ENDROOT
BRANCH   7  13
ATOM     13  C   UNL     1       0.575   9.605  20.995  0.00  0.00    +0.000 A 
ATOM     14  C   UNL     1       0.180  10.913  20.685  0.00  0.00    +0.000 A 
ATOM     15  C   UNL     1      -0.538  11.675  21.612  0.00  0.00    +0.000 A 
ATOM     16  C   UNL     1      -0.874  11.146  22.859  0.00  0.00    +0.000 A 
ATOM     17  C   UNL     1      -0.454   9.859  23.191  0.00  0.00    +0.000 A 
ATOM     18  C   UNL     1       0.265   9.095  22.264  0.00  0.00    +0.000 A 
BRANCH  16  19
ATOM     19  O   UNL     1      -1.574  11.984  23.683  0.00  0.00    +0.000 OA
ATOM     20  C   UNL     1      -2.930  12.218  23.320  0.00  0.00    +0.000 C 
ENDBRANCH  16  19
ENDBRANCH   7  13
BRANCH   1  22
ATOM     21  C   UNL     1       1.090   2.968  18.509  0.00  0.00    +0.000 C 
ATOM     22  C   UNL     1       2.273   2.515  19.344  0.00  0.00    +0.000 C 
ENDBRANCH   1  22
TORSDOF 3
ENDMDL
MODEL 4
REMARK VINA RESULT:      -7.0      1.050      1.137
REMARK  Name = 
REMARK  6 active torsions:
REMARK  status: ('A' for Active; 'I' for Inactive)
REMARK    1  A    between atoms: C_1  and  C_2
REMARK    2  A    between atoms: C_2  and  C_3
REMARK    3  A    between atoms: C_9  and  C_10
REMARK    4  A    between atoms: C_13  and  O_14
REMARK    5  A    between atoms: O_14  and  C_15
REMARK    6  A    between atoms: C_21  and  C_22
REMARK                            x       y       z     vdW  Elec       q    Type
REMARK                         _______ _______ _______ _____ _____    ______ ____
ROOT
ATOM      1  C   UNL     1       0.367  11.299  19.155  0.00  0.00    +0.000 C 
ATOM      2  C   UNL     1       1.344  10.272  18.610  0.00  0.00    +0.000 C 
ATOM      3  O   UNL     1       1.986  10.415  17.583  0.00  0.00    +0.000 OA
ATOM      4  N   UNL     1       1.262   9.204  19.509  0.00  0.00    +0.000 N 
ATOM      5  C   UNL     1       1.933   8.010  19.319  0.00  0.00    +0.000 A 
ATOM      6  N   UNL     1       2.680   7.657  18.295  0.00  0.00    +0.000 NA
ATOM      7  C   UNL     1       3.161   6.368  18.472  0.00  0.00    +0.000 A 
ATOM      8  C   UNL     1       2.785   5.768  19.658  0.00  0.00    +0.000 A 
ATOM      9  S   UNL     1       1.776   6.818  20.551  0.00  0.00    +0.000 S 
ATOM     10  N   UNL     1       0.510   9.472  20.636  0.00  0.00    +0.000 NA
ATOM     11  C   UNL     1       0.049  10.673  20.489  0.00  0.00    +0.000 C 
ATOM     12  C   UNL     1      -0.673  11.384  21.584  0.00  0.00    +0.000 C 
ENDROOT
BRANCH   7  13
ATOM     13  C   UNL     1       4.030   5.729  17.490  0.00  0.00    +0.000 A 
ATOM     14  C   UNL     1       4.141   4.333  17.461  0.00  0.00    +0.000 A 
ATOM     15  C   UNL     1       4.940   3.706  16.499  0.00  0.00    +0.000 A 
ATOM     16  C   UNL     1       5.638   4.458  15.554  0.00  0.00    +0.000 A 
ATOM     17  C   UNL     1       5.563   5.850  15.597  0.00  0.00    +0.000 A 
ATOM     18  C   UNL     1       4.764   6.479  16.560  0.00  0.00    +0.000 A 
BRANCH  16  19
ATOM     19  O   UNL     1       6.389   3.737  14.667  0.00  0.00    +0.000 OA
ATOM     20  C   UNL     1       5.982   3.815  13.305  0.00  0.00    +0.000 C 
ENDBRANCH  16  19
ENDBRANCH   7  13
BRANCH   1  22
ATOM     21  C   UNL     1      -1.547  10.068  17.954  0.00  0.00    +0.000 C 
ATOM     22  C   UNL     1      -0.816  11.378  18.187  0.00  0.00    +0.000 C 
ENDBRANCH   1  22
TORSDOF 3
ENDMDL
MODEL 5
REMARK VINA RESULT:      -6.9      2.824      8.494
REMARK  Name = 
REMARK  6 active torsions:
REMARK  status: ('A' for Active; 'I' for Inactive)
REMARK    1  A    between atoms: C_1  and  C_2
REMARK    2  A    between atoms: C_2  and  C_3
REMARK    3  A    between atoms: C_9  and  C_10
REMARK    4  A    between atoms: C_13  and  O_14
REMARK    5  A    between atoms: O_14  and  C_15
REMARK    6  A    between atoms: C_21  and  C_22
REMARK                            x       y       z     vdW  Elec       q    Type
REMARK                         _______ _______ _______ _____ _____    ______ ____
ROOT
ATOM      1  C   UNL     1       3.474   3.998  19.433  0.00  0.00    +0.000 C 
ATOM      2  C   UNL     1       2.794   5.210  20.046  0.00  0.00    +0.000 C 
ATOM      3  O   UNL     1       2.312   5.231  21.166  0.00  0.00    +0.000 OA
ATOM      4  N   UNL     1       2.834   6.177  19.036  0.00  0.00    +0.000 N 
ATOM      5  C   UNL     1       2.226   7.413  19.157  0.00  0.00    +0.000 A 
ATOM      6  N   UNL     1       1.497   7.861  20.157  0.00  0.00    +0.000 NA
ATOM      7  C   UNL     1       1.050   9.146  19.889  0.00  0.00    +0.000 A 
ATOM      8  C   UNL     1       1.477   9.667  18.683  0.00  0.00    +0.000 A 
ATOM      9  S   UNL     1       2.421   8.514  17.849  0.00  0.00    +0.000 S 
ATOM     10  N   UNL     1       3.590   5.817  17.938  0.00  0.00    +0.000 NA
ATOM     11  C   UNL     1       4.016   4.615  18.169  0.00  0.00    +0.000 C 
ATOM     12  C   UNL     1       5.012   3.945  17.284  0.00  0.00    +0.000 C 
ENDROOT
BRANCH   7  13
ATOM     13  C   UNL     1       0.228   9.889  20.838  0.00  0.00    +0.000 A 
ATOM     14  C   UNL     1       0.043   9.396  22.136  0.00  0.00    +0.000 A 
ATOM     15  C   UNL     1      -0.710  10.117  23.068  0.00  0.00    +0.000 A 
ATOM     16  C   UNL     1      -1.289  11.339  22.721  0.00  0.00    +0.000 A 
ATOM     17  C   UNL     1      -1.142  11.821  21.422  0.00  0.00    +0.000 A 
ATOM     18  C   UNL     1      -0.389  11.099  20.487  0.00  0.00    +0.000 A 
BRANCH  16  19
ATOM     19  O   UNL     1      -2.005  11.951  23.713  0.00  0.00    +0.000 OA
ATOM     20  C   UNL     1      -3.310  12.390  23.352  0.00  0.00    +0.000 C 
ENDBRANCH  16  19
ENDBRANCH   7  13
BRANCH   1  22
ATOM     21  C   UNL     1       1.333   3.281  18.198  0.00  0.00    +0.000 C 
ATOM     22  C   UNL     1       2.404   2.925  19.213  0.00  0.00    +0.000 C 
ENDBRANCH   1  22
TORSDOF 3
ENDMDL
MODEL 6
REMARK VINA RESULT:      -6.8      1.181      1.618
REMARK  Name = 
REMARK  6 active torsions:
REMARK  status: ('A' for Active; 'I' for Inactive)
REMARK    1  A    between atoms: C_1  and  C_2
REMARK    2  A    between atoms: C_2  and  C_3
REMARK    3  A    between atoms: C_9  and  C_10
REMARK    4  A    between atoms: C_13  and  O_14
REMARK    5  A    between atoms: O_14  and  C_15
REMARK    6  A    between atoms: C_21  and  C_22
REMARK                            x       y       z     vdW  Elec       q    Type
REMARK                         _______ _______ _______ _____ _____    ______ ____
ROOT
ATOM      1  C   UNL     1       0.337  11.364  19.168  0.00  0.00    +0.000 C 
ATOM      2  C   UNL     1       1.282  10.298  18.639  0.00  0.00    +0.000 C 
ATOM      3  O   UNL     1       1.911  10.396  17.599  0.00  0.00    +0.000 OA
ATOM      4  N   UNL     1       1.187   9.260  19.570  0.00  0.00    +0.000 N 
ATOM      5  C   UNL     1       1.827   8.044  19.406  0.00  0.00    +0.000 A 
ATOM      6  N   UNL     1       2.550   7.644  18.382  0.00  0.00    +0.000 NA
ATOM      7  C   UNL     1       3.003   6.349  18.590  0.00  0.00    +0.000 A 
ATOM      8  C   UNL     1       2.631   5.794  19.799  0.00  0.00    +0.000 A 
ATOM      9  S   UNL     1       1.661   6.893  20.675  0.00  0.00    +0.000 S 
ATOM     10  N   UNL     1       0.459   9.578  20.700  0.00  0.00    +0.000 NA
ATOM     11  C   UNL     1       0.025  10.786  20.524  0.00  0.00    +0.000 C 
ATOM     12  C   UNL     1      -0.663  11.545  21.608  0.00  0.00    +0.000 C 
ENDROOT
BRANCH   7  13
ATOM     13  C   UNL     1       3.841   5.661  17.615  0.00  0.00    +0.000 A 
ATOM     14  C   UNL     1       4.706   6.398  16.796  0.00  0.00    +0.000 A 
ATOM     15  C   UNL     1       5.544   5.748  15.884  0.00  0.00    +0.000 A 
ATOM     16  C   UNL     1       5.532   4.357  15.774  0.00  0.00    +0.000 A 
ATOM     17  C   UNL     1       4.649   3.617  16.558  0.00  0.00    +0.000 A 
ATOM     18  C   UNL     1       3.809   4.266  17.472  0.00  0.00    +0.000 A 
BRANCH  16  19
ATOM     19  O   UNL     1       6.391   3.834  14.847  0.00  0.00    +0.000 OA
ATOM     20  C   UNL     1       6.979   4.770  13.951  0.00  0.00    +0.000 C 
ENDBRANCH  16  19
ENDBRANCH   7  13
BRANCH   1  22
ATOM     21  C   UNL     1      -1.702  10.184  18.134  0.00  0.00    +0.000 C 
ATOM     22  C   UNL     1      -0.858  11.443  18.215  0.00  0.00    +0.000 C 
ENDBRANCH   1  22
TORSDOF 3
ENDMDL
MODEL 7
REMARK VINA RESULT:      -6.7      2.841      8.823
REMARK  Name = 
REMARK  6 active torsions:
REMARK  status: ('A' for Active; 'I' for Inactive)
REMARK    1  A    between atoms: C_1  and  C_2
REMARK    2  A    between atoms: C_2  and  C_3
REMARK    3  A    between atoms: C_9  and  C_10
REMARK    4  A    between atoms: C_13  and  O_14
REMARK    5  A    between atoms: O_14  and  C_15
REMARK    6  A    between atoms: C_21  and  C_22
REMARK                            x       y       z     vdW  Elec       q    Type
REMARK                         _______ _______ _______ _____ _____    ______ ____
ROOT
ATOM      1  C   UNL     1       2.835   4.727  19.172  0.00  0.00    +0.000 C 
ATOM      2  C   UNL     1       2.236   5.936  19.870  0.00  0.00    +0.000 C 
ATOM      3  O   UNL     1       1.750   5.911  20.988  0.00  0.00    +0.000 OA
ATOM      4  N   UNL     1       2.347   6.967  18.932  0.00  0.00    +0.000 N 
ATOM      5  C   UNL     1       1.825   8.231  19.140  0.00  0.00    +0.000 A 
ATOM      6  N   UNL     1       1.121   8.655  20.168  0.00  0.00    +0.000 NA
ATOM      7  C   UNL     1       0.765   9.984  19.991  0.00  0.00    +0.000 A 
ATOM      8  C   UNL     1       1.234  10.559  18.827  0.00  0.00    +0.000 A 
ATOM      9  S   UNL     1       2.102   9.406  17.913  0.00  0.00    +0.000 S 
ATOM     10  N   UNL     1       3.084   6.635  17.812  0.00  0.00    +0.000 NA
ATOM     11  C   UNL     1       3.426   5.394  17.957  0.00  0.00    +0.000 C 
ATOM     12  C   UNL     1       4.379   4.722  17.027  0.00  0.00    +0.000 C 
ENDROOT
BRANCH   7  13
ATOM     13  C   UNL     1      -0.011  10.712  20.991  0.00  0.00    +0.000 A 
ATOM     14  C   UNL     1      -0.414  12.029  20.736  0.00  0.00    +0.000 A 
ATOM     15  C   UNL     1      -1.190  12.724  21.669  0.00  0.00    +0.000 A 
ATOM     16  C   UNL     1      -1.577  12.119  22.865  0.00  0.00    +0.000 A 
ATOM     17  C   UNL     1      -1.150  10.822  23.144  0.00  0.00    +0.000 A 
ATOM     18  C   UNL     1      -0.372  10.124  22.212  0.00  0.00    +0.000 A 
BRANCH  16  19
ATOM     19  O   UNL     1      -2.331  12.898  23.700  0.00  0.00    +0.000 OA
ATOM     20  C   UNL     1      -3.657  12.440  23.941  0.00  0.00    +0.000 C 
ENDBRANCH  16  19
ENDBRANCH   7  13
BRANCH   1  22
ATOM     21  C   UNL     1       1.797   2.409  19.582  0.00  0.00    +0.000 C 
ATOM     22  C   UNL     1       1.696   3.748  18.875  0.00  0.00    +0.000 C 
ENDBRANCH   1  22
TORSDOF 3
ENDMDL
MODEL 8
REMARK VINA RESULT:      -6.6      2.752      8.834
REMARK  Name = 
REMARK  6 active torsions:
REMARK  status: ('A' for Active; 'I' for Inactive)
REMARK    1  A    between atoms: C_1  and  C_2
REMARK    2  A    between atoms: C_2  and  C_3
REMARK    3  A    between atoms: C_9  and  C_10
REMARK    4  A    between atoms: C_13  and  O_14
REMARK    5  A    between atoms: O_14  and  C_15
REMARK    6  A    between atoms: C_21  and  C_22
REMARK                            x       y       z     vdW  Elec       q    Type
REMARK                         _______ _______ _______ _____ _____    ______ ____
ROOT
ATOM      1  C   UNL     1       3.093   5.100  18.853  0.00  0.00    +0.000 C 
ATOM      2  C   UNL     1       2.343   6.196  19.592  0.00  0.00    +0.000 C 
ATOM      3  O   UNL     1       1.767   6.034  20.654  0.00  0.00    +0.000 OA
ATOM      4  N   UNL     1       2.453   7.313  18.758  0.00  0.00    +0.000 N 
ATOM      5  C   UNL     1       1.817   8.512  19.023  0.00  0.00    +0.000 A 
ATOM      6  N   UNL     1       0.997   8.790  20.013  0.00  0.00    +0.000 NA
ATOM      7  C   UNL     1       0.554  10.101  19.917  0.00  0.00    +0.000 A 
ATOM      8  C   UNL     1       1.075  10.811  18.853  0.00  0.00    +0.000 A 
ATOM      9  S   UNL     1       2.106   9.810  17.930  0.00  0.00    +0.000 S 
ATOM     10  N   UNL     1       3.308   7.137  17.687  0.00  0.00    +0.000 NA
ATOM     11  C   UNL     1       3.732   5.915  17.758  0.00  0.00    +0.000 C 
ATOM     12  C   UNL     1       4.811   5.399  16.867  0.00  0.00    +0.000 C 
ENDROOT
BRANCH   7  13
ATOM     13  C   UNL     1      -0.359  10.679  20.898  0.00  0.00    +0.000 A 
ATOM     14  C   UNL     1      -0.376  10.186  22.209  0.00  0.00    +0.000 A 
ATOM     15  C   UNL     1      -1.219  10.757  23.169  0.00  0.00    +0.000 A 
ATOM     16  C   UNL     1      -2.053  11.825  22.838  0.00  0.00    +0.000 A 
ATOM     17  C   UNL     1      -2.071  12.298  21.527  0.00  0.00    +0.000 A 
ATOM     18  C   UNL     1      -1.229  11.728  20.564  0.00  0.00    +0.000 A 
BRANCH  16  19
ATOM     19  O   UNL     1      -2.834  12.297  23.857  0.00  0.00    +0.000 OA
ATOM     20  C   UNL     1      -4.055  12.915  23.465  0.00  0.00    +0.000 C 
ENDBRANCH  16  19
ENDBRANCH   7  13
BRANCH   1  22
ATOM     21  C   UNL     1       2.360   2.636  18.755  0.00  0.00    +0.000 C 
ATOM     22  C   UNL     1       2.064   4.075  18.371  0.00  0.00    +0.000 C 
ENDBRANCH   1  22
TORSDOF 3
ENDMDL
MODEL 9
REMARK VINA RESULT:      -6.4      1.572      2.016
REMARK  Name = 
REMARK  6 active torsions:
REMARK  status: ('A' for Active; 'I' for Inactive)
REMARK    1  A    between atoms: C_1  and  C_2
REMARK    2  A    between atoms: C_2  and  C_3
REMARK    3  A    between atoms: C_9  and  C_10
REMARK    4  A    between atoms: C_13  and  O_14
REMARK    5  A    between atoms: O_14  and  C_15
REMARK    6  A    between atoms: C_21  and  C_22
REMARK                            x       y       z     vdW  Elec       q    Type
REMARK                         _______ _______ _______ _____ _____    ______ ____
ROOT
ATOM      1  C   UNL     1       0.255  12.290  19.590  0.00  0.00    +0.000 C 
ATOM      2  C   UNL     1       1.141  11.159  19.096  0.00  0.00    +0.000 C 
ATOM      3  O   UNL     1       1.849  11.227  18.106  0.00  0.00    +0.000 OA
ATOM      4  N   UNL     1       0.893  10.111  19.987  0.00  0.00    +0.000 N 
ATOM      5  C   UNL     1       1.437   8.849  19.831  0.00  0.00    +0.000 A 
ATOM      6  N   UNL     1       2.195   8.412  18.849  0.00  0.00    +0.000 NA
ATOM      7  C   UNL     1       2.521   7.078  19.049  0.00  0.00    +0.000 A 
ATOM      8  C   UNL     1       2.018   6.528  20.212  0.00  0.00    +0.000 A 
ATOM      9  S   UNL     1       1.084   7.687  21.051  0.00  0.00    +0.000 S 
ATOM     10  N   UNL     1       0.115  10.464  21.073  0.00  0.00    +0.000 NA
ATOM     11  C   UNL     1      -0.202  11.708  20.903  0.00  0.00    +0.000 C 
ATOM     12  C   UNL     1      -0.899  12.499  21.959  0.00  0.00    +0.000 C 
ENDROOT
BRANCH   7  13
ATOM     13  C   UNL     1       3.366   6.344  18.113  0.00  0.00    +0.000 A 
ATOM     14  C   UNL     1       3.307   4.945  18.071  0.00  0.00    +0.000 A 
ATOM     15  C   UNL     1       4.083   4.231  17.153  0.00  0.00    +0.000 A 
ATOM     16  C   UNL     1       4.926   4.898  16.264  0.00  0.00    +0.000 A 
ATOM     17  C   UNL     1       5.021   6.287  16.323  0.00  0.00    +0.000 A 
ATOM     18  C   UNL     1       4.245   7.004  17.242  0.00  0.00    +0.000 A 
BRANCH  16  19
ATOM     19  O   UNL     1       5.638   4.095  15.415  0.00  0.00    +0.000 OA
ATOM     20  C   UNL     1       6.939   4.559  15.071  0.00  0.00    +0.000 C 
ENDBRANCH  16  19
ENDBRANCH   7  13
BRANCH   1  22
ATOM     21  C   UNL     1      -1.894  11.386  18.500  0.00  0.00    +0.000 C 
ATOM     22  C   UNL     1      -0.858  12.494  18.559  0.00  0.00    +0.000 C 
ENDBRANCH   1  22
TORSDOF 3
ENDMDL
