MODEL 1
REMARK VINA RESULT:      -9.2      0.000      0.000
REMARK  Name = 
REMARK  6 active torsions:
REMARK  status: ('A' for Active; 'I' for Inactive)
REMARK    1  A    between atoms: C_2  and  C_3
REMARK    2  A    between atoms: C_2  and  C_20
REMARK    3  A    between atoms: N_7  and  C_8
REMARK    4  A    between atoms: N_7  and  C_13
REMARK    5  A    between atoms: C_8  and  C_9
REMARK    6  A    between atoms: C_25  and  C_26
REMARK                            x       y       z     vdW  Elec       q    Type
REMARK                         _______ _______ _______ _____ _____    ______ ____
ROOT
ATOM      1  C   UNL     1       2.182   8.049  18.940  0.00  0.00    +0.000 A 
ATOM      2  N   UNL     1       1.901   7.440  20.074  0.00  0.00    +0.000 NA
ATOM      3  N   UNL     1       2.540   6.220  20.031  0.00  0.00    +0.000 NA
ATOM      4  C   UNL     1       3.212   6.181  18.901  0.00  0.00    +0.000 A 
ATOM      5  N   UNL     1       3.938   5.172  18.363  0.00  0.00    +0.000 N 
ATOM      6  O   UNL     1       3.041   7.315  18.153  0.00  0.00    +0.000 OA
ENDROOT
BRANCH   5   7
ATOM      7  C   UNL     1       5.283   5.477  17.847  0.00  0.00    +0.000 C 
ATOM      8  C   UNL     1       6.394   5.237  18.887  0.00  0.00    +0.000 C 
ATOM      9  C   UNL     1       7.585   4.770  18.068  0.00  0.00    +0.000 C 
ATOM     10  N   UNL     1       6.997   4.129  16.934  0.00  0.00    +0.000 N 
ATOM     11  C   UNL     1       5.700   4.542  16.707  0.00  0.00    +0.000 C 
ATOM     12  O   UNL     1       5.026   4.183  15.754  0.00  0.00    +0.000 OA
ATOM     13  H   UNL     1       7.486   3.571  16.242  0.00  0.00    +0.000 HD
ENDBRANCH   5   7
BRANCH   1  15
ATOM     14  O   UNL     1       1.917   9.785  17.359  0.00  0.00    +0.000 OA
ATOM     15  C   UNL     1       1.621   9.291  18.448  0.00  0.00    +0.000 C 
BRANCH  15  16
ATOM     16  C   UNL     1       0.679   9.902  19.379  0.00  0.00    +0.000 A 
ATOM     17  N   UNL     1       0.697   9.691  20.679  0.00  0.00    +0.000 NA
ATOM     18  C   UNL     1      -0.260  10.470  21.299  0.00  0.00    +0.000 A 
ATOM     19  C   UNL     1      -0.513  10.513  22.679  0.00  0.00    +0.000 A 
ATOM     20  C   UNL     1      -1.495  11.379  23.176  0.00  0.00    +0.000 A 
ATOM     21  C   UNL     1      -2.248  12.214  22.334  0.00  0.00    +0.000 A 
ATOM     22  C   UNL     1      -2.007  12.147  20.946  0.00  0.00    +0.000 A 
ATOM     23  C   UNL     1      -1.011  11.283  20.452  0.00  0.00    +0.000 A 
ATOM     24  S   UNL     1      -0.483  11.039  18.830  0.00  0.00    +0.000 S 
BRANCH  21  25
ATOM     25  C   UNL     1      -3.263  13.139  22.893  0.00  0.00    +0.000 A 
ATOM     26  C   UNL     1      -4.630  12.999  22.584  0.00  0.00    +0.000 A 
ATOM     27  C   UNL     1      -5.585  13.897  23.070  0.00  0.00    +0.000 A 
ATOM     28  C   UNL     1      -5.196  14.947  23.894  0.00  0.00    +0.000 A 
ATOM     29  C   UNL     1      -3.858  15.092  24.241  0.00  0.00    +0.000 A 
ATOM     30  C   UNL     1      -2.904  14.199  23.744  0.00  0.00    +0.000 A 
ENDBRANCH  21  25
ENDBRANCH  15  16
ENDBRANCH   1  15
BRANCH   5  31
ATOM     31  C   UNL     1       3.661   3.799  18.857  0.00  0.00    +0.000 C 
BRANCH  31  32
ATOM     32  C   UNL     1       2.617   2.980  18.069  0.00  0.00    +0.000 C 
ATOM     33  F   UNL     1       1.988   3.678  17.100  0.00  0.00    +0.000 F 
ATOM     34  F   UNL     1       3.207   1.910  17.477  0.00  0.00    +0.000 F 
ATOM     35  F   UNL     1       1.669   2.486  18.902  0.00  0.00    +0.000 F 
ENDBRANCH  31  32
ENDBRANCH   5  31
TORSDOF 6
ENDMDL
MODEL 2
REMARK VINA RESULT:      -9.2      0.236      1.098
REMARK  Name = 
REMARK  6 active torsions:
REMARK  status: ('A' for Active; 'I' for Inactive)
REMARK    1  A    between atoms: C_2  and  C_3
REMARK    2  A    between atoms: C_2  and  C_20
REMARK    3  A    between atoms: N_7  and  C_8
REMARK    4  A    between atoms: N_7  and  C_13
REMARK    5  A    between atoms: C_8  and  C_9
REMARK    6  A    between atoms: C_25  and  C_26
REMARK                            x       y       z     vdW  Elec       q    Type
REMARK                         _______ _______ _______ _____ _____    ______ ____
ROOT
ATOM      1  C   UNL     1       2.199   8.115  18.861  0.00  0.00    +0.000 A 
ATOM      2  N   UNL     1       1.895   7.496  19.984  0.00  0.00    +0.000 NA
ATOM      3  N   UNL     1       2.508   6.263  19.928  0.00  0.00    +0.000 NA
ATOM      4  C   UNL     1       3.187   6.225  18.803  0.00  0.00    +0.000 A 
ATOM      5  N   UNL     1       3.895   5.208  18.256  0.00  0.00    +0.000 N 
ATOM      6  O   UNL     1       3.047   7.373  18.070  0.00  0.00    +0.000 OA
ENDROOT
BRANCH   5   7
ATOM      7  C   UNL     1       5.251   5.491  17.755  0.00  0.00    +0.000 C 
ATOM      8  C   UNL     1       6.349   5.184  18.790  0.00  0.00    +0.000 C 
ATOM      9  C   UNL     1       7.530   4.710  17.959  0.00  0.00    +0.000 C 
ATOM     10  N   UNL     1       6.929   4.124  16.803  0.00  0.00    +0.000 N 
ATOM     11  C   UNL     1       5.645   4.583  16.585  0.00  0.00    +0.000 C 
ATOM     12  O   UNL     1       4.965   4.275  15.619  0.00  0.00    +0.000 OA
ATOM     13  H   UNL     1       7.404   3.576  16.095  0.00  0.00    +0.000 HD
ENDBRANCH   5   7
BRANCH   1  15
ATOM     14  O   UNL     1       2.005   9.892  17.316  0.00  0.00    +0.000 OA
ATOM     15  C   UNL     1       1.668   9.376  18.384  0.00  0.00    +0.000 C 
BRANCH  15  16
ATOM     16  C   UNL     1       0.706   9.977  19.300  0.00  0.00    +0.000 A 
ATOM     17  N   UNL     1       0.759   9.837  20.608  0.00  0.00    +0.000 NA
ATOM     18  C   UNL     1      -0.235  10.587  21.205  0.00  0.00    +0.000 A 
ATOM     19  C   UNL     1      -0.467  10.689  22.586  0.00  0.00    +0.000 A 
ATOM     20  C   UNL     1      -1.494  11.518  23.056  0.00  0.00    +0.000 A 
ATOM     21  C   UNL     1      -2.312  12.258  22.187  0.00  0.00    +0.000 A 
ATOM     22  C   UNL     1      -2.090  12.131  20.800  0.00  0.00    +0.000 A 
ATOM     23  C   UNL     1      -1.050  11.305  20.332  0.00  0.00    +0.000 A 
ATOM     24  S   UNL     1      -0.535  11.007  18.715  0.00  0.00    +0.000 S 
BRANCH  21  25
ATOM     25  C   UNL     1      -3.374  13.146  22.716  0.00  0.00    +0.000 A 
ATOM     26  C   UNL     1      -3.065  14.250  23.535  0.00  0.00    +0.000 A 
ATOM     27  C   UNL     1      -4.066  15.062  24.076  0.00  0.00    +0.000 A 
ATOM     28  C   UNL     1      -5.402  14.800  23.794  0.00  0.00    +0.000 A 
ATOM     29  C   UNL     1      -5.735  13.736  22.963  0.00  0.00    +0.000 A 
ATOM     30  C   UNL     1      -4.732  12.918  22.433  0.00  0.00    +0.000 A 
ENDBRANCH  21  25
ENDBRANCH  15  16
ENDBRANCH   1  15
BRANCH   5  31
ATOM     31  C   UNL     1       3.584   3.835  18.728  0.00  0.00    +0.000 C 
BRANCH  31  32
ATOM     32  C   UNL     1       2.407   3.117  18.034  0.00  0.00    +0.000 C 
ATOM     33  F   UNL     1       2.655   1.826  17.726  0.00  0.00    +0.000 F 
ATOM     34  F   UNL     1       1.307   3.138  18.829  0.00  0.00    +0.000 F 
ATOM     35  F   UNL     1       2.067   3.754  16.887  0.00  0.00    +0.000 F 
ENDBRANCH  31  32
ENDBRANCH   5  31
TORSDOF 6
ENDMDL
MODEL 3
REMARK VINA RESULT:      -9.2      1.265      1.854
REMARK  Name = 
REMARK  6 active torsions:
REMARK  status: ('A' for Active; 'I' for Inactive)
REMARK    1  A    between atoms: C_2  and  C_3
REMARK    2  A    between atoms: C_2  and  C_20
REMARK    3  A    between atoms: N_7  and  C_8
REMARK    4  A    between atoms: N_7  and  C_13
REMARK    5  A    between atoms: C_8  and  C_9
REMARK    6  A    between atoms: C_25  and  C_26
REMARK                            x       y       z     vdW  Elec       q    Type
REMARK                         _______ _______ _______ _____ _____    ______ ____
ROOT
ATOM      1  C   UNL     1       2.517   7.267  18.926  0.00  0.00    +0.000 A 
ATOM      2  N   UNL     1       2.280   6.721  20.102  0.00  0.00    +0.000 NA
ATOM      3  N   UNL     1       2.794   5.443  20.049  0.00  0.00    +0.000 NA
ATOM      4  C   UNL     1       3.356   5.306  18.869  0.00  0.00    +0.000 A 
ATOM      5  N   UNL     1       3.933   4.216  18.308  0.00  0.00    +0.000 N 
ATOM      6  O   UNL     1       3.229   6.429  18.096  0.00  0.00    +0.000 OA
ENDROOT
BRANCH   5   7
ATOM      7  C   UNL     1       5.250   4.373  17.668  0.00  0.00    +0.000 C 
ATOM      8  C   UNL     1       5.195   5.215  16.379  0.00  0.00    +0.000 C 
ATOM      9  C   UNL     1       6.523   5.952  16.352  0.00  0.00    +0.000 C 
ATOM     10  N   UNL     1       6.871   6.092  17.731  0.00  0.00    +0.000 N 
ATOM     11  C   UNL     1       6.231   5.170  18.534  0.00  0.00    +0.000 C 
ATOM     12  O   UNL     1       6.429   5.056  19.734  0.00  0.00    +0.000 OA
ATOM     13  H   UNL     1       7.625   6.660  18.103  0.00  0.00    +0.000 HD
ENDBRANCH   5   7
BRANCH   1  15
ATOM     14  O   UNL     1       2.314   8.994  17.326  0.00  0.00    +0.000 OA
ATOM     15  C   UNL     1       2.035   8.543  18.438  0.00  0.00    +0.000 C 
BRANCH  15  16
ATOM     16  C   UNL     1       1.195   9.245  19.403  0.00  0.00    +0.000 A 
ATOM     17  N   UNL     1       0.889   8.764  20.590  0.00  0.00    +0.000 NA
ATOM     18  C   UNL     1       0.152   9.690  21.301  0.00  0.00    +0.000 A 
ATOM     19  C   UNL     1      -0.332   9.522  22.608  0.00  0.00    +0.000 A 
ATOM     20  C   UNL     1      -1.038  10.564  23.223  0.00  0.00    +0.000 A 
ATOM     21  C   UNL     1      -1.286  11.783  22.572  0.00  0.00    +0.000 A 
ATOM     22  C   UNL     1      -0.818  11.936  21.250  0.00  0.00    +0.000 A 
ATOM     23  C   UNL     1      -0.100  10.890  20.640  0.00  0.00    +0.000 A 
ATOM     24  S   UNL     1       0.617  10.826  19.074  0.00  0.00    +0.000 S 
BRANCH  21  25
ATOM     25  C   UNL     1      -2.014  12.876  23.259  0.00  0.00    +0.000 A 
ATOM     26  C   UNL     1      -1.357  14.055  23.663  0.00  0.00    +0.000 A 
ATOM     27  C   UNL     1      -2.029  15.067  24.354  0.00  0.00    +0.000 A 
ATOM     28  C   UNL     1      -3.383  14.932  24.641  0.00  0.00    +0.000 A 
ATOM     29  C   UNL     1      -4.066  13.794  24.227  0.00  0.00    +0.000 A 
ATOM     30  C   UNL     1      -3.388  12.778  23.547  0.00  0.00    +0.000 A 
ENDBRANCH  21  25
ENDBRANCH  15  16
ENDBRANCH   1  15
BRANCH   5  31
ATOM     31  C   UNL     1       3.571   2.892  18.874  0.00  0.00    +0.000 C 
BRANCH  31  32
ATOM     32  C   UNL     1       2.241   2.274  18.392  0.00  0.00    +0.000 C 
ATOM     33  F   UNL     1       1.713   1.371  19.245  0.00  0.00    +0.000 F 
ATOM     34  F   UNL     1       1.311   3.245  18.204  0.00  0.00    +0.000 F 
ATOM     35  F   UNL     1       2.406   1.661  17.194  0.00  0.00    +0.000 F 
ENDBRANCH  31  32
ENDBRANCH   5  31
TORSDOF 6
ENDMDL
MODEL 4
REMARK VINA RESULT:      -9.1      2.453      2.927
REMARK  Name = 
REMARK  6 active torsions:
REMARK  status: ('A' for Active; 'I' for Inactive)
REMARK    1  A    between atoms: C_2  and  C_3
REMARK    2  A    between atoms: C_2  and  C_20
REMARK    3  A    between atoms: N_7  and  C_8
REMARK    4  A    between atoms: N_7  and  C_13
REMARK    5  A    between atoms: C_8  and  C_9
REMARK    6  A    between atoms: C_25  and  C_26
REMARK                            x       y       z     vdW  Elec       q    Type
REMARK                         _______ _______ _______ _____ _____    ______ ____
ROOT
ATOM      1  C   UNL     1       2.025   8.909  18.682  0.00  0.00    +0.000 A 
ATOM      2  N   UNL     1       1.439   8.336  19.715  0.00  0.00    +0.000 NA
ATOM      3  N   UNL     1       1.931   7.050  19.778  0.00  0.00    +0.000 NA
ATOM      4  C   UNL     1       2.821   6.934  18.817  0.00  0.00    +0.000 A 
ATOM      5  N   UNL     1       3.527   5.848  18.420  0.00  0.00    +0.000 N 
ATOM      6  O   UNL     1       2.944   8.081  18.079  0.00  0.00    +0.000 OA
ENDROOT
BRANCH   5   7
ATOM      7  C   UNL     1       4.977   5.995  18.212  0.00  0.00    +0.000 C 
ATOM      8  C   UNL     1       5.789   4.823  18.794  0.00  0.00    +0.000 C 
ATOM      9  C   UNL     1       6.966   4.671  17.845  0.00  0.00    +0.000 C 
ATOM     10  N   UNL     1       6.462   5.129  16.589  0.00  0.00    +0.000 N 
ATOM     11  C   UNL     1       5.364   5.953  16.730  0.00  0.00    +0.000 C 
ATOM     12  O   UNL     1       4.811   6.518  15.799  0.00  0.00    +0.000 OA
ATOM     13  H   UNL     1       6.924   5.040  15.691  0.00  0.00    +0.000 HD
ENDBRANCH   5   7
BRANCH   1  15
ATOM     14  O   UNL     1       2.582  10.944  17.618  0.00  0.00    +0.000 OA
ATOM     15  C   UNL     1       1.727  10.208  18.115  0.00  0.00    +0.000 C 
BRANCH  15  16
ATOM     16  C   UNL     1       0.314  10.561  18.201  0.00  0.00    +0.000 A 
ATOM     17  N   UNL     1      -0.644   9.889  17.596  0.00  0.00    +0.000 NA
ATOM     18  C   UNL     1      -1.876  10.413  17.933  0.00  0.00    +0.000 A 
ATOM     19  C   UNL     1      -3.119   9.938  17.485  0.00  0.00    +0.000 A 
ATOM     20  C   UNL     1      -4.296  10.546  17.938  0.00  0.00    +0.000 A 
ATOM     21  C   UNL     1      -4.280  11.630  18.832  0.00  0.00    +0.000 A 
ATOM     22  C   UNL     1      -3.027  12.119  19.257  0.00  0.00    +0.000 A 
ATOM     23  C   UNL     1      -1.846  11.497  18.808  0.00  0.00    +0.000 A 
ATOM     24  S   UNL     1      -0.207  11.854  19.201  0.00  0.00    +0.000 S 
BRANCH  21  25
ATOM     25  C   UNL     1      -5.544  12.236  19.312  0.00  0.00    +0.000 A 
ATOM     26  C   UNL     1      -6.078  13.391  18.709  0.00  0.00    +0.000 A 
ATOM     27  C   UNL     1      -7.245  13.994  19.189  0.00  0.00    +0.000 A 
ATOM     28  C   UNL     1      -7.915  13.444  20.275  0.00  0.00    +0.000 A 
ATOM     29  C   UNL     1      -7.429  12.286  20.871  0.00  0.00    +0.000 A 
ATOM     30  C   UNL     1      -6.256  11.692  20.396  0.00  0.00    +0.000 A 
ENDBRANCH  21  25
ENDBRANCH  15  16
ENDBRANCH   1  15
BRANCH   5  31
ATOM     31  C   UNL     1       2.996   4.516  18.809  0.00  0.00    +0.000 C 
BRANCH  31  32
ATOM     32  C   UNL     1       2.186   3.757  17.737  0.00  0.00    +0.000 C 
ATOM     33  F   UNL     1       2.899   3.429  16.639  0.00  0.00    +0.000 F 
ATOM     34  F   UNL     1       1.685   2.605  18.252  0.00  0.00    +0.000 F 
ATOM     35  F   UNL     1       1.123   4.493  17.331  0.00  0.00    +0.000 F 
ENDBRANCH  31  32
ENDBRANCH   5  31
TORSDOF 6
ENDMDL
MODEL 5
REMARK VINA RESULT:      -9.0      1.462      1.921
REMARK  Name = 
REMARK  6 active torsions:
REMARK  status: ('A' for Active; 'I' for Inactive)
REMARK    1  A    between atoms: C_2  and  C_3
REMARK    2  A    between atoms: C_2  and  C_20
REMARK    3  A    between atoms: N_7  and  C_8
REMARK    4  A    between atoms: N_7  and  C_13
REMARK    5  A    between atoms: C_8  and  C_9
REMARK    6  A    between atoms: C_25  and  C_26
REMARK                            x       y       z     vdW  Elec       q    Type
REMARK                         _______ _______ _______ _____ _____    ______ ____
ROOT
ATOM      1  C   UNL     1       2.531   6.937  18.434  0.00  0.00    +0.000 A 
ATOM      2  N   UNL     1       1.996   6.198  19.386  0.00  0.00    +0.000 NA
ATOM      3  N   UNL     1       2.364   4.897  19.123  0.00  0.00    +0.000 NA
ATOM      4  C   UNL     1       3.140   4.927  18.062  0.00  0.00    +0.000 A 
ATOM      5  N   UNL     1       3.694   3.903  17.369  0.00  0.00    +0.000 N 
ATOM      6  O   UNL     1       3.302   6.193  17.568  0.00  0.00    +0.000 OA
ENDROOT
BRANCH   5   7
ATOM      7  C   UNL     1       5.124   3.984  17.028  0.00  0.00    +0.000 C 
ATOM      8  C   UNL     1       5.389   4.779  15.735  0.00  0.00    +0.000 C 
ATOM      9  C   UNL     1       6.725   5.461  15.978  0.00  0.00    +0.000 C 
ATOM     10  N   UNL     1       6.772   5.639  17.396  0.00  0.00    +0.000 N 
ATOM     11  C   UNL     1       5.931   4.773  18.064  0.00  0.00    +0.000 C 
ATOM     12  O   UNL     1       5.858   4.695  19.281  0.00  0.00    +0.000 OA
ATOM     13  H   UNL     1       7.453   6.189  17.907  0.00  0.00    +0.000 HD
ENDBRANCH   5   7
BRANCH   1  15
ATOM     14  O   UNL     1       2.783   8.951  17.224  0.00  0.00    +0.000 OA
ATOM     15  C   UNL     1       2.306   8.347  18.187  0.00  0.00    +0.000 C 
BRANCH  15  16
ATOM     16  C   UNL     1       1.469   8.980  19.200  0.00  0.00    +0.000 A 
ATOM     17  N   UNL     1       1.362   8.540  20.437  0.00  0.00    +0.000 NA
ATOM     18  C   UNL     1       0.566   9.393  21.175  0.00  0.00    +0.000 A 
ATOM     19  C   UNL     1       0.247   9.245  22.534  0.00  0.00    +0.000 A 
ATOM     20  C   UNL     1      -0.547  10.209  23.169  0.00  0.00    +0.000 A 
ATOM     21  C   UNL     1      -1.044  11.331  22.486  0.00  0.00    +0.000 A 
ATOM     22  C   UNL     1      -0.741  11.461  21.115  0.00  0.00    +0.000 A 
ATOM     23  C   UNL     1       0.066  10.495  20.484  0.00  0.00    +0.000 A 
ATOM     24  S   UNL     1       0.623  10.432  18.854  0.00  0.00    +0.000 S 
BRANCH  21  25
ATOM     25  C   UNL     1      -1.861  12.348  23.191  0.00  0.00    +0.000 A 
ATOM     26  C   UNL     1      -3.179  12.071  23.604  0.00  0.00    +0.000 A 
ATOM     27  C   UNL     1      -3.969  13.041  24.227  0.00  0.00    +0.000 A 
ATOM     28  C   UNL     1      -3.452  14.309  24.468  0.00  0.00    +0.000 A 
ATOM     29  C   UNL     1      -2.144  14.602  24.099  0.00  0.00    +0.000 A 
ATOM     30  C   UNL     1      -1.359  13.633  23.466  0.00  0.00    +0.000 A 
ENDBRANCH  21  25
ENDBRANCH  15  16
ENDBRANCH   1  15
BRANCH   5  31
ATOM     31  C   UNL     1       3.077   2.562  17.531  0.00  0.00    +0.000 C 
BRANCH  31  32
ATOM     32  C   UNL     1       3.417   1.799  18.830  0.00  0.00    +0.000 C 
ATOM     33  F   UNL     1       4.321   2.424  19.613  0.00  0.00    +0.000 F 
ATOM     34  F   UNL     1       2.297   1.614  19.575  0.00  0.00    +0.000 F 
ATOM     35  F   UNL     1       3.901   0.565  18.547  0.00  0.00    +0.000 F 
ENDBRANCH  31  32
ENDBRANCH   5  31
TORSDOF 6
ENDMDL
MODEL 6
REMARK VINA RESULT:      -8.9      0.981      1.394
REMARK  Name = 
REMARK  6 active torsions:
REMARK  status: ('A' for Active; 'I' for Inactive)
REMARK    1  A    between atoms: C_2  and  C_3
REMARK    2  A    between atoms: C_2  and  C_20
REMARK    3  A    between atoms: N_7  and  C_8
REMARK    4  A    between atoms: N_7  and  C_13
REMARK    5  A    between atoms: C_8  and  C_9
REMARK    6  A    between atoms: C_25  and  C_26
REMARK                            x       y       z     vdW  Elec       q    Type
REMARK                         _______ _______ _______ _____ _____    ______ ____
ROOT
ATOM      1  C   UNL     1       2.188   8.173  18.902  0.00  0.00    +0.000 A 
ATOM      2  N   UNL     1       1.879   7.571  20.034  0.00  0.00    +0.000 NA
ATOM      3  N   UNL     1       2.466   6.325  19.985  0.00  0.00    +0.000 NA
ATOM      4  C   UNL     1       3.136   6.263  18.856  0.00  0.00    +0.000 A 
ATOM      5  N   UNL     1       3.820   5.226  18.313  0.00  0.00    +0.000 N 
ATOM      6  O   UNL     1       3.015   7.406  18.113  0.00  0.00    +0.000 OA
ENDROOT
BRANCH   5   7
ATOM      7  C   UNL     1       5.177   5.476  17.800  0.00  0.00    +0.000 C 
ATOM      8  C   UNL     1       6.275   5.181  18.840  0.00  0.00    +0.000 C 
ATOM      9  C   UNL     1       7.446   4.668  18.017  0.00  0.00    +0.000 C 
ATOM     10  N   UNL     1       6.832   4.060  16.879  0.00  0.00    +0.000 N 
ATOM     11  C   UNL     1       5.554   4.531  16.654  0.00  0.00    +0.000 C 
ATOM     12  O   UNL     1       4.865   4.208  15.699  0.00  0.00    +0.000 OA
ATOM     13  H   UNL     1       7.296   3.486  16.185  0.00  0.00    +0.000 HD
ENDBRANCH   5   7
BRANCH   1  15
ATOM     14  O   UNL     1       1.866   9.850  17.269  0.00  0.00    +0.000 OA
ATOM     15  C   UNL     1       1.680   9.440  18.417  0.00  0.00    +0.000 C 
BRANCH  15  16
ATOM     16  C   UNL     1       0.938  10.185  19.427  0.00  0.00    +0.000 A 
ATOM     17  N   UNL     1       0.341   9.622  20.457  0.00  0.00    +0.000 NA
ATOM     18  C   UNL     1      -0.205  10.591  21.276  0.00  0.00    +0.000 A 
ATOM     19  C   UNL     1      -0.901  10.356  22.472  0.00  0.00    +0.000 A 
ATOM     20  C   UNL     1      -1.372  11.440  23.224  0.00  0.00    +0.000 A 
ATOM     21  C   UNL     1      -1.173  12.770  22.819  0.00  0.00    +0.000 A 
ATOM     22  C   UNL     1      -0.495  12.999  21.604  0.00  0.00    +0.000 A 
ATOM     23  C   UNL     1      -0.015  11.906  20.857  0.00  0.00    +0.000 A 
ATOM     24  S   UNL     1       0.876  11.899  19.381  0.00  0.00    +0.000 S 
BRANCH  21  25
ATOM     25  C   UNL     1      -1.661  13.897  23.649  0.00  0.00    +0.000 A 
ATOM     26  C   UNL     1      -2.970  13.909  24.171  0.00  0.00    +0.000 A 
ATOM     27  C   UNL     1      -3.450  14.991  24.915  0.00  0.00    +0.000 A 
ATOM     28  C   UNL     1      -2.625  16.080  25.170  0.00  0.00    +0.000 A 
ATOM     29  C   UNL     1      -1.319  16.082  24.694  0.00  0.00    +0.000 A 
ATOM     30  C   UNL     1      -0.845  15.004  23.941  0.00  0.00    +0.000 A 
ENDBRANCH  21  25
ENDBRANCH  15  16
ENDBRANCH   1  15
BRANCH   5  31
ATOM     31  C   UNL     1       3.484   3.864  18.801  0.00  0.00    +0.000 C 
BRANCH  31  32
ATOM     32  C   UNL     1       2.324   3.141  18.084  0.00  0.00    +0.000 C 
ATOM     33  F   UNL     1       2.707   2.061  17.370  0.00  0.00    +0.000 F 
ATOM     34  F   UNL     1       1.400   2.721  18.985  0.00  0.00    +0.000 F 
ATOM     35  F   UNL     1       1.684   3.985  17.239  0.00  0.00    +0.000 F 
ENDBRANCH  31  32
ENDBRANCH   5  31
TORSDOF 6
ENDMDL
MODEL 7
REMARK VINA RESULT:      -8.9      1.124      1.469
REMARK  Name = 
REMARK  6 active torsions:
REMARK  status: ('A' for Active; 'I' for Inactive)
REMARK    1  A    between atoms: C_2  and  C_3
REMARK    2  A    between atoms: C_2  and  C_20
REMARK    3  A    between atoms: N_7  and  C_8
REMARK    4  A    between atoms: N_7  and  C_13
REMARK    5  A    between atoms: C_8  and  C_9
REMARK    6  A    between atoms: C_25  and  C_26
REMARK                            x       y       z     vdW  Elec       q    Type
REMARK                         _______ _______ _______ _____ _____    ______ ____
ROOT
ATOM      1  C   UNL     1       2.306   7.638  18.949  0.00  0.00    +0.000 A 
ATOM      2  N   UNL     1       2.072   7.114  20.136  0.00  0.00    +0.000 NA
ATOM      3  N   UNL     1       2.556   5.825  20.095  0.00  0.00    +0.000 NA
ATOM      4  C   UNL     1       3.101   5.659  18.910  0.00  0.00    +0.000 A 
ATOM      5  N   UNL     1       3.645   4.548  18.357  0.00  0.00    +0.000 N 
ATOM      6  O   UNL     1       2.989   6.774  18.123  0.00  0.00    +0.000 OA
ENDROOT
BRANCH   5   7
ATOM      7  C   UNL     1       4.958   4.667  17.700  0.00  0.00    +0.000 C 
ATOM      8  C   UNL     1       4.940   5.623  16.492  0.00  0.00    +0.000 C 
ATOM      9  C   UNL     1       6.319   6.261  16.495  0.00  0.00    +0.000 C 
ATOM     10  N   UNL     1       6.703   6.252  17.872  0.00  0.00    +0.000 N 
ATOM     11  C   UNL     1       6.012   5.310  18.607  0.00  0.00    +0.000 C 
ATOM     12  O   UNL     1       6.224   5.074  19.786  0.00  0.00    +0.000 OA
ATOM     13  H   UNL     1       7.504   6.728  18.272  0.00  0.00    +0.000 HD
ENDBRANCH   5   7
BRANCH   1  15
ATOM     14  O   UNL     1       2.211   9.398  17.375  0.00  0.00    +0.000 OA
ATOM     15  C   UNL     1       1.847   8.919  18.450  0.00  0.00    +0.000 C 
BRANCH  15  16
ATOM     16  C   UNL     1       0.919   9.588  19.355  0.00  0.00    +0.000 A 
ATOM     17  N   UNL     1       0.879   9.367  20.653  0.00  0.00    +0.000 NA
ATOM     18  C   UNL     1      -0.042  10.206  21.248  0.00  0.00    +0.000 A 
ATOM     19  C   UNL     1      -0.337  10.258  22.620  0.00  0.00    +0.000 A 
ATOM     20  C   UNL     1      -1.273  11.187  23.092  0.00  0.00    +0.000 A 
ATOM     21  C   UNL     1      -1.939  12.077  22.233  0.00  0.00    +0.000 A 
ATOM     22  C   UNL     1      -1.657  12.002  20.853  0.00  0.00    +0.000 A 
ATOM     23  C   UNL     1      -0.707  11.074  20.384  0.00  0.00    +0.000 A 
ATOM     24  S   UNL     1      -0.143  10.805  18.778  0.00  0.00    +0.000 S 
BRANCH  21  25
ATOM     25  C   UNL     1      -2.905  13.066  22.767  0.00  0.00    +0.000 A 
ATOM     26  C   UNL     1      -3.978  12.671  23.589  0.00  0.00    +0.000 A 
ATOM     27  C   UNL     1      -4.920  13.593  24.056  0.00  0.00    +0.000 A 
ATOM     28  C   UNL     1      -4.799  14.938  23.724  0.00  0.00    +0.000 A 
ATOM     29  C   UNL     1      -3.733  15.362  22.939  0.00  0.00    +0.000 A 
ATOM     30  C   UNL     1      -2.799  14.435  22.465  0.00  0.00    +0.000 A 
ENDBRANCH  21  25
ENDBRANCH  15  16
ENDBRANCH   1  15
BRANCH   5  31
ATOM     31  C   UNL     1       3.261   3.240  18.946  0.00  0.00    +0.000 C 
BRANCH  31  32
ATOM     32  C   UNL     1       2.044   2.531  18.316  0.00  0.00    +0.000 C 
ATOM     33  F   UNL     1       1.378   1.722  19.168  0.00  0.00    +0.000 F 
ATOM     34  F   UNL     1       1.155   3.444  17.848  0.00  0.00    +0.000 F 
ATOM     35  F   UNL     1       2.425   1.782  17.252  0.00  0.00    +0.000 F 
ENDBRANCH  31  32
ENDBRANCH   5  31
TORSDOF 6
ENDMDL
MODEL 8
REMARK VINA RESULT:      -8.8      1.472      2.010
REMARK  Name = 
REMARK  6 active torsions:
REMARK  status: ('A' for Active; 'I' for Inactive)
REMARK    1  A    between atoms: C_2  and  C_3
REMARK    2  A    between atoms: C_2  and  C_20
REMARK    3  A    between atoms: N_7  and  C_8
REMARK    4  A    between atoms: N_7  and  C_13
REMARK    5  A    between atoms: C_8  and  C_9
REMARK    6  A    between atoms: C_25  and  C_26
REMARK                            x       y       z     vdW  Elec       q    Type
REMARK                         _______ _______ _______ _____ _____    ______ ____
ROOT
ATOM      1  C   UNL     1       2.536   7.028  18.452  0.00  0.00    +0.000 A 
ATOM      2  N   UNL     1       2.014   6.291  19.412  0.00  0.00    +0.000 NA
ATOM      3  N   UNL     1       2.393   4.991  19.156  0.00  0.00    +0.000 NA
ATOM      4  C   UNL     1       3.162   5.021  18.090  0.00  0.00    +0.000 A 
ATOM      5  N   UNL     1       3.723   3.998  17.401  0.00  0.00    +0.000 N 
ATOM      6  O   UNL     1       3.308   6.286  17.587  0.00  0.00    +0.000 OA
ENDROOT
BRANCH   5   7
ATOM      7  C   UNL     1       5.150   4.091  17.050  0.00  0.00    +0.000 C 
ATOM      8  C   UNL     1       5.392   4.776  15.692  0.00  0.00    +0.000 C 
ATOM      9  C   UNL     1       6.706   5.517  15.870  0.00  0.00    +0.000 C 
ATOM     10  N   UNL     1       6.748   5.821  17.266  0.00  0.00    +0.000 N 
ATOM     11  C   UNL     1       5.932   4.993  18.011  0.00  0.00    +0.000 C 
ATOM     12  O   UNL     1       5.862   5.021  19.230  0.00  0.00    +0.000 OA
ATOM     13  H   UNL     1       7.411   6.435  17.725  0.00  0.00    +0.000 HD
ENDBRANCH   5   7
BRANCH   1  15
ATOM     14  O   UNL     1       2.766   9.038  17.231  0.00  0.00    +0.000 OA
ATOM     15  C   UNL     1       2.295   8.434  18.197  0.00  0.00    +0.000 C 
BRANCH  15  16
ATOM     16  C   UNL     1       1.449   9.063  19.204  0.00  0.00    +0.000 A 
ATOM     17  N   UNL     1       1.296   8.593  20.425  0.00  0.00    +0.000 NA
ATOM     18  C   UNL     1       0.504   9.448  21.166  0.00  0.00    +0.000 A 
ATOM     19  C   UNL     1       0.144   9.272  22.511  0.00  0.00    +0.000 A 
ATOM     20  C   UNL     1      -0.640  10.241  23.151  0.00  0.00    +0.000 A 
ATOM     21  C   UNL     1      -1.087  11.395  22.487  0.00  0.00    +0.000 A 
ATOM     22  C   UNL     1      -0.743  11.553  21.128  0.00  0.00    +0.000 A 
ATOM     23  C   UNL     1       0.054  10.582  20.492  0.00  0.00    +0.000 A 
ATOM     24  S   UNL     1       0.653  10.547  18.877  0.00  0.00    +0.000 S 
BRANCH  21  25
ATOM     25  C   UNL     1      -1.894  12.415  23.198  0.00  0.00    +0.000 A 
ATOM     26  C   UNL     1      -1.368  13.687  23.498  0.00  0.00    +0.000 A 
ATOM     27  C   UNL     1      -2.108  14.635  24.210  0.00  0.00    +0.000 A 
ATOM     28  C   UNL     1      -3.402  14.338  24.624  0.00  0.00    +0.000 A 
ATOM     29  C   UNL     1      -3.959  13.103  24.315  0.00  0.00    +0.000 A 
ATOM     30  C   UNL     1      -3.212  12.152  23.613  0.00  0.00    +0.000 A 
ENDBRANCH  21  25
ENDBRANCH  15  16
ENDBRANCH   1  15
BRANCH   5  31
ATOM     31  C   UNL     1       3.121   2.652  17.576  0.00  0.00    +0.000 C 
BRANCH  31  32
ATOM     32  C   UNL     1       3.483   1.898  18.874  0.00  0.00    +0.000 C 
ATOM     33  F   UNL     1       2.451   1.757  19.733  0.00  0.00    +0.000 F 
ATOM     34  F   UNL     1       3.941   0.654  18.585  0.00  0.00    +0.000 F 
ATOM     35  F   UNL     1       4.481   2.535  19.534  0.00  0.00    +0.000 F 
ENDBRANCH  31  32
ENDBRANCH   5  31
TORSDOF 6
ENDMDL
MODEL 9
REMARK VINA RESULT:      -8.8      1.155      1.630
REMARK  Name = 
REMARK  6 active torsions:
REMARK  status: ('A' for Active; 'I' for Inactive)
REMARK    1  A    between atoms: C_2  and  C_3
REMARK    2  A    between atoms: C_2  and  C_20
REMARK    3  A    between atoms: N_7  and  C_8
REMARK    4  A    between atoms: N_7  and  C_13
REMARK    5  A    between atoms: C_8  and  C_9
REMARK    6  A    between atoms: C_25  and  C_26
REMARK                            x       y       z     vdW  Elec       q    Type
REMARK                         _______ _______ _______ _____ _____    ______ ____
ROOT
ATOM      1  C   UNL     1       2.203   8.189  18.905  0.00  0.00    +0.000 A 
ATOM      2  N   UNL     1       1.885   7.597  20.039  0.00  0.00    +0.000 NA
ATOM      3  N   UNL     1       2.495   6.362  20.018  0.00  0.00    +0.000 NA
ATOM      4  C   UNL     1       3.186   6.296  18.902  0.00  0.00    +0.000 A 
ATOM      5  N   UNL     1       3.897   5.265  18.386  0.00  0.00    +0.000 N 
ATOM      6  O   UNL     1       3.058   7.427  18.141  0.00  0.00    +0.000 OA
ENDROOT
BRANCH   5   7
ATOM      7  C   UNL     1       5.259   5.532  17.893  0.00  0.00    +0.000 C 
ATOM      8  C   UNL     1       6.347   5.215  18.936  0.00  0.00    +0.000 C 
ATOM      9  C   UNL     1       7.528   4.727  18.113  0.00  0.00    +0.000 C 
ATOM     10  N   UNL     1       6.928   4.146  16.953  0.00  0.00    +0.000 N 
ATOM     11  C   UNL     1       5.651   4.618  16.727  0.00  0.00    +0.000 C 
ATOM     12  O   UNL     1       4.973   4.317  15.757  0.00  0.00    +0.000 OA
ATOM     13  H   UNL     1       7.401   3.592  16.249  0.00  0.00    +0.000 HD
ENDBRANCH   5   7
BRANCH   1  15
ATOM     14  O   UNL     1       1.837   9.814  17.229  0.00  0.00    +0.000 OA
ATOM     15  C   UNL     1       1.681   9.441  18.393  0.00  0.00    +0.000 C 
BRANCH  15  16
ATOM     16  C   UNL     1       0.964  10.217  19.398  0.00  0.00    +0.000 A 
ATOM     17  N   UNL     1       0.292   9.677  20.395  0.00  0.00    +0.000 NA
ATOM     18  C   UNL     1      -0.206  10.665  21.220  0.00  0.00    +0.000 A 
ATOM     19  C   UNL     1      -0.957  10.456  22.387  0.00  0.00    +0.000 A 
ATOM     20  C   UNL     1      -1.370  11.555  23.151  0.00  0.00    +0.000 A 
ATOM     21  C   UNL     1      -1.059  12.876  22.787  0.00  0.00    +0.000 A 
ATOM     22  C   UNL     1      -0.325  13.080  21.600  0.00  0.00    +0.000 A 
ATOM     23  C   UNL     1       0.097  11.972  20.841  0.00  0.00    +0.000 A 
ATOM     24  S   UNL     1       1.033  11.931  19.394  0.00  0.00    +0.000 S 
BRANCH  21  25
ATOM     25  C   UNL     1      -1.488  14.017  23.630  0.00  0.00    +0.000 A 
ATOM     26  C   UNL     1      -0.758  15.221  23.661  0.00  0.00    +0.000 A 
ATOM     27  C   UNL     1      -1.132  16.282  24.490  0.00  0.00    +0.000 A 
ATOM     28  C   UNL     1      -2.259  16.170  25.296  0.00  0.00    +0.000 A 
ATOM     29  C   UNL     1      -3.018  15.005  25.264  0.00  0.00    +0.000 A 
ATOM     30  C   UNL     1      -2.634  13.941  24.442  0.00  0.00    +0.000 A 
ENDBRANCH  21  25
ENDBRANCH  15  16
ENDBRANCH   1  15
BRANCH   5  31
ATOM     31  C   UNL     1       3.577   3.904  18.886  0.00  0.00    +0.000 C 
BRANCH  31  32
ATOM     32  C   UNL     1       2.373   3.193  18.231  0.00  0.00    +0.000 C 
ATOM     33  F   UNL     1       1.212   3.352  18.899  0.00  0.00    +0.000 F 
ATOM     34  F   UNL     1       2.181   3.657  16.970  0.00  0.00    +0.000 F 
ATOM     35  F   UNL     1       2.606   1.862  18.121  0.00  0.00    +0.000 F 
ENDBRANCH  31  32
ENDBRANCH   5  31
TORSDOF 6
ENDMDL
