MODEL 1
REMARK VINA RESULT:      -7.4      0.000      0.000
REMARK  Name = 
REMARK  8 active torsions:
REMARK  status: ('A' for Active; 'I' for Inactive)
REMARK    1  A    between atoms: C_1  and  O_2
REMARK    2  A    between atoms: O_2  and  C_3
REMARK    3  A    between atoms: C_3  and  C_4
REMARK    4  A    between atoms: C_4  and  N_5
REMARK    5  A    between atoms: N_8  and  C_9
REMARK    6  A    between atoms: C_9  and  C_10
REMARK    7  A    between atoms: N_12  and  C_13
REMARK    8  A    between atoms: C_15  and  C_16
REMARK                            x       y       z     vdW  Elec       q    Type
REMARK                         _______ _______ _______ _____ _____    ______ ____
ROOT
ATOM      1  C   UNL     1       3.787   5.057  19.741  0.00  0.00    +0.000 A 
ATOM      2  C   UNL     1       3.549   3.832  20.339  0.00  0.00    +0.000 A 
ATOM      3  N   UNL     1       2.239   3.821  20.670  0.00  0.00    +0.000 N 
ATOM      4  C   UNL     1       1.511   2.705  21.227  0.00  0.00    +0.000 C 
ATOM      5  N   UNL     1       1.610   4.972  20.407  0.00  0.00    +0.000 NA
ATOM      6  C   UNL     1       2.538   5.758  19.835  0.00  0.00    +0.000 A 
ENDROOT
BRANCH   6   7
ATOM      7  C   UNL     1       2.192   7.124  19.394  0.00  0.00    +0.000 A 
ATOM      8  C   UNL     1       2.460   7.574  18.092  0.00  0.00    +0.000 A 
ATOM      9  C   UNL     1       2.114   8.865  17.680  0.00  0.00    +0.000 A 
ATOM     10  C   UNL     1       1.521   9.742  18.577  0.00  0.00    +0.000 A 
ATOM     11  C   UNL     1       1.270   9.321  19.882  0.00  0.00    +0.000 A 
ATOM     12 CL   UNL     1       0.560  10.423  21.001  0.00  0.00    +0.000 Cl
ATOM     13  C   UNL     1       1.597   8.026  20.292  0.00  0.00    +0.000 A 
ENDBRANCH   6   7
BRANCH   1  14
ATOM     14  C   UNL     1       5.083   5.454  19.123  0.00  0.00    +0.000 C 
BRANCH  14  18
ATOM     15  N   UNL     1       6.358   5.691  15.662  0.00  0.00    +0.000 NA
ATOM     16  C   UNL     1       4.964   5.413  16.068  0.00  0.00    +0.000 C 
ATOM     17  C   UNL     1       4.803   4.232  17.057  0.00  0.00    +0.000 C 
ATOM     18  N   UNL     1       5.617   4.373  18.281  0.00  0.00    +0.000 NA
ATOM     19  C   UNL     1       7.024   4.613  17.874  0.00  0.00    +0.000 C 
ATOM     20  C   UNL     1       7.203   5.787  16.879  0.00  0.00    +0.000 C 
BRANCH  15  21
ATOM     21  C   UNL     1       6.908   4.658  14.762  0.00  0.00    +0.000 C 
BRANCH  21  22
ATOM     22  C   UNL     1       5.913   4.089  13.743  0.00  0.00    +0.000 C 
BRANCH  22  24
ATOM     23  C   UNL     1       6.207   2.679  11.881  0.00  0.00    +0.000 C 
ATOM     24  O   UNL     1       6.598   3.896  12.502  0.00  0.00    +0.000 OA
ENDBRANCH  22  24
ENDBRANCH  21  22
ENDBRANCH  15  21
ENDBRANCH  14  18
ENDBRANCH   1  14
TORSDOF 6
ENDMDL
MODEL 2
REMARK VINA RESULT:      -7.2      4.127      7.460
REMARK  Name = 
REMARK  8 active torsions:
REMARK  status: ('A' for Active; 'I' for Inactive)
REMARK    1  A    between atoms: C_1  and  O_2
REMARK    2  A    between atoms: O_2  and  C_3
REMARK    3  A    between atoms: C_3  and  C_4
REMARK    4  A    between atoms: C_4  and  N_5
REMARK    5  A    between atoms: N_8  and  C_9
REMARK    6  A    between atoms: C_9  and  C_10
REMARK    7  A    between atoms: N_12  and  C_13
REMARK    8  A    between atoms: C_15  and  C_16
REMARK                            x       y       z     vdW  Elec       q    Type
REMARK                         _______ _______ _______ _____ _____    ______ ____
ROOT
ATOM      1  C   UNL     1       5.931   4.812  16.813  0.00  0.00    +0.000 A 
ATOM      2  C   UNL     1       6.378   5.538  17.903  0.00  0.00    +0.000 A 
ATOM      3  N   UNL     1       7.312   6.393  17.431  0.00  0.00    +0.000 N 
ATOM      4  C   UNL     1       7.984   7.422  18.189  0.00  0.00    +0.000 C 
ATOM      5  N   UNL     1       7.572   6.237  16.128  0.00  0.00    +0.000 NA
ATOM      6  C   UNL     1       6.738   5.266  15.716  0.00  0.00    +0.000 A 
ENDROOT
BRANCH   6   7
ATOM      7  C   UNL     1       6.736   4.830  14.306  0.00  0.00    +0.000 A 
ATOM      8  C   UNL     1       7.801   5.117  13.439  0.00  0.00    +0.000 A 
ATOM      9  C   UNL     1       7.797   4.685  12.108  0.00  0.00    +0.000 A 
ATOM     10  C   UNL     1       6.707   3.984  11.612  0.00  0.00    +0.000 A 
ATOM     11  C   UNL     1       5.628   3.711  12.452  0.00  0.00    +0.000 A 
ATOM     12 CL   UNL     1       4.264   2.865  11.824  0.00  0.00    +0.000 Cl
ATOM     13  C   UNL     1       5.638   4.124  13.786  0.00  0.00    +0.000 A 
ENDBRANCH   6   7
BRANCH   1  14
ATOM     14  C   UNL     1       4.816   3.825  16.859  0.00  0.00    +0.000 C 
BRANCH  14  18
ATOM     15  N   UNL     1       1.383   3.111  18.028  0.00  0.00    +0.000 NA
ATOM     16  C   UNL     1       1.998   4.446  17.869  0.00  0.00    +0.000 C 
ATOM     17  C   UNL     1       3.349   4.628  18.603  0.00  0.00    +0.000 C 
ATOM     18  N   UNL     1       4.358   3.613  18.240  0.00  0.00    +0.000 NA
ATOM     19  C   UNL     1       3.755   2.271  18.439  0.00  0.00    +0.000 C 
ATOM     20  C   UNL     1       2.399   2.075  17.715  0.00  0.00    +0.000 C 
BRANCH  15  21
ATOM     21  C   UNL     1       0.853   2.886  19.387  0.00  0.00    +0.000 C 
BRANCH  21  22
ATOM     22  C   UNL     1       0.831   4.126  20.289  0.00  0.00    +0.000 C 
BRANCH  22  24
ATOM     23  C   UNL     1       1.822   2.502  21.675  0.00  0.00    +0.000 C 
ATOM     24  O   UNL     1       1.697   3.891  21.403  0.00  0.00    +0.000 OA
ENDBRANCH  22  24
ENDBRANCH  21  22
ENDBRANCH  15  21
ENDBRANCH  14  18
ENDBRANCH   1  14
TORSDOF 6
ENDMDL
MODEL 3
REMARK VINA RESULT:      -7.2      0.815      1.232
REMARK  Name = 
REMARK  8 active torsions:
REMARK  status: ('A' for Active; 'I' for Inactive)
REMARK    1  A    between atoms: C_1  and  O_2
REMARK    2  A    between atoms: O_2  and  C_3
REMARK    3  A    between atoms: C_3  and  C_4
REMARK    4  A    between atoms: C_4  and  N_5
REMARK    5  A    between atoms: N_8  and  C_9
REMARK    6  A    between atoms: C_9  and  C_10
REMARK    7  A    between atoms: N_12  and  C_13
REMARK    8  A    between atoms: C_15  and  C_16
REMARK                            x       y       z     vdW  Elec       q    Type
REMARK                         _______ _______ _______ _____ _____    ______ ____
ROOT
ATOM      1  C   UNL     1       3.668   5.087  19.595  0.00  0.00    +0.000 A 
ATOM      2  C   UNL     1       3.482   3.834  20.153  0.00  0.00    +0.000 A 
ATOM      3  N   UNL     1       2.213   3.809  20.615  0.00  0.00    +0.000 N 
ATOM      4  C   UNL     1       1.537   2.669  21.188  0.00  0.00    +0.000 C 
ATOM      5  N   UNL     1       1.569   4.974  20.476  0.00  0.00    +0.000 NA
ATOM      6  C   UNL     1       2.440   5.785  19.852  0.00  0.00    +0.000 A 
ENDROOT
BRANCH   6   7
ATOM      7  C   UNL     1       2.062   7.172  19.517  0.00  0.00    +0.000 A 
ATOM      8  C   UNL     1       2.229   7.697  18.226  0.00  0.00    +0.000 A 
ATOM      9  C   UNL     1       1.853   9.008  17.916  0.00  0.00    +0.000 A 
ATOM     10  C   UNL     1       1.331   9.830  18.904  0.00  0.00    +0.000 A 
ATOM     11  C   UNL     1       1.180   9.334  20.199  0.00  0.00    +0.000 A 
ATOM     12 CL   UNL     1       0.559  10.368  21.430  0.00  0.00    +0.000 Cl
ATOM     13  C   UNL     1       1.538   8.020  20.508  0.00  0.00    +0.000 A 
ENDBRANCH   6   7
BRANCH   1  14
ATOM     14  C   UNL     1       4.897   5.510  18.868  0.00  0.00    +0.000 C 
BRANCH  14  18
ATOM     15  N   UNL     1       6.940   4.673  15.905  0.00  0.00    +0.000 NA
ATOM     16  C   UNL     1       7.013   5.917  16.699  0.00  0.00    +0.000 C 
ATOM     17  C   UNL     1       5.660   6.650  16.880  0.00  0.00    +0.000 C 
ATOM     18  N   UNL     1       4.601   5.798  17.457  0.00  0.00    +0.000 NA
ATOM     19  C   UNL     1       4.499   4.566  16.636  0.00  0.00    +0.000 C 
ATOM     20  C   UNL     1       5.846   3.824  16.440  0.00  0.00    +0.000 C 
BRANCH  15  21
ATOM     21  C   UNL     1       6.707   4.926  14.469  0.00  0.00    +0.000 C 
BRANCH  21  22
ATOM     22  C   UNL     1       6.335   3.688  13.644  0.00  0.00    +0.000 C 
BRANCH  22  24
ATOM     23  C   UNL     1       4.949   3.196  11.806  0.00  0.00    +0.000 C 
ATOM     24  O   UNL     1       5.070   3.927  13.018  0.00  0.00    +0.000 OA
ENDBRANCH  22  24
ENDBRANCH  21  22
ENDBRANCH  15  21
ENDBRANCH  14  18
ENDBRANCH   1  14
TORSDOF 6
ENDMDL
MODEL 4
REMARK VINA RESULT:      -7.2      3.645      6.829
REMARK  Name = 
REMARK  8 active torsions:
REMARK  status: ('A' for Active; 'I' for Inactive)
REMARK    1  A    between atoms: C_1  and  O_2
REMARK    2  A    between atoms: O_2  and  C_3
REMARK    3  A    between atoms: C_3  and  C_4
REMARK    4  A    between atoms: C_4  and  N_5
REMARK    5  A    between atoms: N_8  and  C_9
REMARK    6  A    between atoms: C_9  and  C_10
REMARK    7  A    between atoms: N_12  and  C_13
REMARK    8  A    between atoms: C_15  and  C_16
REMARK                            x       y       z     vdW  Elec       q    Type
REMARK                         _______ _______ _______ _____ _____    ______ ____
ROOT
ATOM      1  C   UNL     1       5.214   4.950  15.739  0.00  0.00    +0.000 A 
ATOM      2  C   UNL     1       5.165   4.415  14.464  0.00  0.00    +0.000 A 
ATOM      3  N   UNL     1       6.435   4.416  14.004  0.00  0.00    +0.000 N 
ATOM      4  C   UNL     1       6.888   3.854  12.753  0.00  0.00    +0.000 C 
ATOM      5  N   UNL     1       7.309   4.980  14.845  0.00  0.00    +0.000 NA
ATOM      6  C   UNL     1       6.587   5.323  15.926  0.00  0.00    +0.000 A 
ENDROOT
BRANCH   6   7
ATOM      7  C   UNL     1       7.235   5.971  17.083  0.00  0.00    +0.000 A 
ATOM      8  C   UNL     1       7.561   5.259  18.247  0.00  0.00    +0.000 A 
ATOM      9  C   UNL     1       8.189   5.880  19.331  0.00  0.00    +0.000 A 
ATOM     10  C   UNL     1       8.473   7.238  19.282  0.00  0.00    +0.000 A 
ATOM     11  C   UNL     1       8.134   7.967  18.144  0.00  0.00    +0.000 A 
ATOM     12 CL   UNL     1       8.462   9.659  18.099  0.00  0.00    +0.000 Cl
ATOM     13  C   UNL     1       7.524   7.347  17.051  0.00  0.00    +0.000 A 
ENDBRANCH   6   7
BRANCH   1  14
ATOM     14  C   UNL     1       4.046   5.038  16.660  0.00  0.00    +0.000 C 
BRANCH  14  18
ATOM     15  N   UNL     1       1.503   3.175  18.589  0.00  0.00    +0.000 NA
ATOM     16  C   UNL     1       1.946   4.564  18.831  0.00  0.00    +0.000 C 
ATOM     17  C   UNL     1       3.477   4.737  18.988  0.00  0.00    +0.000 C 
ATOM     18  N   UNL     1       4.251   4.200  17.851  0.00  0.00    +0.000 NA
ATOM     19  C   UNL     1       3.836   2.792  17.633  0.00  0.00    +0.000 C 
ATOM     20  C   UNL     1       2.305   2.601  17.479  0.00  0.00    +0.000 C 
BRANCH  15  21
ATOM     21  C   UNL     1       1.634   2.318  19.784  0.00  0.00    +0.000 C 
BRANCH  21  22
ATOM     22  C   UNL     1       1.199   2.971  21.101  0.00  0.00    +0.000 C 
BRANCH  22  24
ATOM     23  C   UNL     1       3.389   2.196  21.478  0.00  0.00    +0.000 C 
ATOM     24  O   UNL     1       2.229   2.761  22.072  0.00  0.00    +0.000 OA
ENDBRANCH  22  24
ENDBRANCH  21  22
ENDBRANCH  15  21
ENDBRANCH  14  18
ENDBRANCH   1  14
TORSDOF 6
ENDMDL
MODEL 5
REMARK VINA RESULT:      -7.1      3.123      6.930
REMARK  Name = 
REMARK  8 active torsions:
REMARK  status: ('A' for Active; 'I' for Inactive)
REMARK    1  A    between atoms: C_1  and  O_2
REMARK    2  A    between atoms: O_2  and  C_3
REMARK    3  A    between atoms: C_3  and  C_4
REMARK    4  A    between atoms: C_4  and  N_5
REMARK    5  A    between atoms: N_8  and  C_9
REMARK    6  A    between atoms: C_9  and  C_10
REMARK    7  A    between atoms: N_12  and  C_13
REMARK    8  A    between atoms: C_15  and  C_16
REMARK                            x       y       z     vdW  Elec       q    Type
REMARK                         _______ _______ _______ _____ _____    ______ ____
ROOT
ATOM      1  C   UNL     1       5.674   4.077  15.608  0.00  0.00    +0.000 A 
ATOM      2  C   UNL     1       5.619   3.751  14.264  0.00  0.00    +0.000 A 
ATOM      3  N   UNL     1       6.675   4.361  13.683  0.00  0.00    +0.000 N 
ATOM      4  C   UNL     1       7.085   4.224  12.304  0.00  0.00    +0.000 C 
ATOM      5  N   UNL     1       7.381   5.127  14.523  0.00  0.00    +0.000 NA
ATOM      6  C   UNL     1       6.788   4.976  15.719  0.00  0.00    +0.000 A 
ENDROOT
BRANCH   6   7
ATOM      7  C   UNL     1       7.313   5.677  16.908  0.00  0.00    +0.000 A 
ATOM      8  C   UNL     1       7.630   4.995  18.092  0.00  0.00    +0.000 A 
ATOM      9  C   UNL     1       8.143   5.666  19.207  0.00  0.00    +0.000 A 
ATOM     10  C   UNL     1       8.316   7.043  19.167  0.00  0.00    +0.000 A 
ATOM     11  C   UNL     1       7.982   7.741  18.007  0.00  0.00    +0.000 A 
ATOM     12 CL   UNL     1       8.171   9.454  17.971  0.00  0.00    +0.000 Cl
ATOM     13  C   UNL     1       7.488   7.071  16.885  0.00  0.00    +0.000 A 
ENDBRANCH   6   7
BRANCH   1  14
ATOM     14  C   UNL     1       4.757   3.528  16.645  0.00  0.00    +0.000 C 
BRANCH  14  18
ATOM     15  N   UNL     1       2.896   4.210  19.764  0.00  0.00    +0.000 NA
ATOM     16  C   UNL     1       2.616   3.133  18.792  0.00  0.00    +0.000 C 
ATOM     17  C   UNL     1       2.442   3.612  17.329  0.00  0.00    +0.000 C 
ATOM     18  N   UNL     1       3.586   4.398  16.826  0.00  0.00    +0.000 NA
ATOM     19  C   UNL     1       3.842   5.504  17.782  0.00  0.00    +0.000 C 
ATOM     20  C   UNL     1       4.013   5.042  19.252  0.00  0.00    +0.000 C 
BRANCH  15  21
ATOM     21  C   UNL     1       1.722   5.067  20.021  0.00  0.00    +0.000 C 
BRANCH  21  22
ATOM     22  C   UNL     1       1.973   6.247  20.966  0.00  0.00    +0.000 C 
BRANCH  22  24
ATOM     23  C   UNL     1       1.116   8.434  21.133  0.00  0.00    +0.000 C 
ATOM     24  O   UNL     1       1.677   7.459  20.265  0.00  0.00    +0.000 OA
ENDBRANCH  22  24
ENDBRANCH  21  22
ENDBRANCH  15  21
ENDBRANCH  14  18
ENDBRANCH   1  14
TORSDOF 6
ENDMDL
MODEL 6
REMARK VINA RESULT:      -6.7      2.434      4.214
REMARK  Name = 
REMARK  8 active torsions:
REMARK  status: ('A' for Active; 'I' for Inactive)
REMARK    1  A    between atoms: C_1  and  O_2
REMARK    2  A    between atoms: O_2  and  C_3
REMARK    3  A    between atoms: C_3  and  C_4
REMARK    4  A    between atoms: C_4  and  N_5
REMARK    5  A    between atoms: N_8  and  C_9
REMARK    6  A    between atoms: C_9  and  C_10
REMARK    7  A    between atoms: N_12  and  C_13
REMARK    8  A    between atoms: C_15  and  C_16
REMARK                            x       y       z     vdW  Elec       q    Type
REMARK                         _______ _______ _______ _____ _____    ______ ____
ROOT
ATOM      1  C   UNL     1       3.933   6.722  17.832  0.00  0.00    +0.000 A 
ATOM      2  C   UNL     1       3.624   8.050  17.596  0.00  0.00    +0.000 A 
ATOM      3  N   UNL     1       2.311   8.190  17.883  0.00  0.00    +0.000 N 
ATOM      4  C   UNL     1       1.567   9.428  17.882  0.00  0.00    +0.000 C 
ATOM      5  N   UNL     1       1.710   7.042  18.217  0.00  0.00    +0.000 NA
ATOM      6  C   UNL     1       2.683   6.115  18.192  0.00  0.00    +0.000 A 
ENDROOT
BRANCH   6   7
ATOM      7  C   UNL     1       2.384   4.709  18.526  0.00  0.00    +0.000 A 
ATOM      8  C   UNL     1       2.417   3.693  17.559  0.00  0.00    +0.000 A 
ATOM      9  C   UNL     1       2.148   2.361  17.889  0.00  0.00    +0.000 A 
ATOM     10  C   UNL     1       1.807   2.026  19.192  0.00  0.00    +0.000 A 
ATOM     11  C   UNL     1       1.744   3.026  20.161  0.00  0.00    +0.000 A 
ATOM     12 CL   UNL     1       1.292   2.610  21.772  0.00  0.00    +0.000 Cl
ATOM     13  C   UNL     1       2.031   4.354  19.839  0.00  0.00    +0.000 A 
ENDBRANCH   6   7
BRANCH   1  14
ATOM     14  C   UNL     1       5.305   6.150  17.746  0.00  0.00    +0.000 C 
BRANCH  14  18
ATOM     15  N   UNL     1       6.215   3.866  14.985  0.00  0.00    +0.000 NA
ATOM     16  C   UNL     1       7.073   4.254  16.124  0.00  0.00    +0.000 C 
ATOM     17  C   UNL     1       7.227   5.782  16.328  0.00  0.00    +0.000 C 
ATOM     18  N   UNL     1       5.938   6.491  16.463  0.00  0.00    +0.000 NA
ATOM     19  C   UNL     1       5.091   6.133  15.298  0.00  0.00    +0.000 C 
ATOM     20  C   UNL     1       4.932   4.607  15.077  0.00  0.00    +0.000 C 
BRANCH  15  21
ATOM     21  C   UNL     1       6.846   4.135  13.678  0.00  0.00    +0.000 C 
BRANCH  21  22
ATOM     22  C   UNL     1       6.179   3.446  12.481  0.00  0.00    +0.000 C 
BRANCH  22  24
ATOM     23  C   UNL     1       6.912   1.627  11.180  0.00  0.00    +0.000 C 
ATOM     24  O   UNL     1       7.205   2.945  11.619  0.00  0.00    +0.000 OA
ENDBRANCH  22  24
ENDBRANCH  21  22
ENDBRANCH  15  21
ENDBRANCH  14  18
ENDBRANCH   1  14
TORSDOF 6
ENDMDL
MODEL 7
REMARK VINA RESULT:      -6.6      3.990      7.275
REMARK  Name = 
REMARK  8 active torsions:
REMARK  status: ('A' for Active; 'I' for Inactive)
REMARK    1  A    between atoms: C_1  and  O_2
REMARK    2  A    between atoms: O_2  and  C_3
REMARK    3  A    between atoms: C_3  and  C_4
REMARK    4  A    between atoms: C_4  and  N_5
REMARK    5  A    between atoms: N_8  and  C_9
REMARK    6  A    between atoms: C_9  and  C_10
REMARK    7  A    between atoms: N_12  and  C_13
REMARK    8  A    between atoms: C_15  and  C_16
REMARK                            x       y       z     vdW  Elec       q    Type
REMARK                         _______ _______ _______ _____ _____    ______ ____
ROOT
ATOM      1  C   UNL     1       2.291   5.094  19.001  0.00  0.00    +0.000 A 
ATOM      2  C   UNL     1       1.419   4.486  19.886  0.00  0.00    +0.000 A 
ATOM      3  N   UNL     1       2.099   3.462  20.445  0.00  0.00    +0.000 N 
ATOM      4  C   UNL     1       1.627   2.604  21.506  0.00  0.00    +0.000 C 
ATOM      5  N   UNL     1       3.329   3.298  19.943  0.00  0.00    +0.000 NA
ATOM      6  C   UNL     1       3.478   4.288  19.046  0.00  0.00    +0.000 A 
ENDROOT
BRANCH   6   7
ATOM      7  C   UNL     1       4.739   4.430  18.292  0.00  0.00    +0.000 A 
ATOM      8  C   UNL     1       5.918   4.892  18.895  0.00  0.00    +0.000 A 
ATOM      9  C   UNL     1       7.111   5.008  18.175  0.00  0.00    +0.000 A 
ATOM     10  C   UNL     1       7.136   4.693  16.823  0.00  0.00    +0.000 A 
ATOM     11  C   UNL     1       5.968   4.255  16.200  0.00  0.00    +0.000 A 
ATOM     12 CL   UNL     1       5.998   3.893  14.515  0.00  0.00    +0.000 Cl
ATOM     13  C   UNL     1       4.780   4.121  16.921  0.00  0.00    +0.000 A 
ENDBRANCH   6   7
BRANCH   1  14
ATOM     14  C   UNL     1       1.987   6.340  18.242  0.00  0.00    +0.000 C 
BRANCH  14  18
ATOM     15  N   UNL     1       0.532   9.596  19.210  0.00  0.00    +0.000 NA
ATOM     16  C   UNL     1       1.106   9.247  17.894  0.00  0.00    +0.000 C 
ATOM     17  C   UNL     1       2.544   8.672  17.947  0.00  0.00    +0.000 C 
ATOM     18  N   UNL     1       2.676   7.497  18.832  0.00  0.00    +0.000 NA
ATOM     19  C   UNL     1       2.136   7.860  20.166  0.00  0.00    +0.000 C 
ATOM     20  C   UNL     1       0.700   8.442  20.129  0.00  0.00    +0.000 C 
BRANCH  15  21
ATOM     21  C   UNL     1       1.156  10.794  19.805  0.00  0.00    +0.000 C 
BRANCH  21  22
ATOM     22  C   UNL     1       0.216  11.666  20.646  0.00  0.00    +0.000 C 
BRANCH  22  24
ATOM     23  C   UNL     1      -0.869  11.120  22.662  0.00  0.00    +0.000 C 
ATOM     24  O   UNL     1       0.384  11.315  22.023  0.00  0.00    +0.000 OA
ENDBRANCH  22  24
ENDBRANCH  21  22
ENDBRANCH  15  21
ENDBRANCH  14  18
ENDBRANCH   1  14
TORSDOF 6
ENDMDL
MODEL 8
REMARK VINA RESULT:      -6.6      3.360      6.987
REMARK  Name = 
REMARK  8 active torsions:
REMARK  status: ('A' for Active; 'I' for Inactive)
REMARK    1  A    between atoms: C_1  and  O_2
REMARK    2  A    between atoms: O_2  and  C_3
REMARK    3  A    between atoms: C_3  and  C_4
REMARK    4  A    between atoms: C_4  and  N_5
REMARK    5  A    between atoms: N_8  and  C_9
REMARK    6  A    between atoms: C_9  and  C_10
REMARK    7  A    between atoms: N_12  and  C_13
REMARK    8  A    between atoms: C_15  and  C_16
REMARK                            x       y       z     vdW  Elec       q    Type
REMARK                         _______ _______ _______ _____ _____    ______ ____
ROOT
ATOM      1  C   UNL     1       5.708   4.100  15.677  0.00  0.00    +0.000 A 
ATOM      2  C   UNL     1       5.621   3.692  14.358  0.00  0.00    +0.000 A 
ATOM      3  N   UNL     1       6.601   4.343  13.695  0.00  0.00    +0.000 N 
ATOM      4  C   UNL     1       6.962   4.156  12.309  0.00  0.00    +0.000 C 
ATOM      5  N   UNL     1       7.281   5.208  14.457  0.00  0.00    +0.000 NA
ATOM      6  C   UNL     1       6.752   5.084  15.687  0.00  0.00    +0.000 A 
ENDROOT
BRANCH   6   7
ATOM      7  C   UNL     1       7.272   5.891  16.809  0.00  0.00    +0.000 A 
ATOM      8  C   UNL     1       7.469   7.276  16.699  0.00  0.00    +0.000 A 
ATOM      9  C   UNL     1       7.947   8.033  17.773  0.00  0.00    +0.000 A 
ATOM     10  C   UNL     1       8.268   7.410  18.971  0.00  0.00    +0.000 A 
ATOM     11  C   UNL     1       8.101   6.031  19.091  0.00  0.00    +0.000 A 
ATOM     12 CL   UNL     1       8.528   5.257  20.571  0.00  0.00    +0.000 Cl
ATOM     13  C   UNL     1       7.606   5.274  18.027  0.00  0.00    +0.000 A 
ENDBRANCH   6   7
BRANCH   1  14
ATOM     14  C   UNL     1       4.881   3.546  16.785  0.00  0.00    +0.000 C 
BRANCH  14  18
ATOM     15  N   UNL     1       3.247   4.845  19.835  0.00  0.00    +0.000 NA
ATOM     16  C   UNL     1       3.067   3.501  19.247  0.00  0.00    +0.000 C 
ATOM     17  C   UNL     1       2.666   3.499  17.750  0.00  0.00    +0.000 C 
ATOM     18  N   UNL     1       3.597   4.256  16.890  0.00  0.00    +0.000 NA
ATOM     19  C   UNL     1       3.747   5.619  17.458  0.00  0.00    +0.000 C 
ATOM     20  C   UNL     1       4.142   5.639  18.957  0.00  0.00    +0.000 C 
BRANCH  15  21
ATOM     21  C   UNL     1       1.970   5.564  20.015  0.00  0.00    +0.000 C 
BRANCH  21  22
ATOM     22  C   UNL     1       2.102   7.074  20.245  0.00  0.00    +0.000 C 
BRANCH  22  24
ATOM     23  C   UNL     1       1.184   8.869  21.460  0.00  0.00    +0.000 C 
ATOM     24  O   UNL     1       1.096   7.480  21.178  0.00  0.00    +0.000 OA
ENDBRANCH  22  24
ENDBRANCH  21  22
ENDBRANCH  15  21
ENDBRANCH  14  18
ENDBRANCH   1  14
TORSDOF 6
ENDMDL
MODEL 9
REMARK VINA RESULT:      -6.5      1.231      1.896
REMARK  Name = 
REMARK  8 active torsions:
REMARK  status: ('A' for Active; 'I' for Inactive)
REMARK    1  A    between atoms: C_1  and  O_2
REMARK    2  A    between atoms: O_2  and  C_3
REMARK    3  A    between atoms: C_3  and  C_4
REMARK    4  A    between atoms: C_4  and  N_5
REMARK    5  A    between atoms: N_8  and  C_9
REMARK    6  A    between atoms: C_9  and  C_10
REMARK    7  A    between atoms: N_12  and  C_13
REMARK    8  A    between atoms: C_15  and  C_16
REMARK                            x       y       z     vdW  Elec       q    Type
REMARK                         _______ _______ _______ _____ _____    ______ ____
ROOT
ATOM      1  C   UNL     1       3.725   5.014  19.527  0.00  0.00    +0.000 A 
ATOM      2  C   UNL     1       3.626   3.640  19.648  0.00  0.00    +0.000 A 
ATOM      3  N   UNL     1       2.347   3.382  20.000  0.00  0.00    +0.000 N 
ATOM      4  C   UNL     1       1.750   2.074  20.140  0.00  0.00    +0.000 C 
ATOM      5  N   UNL     1       1.612   4.483  20.194  0.00  0.00    +0.000 NA
ATOM      6  C   UNL     1       2.434   5.509  19.913  0.00  0.00    +0.000 A 
ENDROOT
BRANCH   6   7
ATOM      7  C   UNL     1       1.952   6.901  20.009  0.00  0.00    +0.000 A 
ATOM      8  C   UNL     1       1.261   7.371  21.136  0.00  0.00    +0.000 A 
ATOM      9  C   UNL     1       0.822   8.697  21.223  0.00  0.00    +0.000 A 
ATOM     10  C   UNL     1       1.040   9.569  20.165  0.00  0.00    +0.000 A 
ATOM     11  C   UNL     1       1.703   9.112  19.027  0.00  0.00    +0.000 A 
ATOM     12 CL   UNL     1       1.945  10.190  17.704  0.00  0.00    +0.000 Cl
ATOM     13  C   UNL     1       2.159   7.795  18.944  0.00  0.00    +0.000 A 
ENDBRANCH   6   7
BRANCH   1  14
ATOM     14  C   UNL     1       4.939   5.732  19.048  0.00  0.00    +0.000 C 
BRANCH  14  18
ATOM     15  N   UNL     1       6.878   4.609  16.109  0.00  0.00    +0.000 NA
ATOM     16  C   UNL     1       7.193   5.759  16.982  0.00  0.00    +0.000 C 
ATOM     17  C   UNL     1       6.035   6.771  17.163  0.00  0.00    +0.000 C 
ATOM     18  N   UNL     1       4.784   6.155  17.649  0.00  0.00    +0.000 NA
ATOM     19  C   UNL     1       4.445   5.025  16.748  0.00  0.00    +0.000 C 
ATOM     20  C   UNL     1       5.596   4.006  16.552  0.00  0.00    +0.000 C 
BRANCH  15  21
ATOM     21  C   UNL     1       6.778   4.986  14.685  0.00  0.00    +0.000 C 
BRANCH  21  22
ATOM     22  C   UNL     1       6.473   3.828  13.727  0.00  0.00    +0.000 C 
BRANCH  22  24
ATOM     23  C   UNL     1       4.971   3.260  12.005  0.00  0.00    +0.000 C 
ATOM     24  O   UNL     1       5.159   4.017  13.193  0.00  0.00    +0.000 OA
ENDBRANCH  22  24
ENDBRANCH  21  22
ENDBRANCH  15  21
ENDBRANCH  14  18
ENDBRANCH   1  14
TORSDOF 6
ENDMDL
