MODEL 1
REMARK VINA RESULT:      -7.4      0.000      0.000
REMARK  Name = 
REMARK  11 active torsions:
REMARK  status: ('A' for Active; 'I' for Inactive)
REMARK    1  A    between atoms: CG_2  and  CB_4
REMARK    2  A    between atoms: CB_4  and  CA_5
REMARK    3  A    between atoms: CA_5  and  N_6
REMARK    4  A    between atoms: CA_5  and  C_23
REMARK    5  A    between atoms: C_7  and  C_9
REMARK    6  A    between atoms: N_12  and  C1*_13
REMARK    7  A    between atoms: C4*_15  and  C5*_16
REMARK    8  A    between atoms: C5*_16  and  O5*_17
REMARK    9  A    between atoms: C3*_18  and  O3*_19
REMARK   10  A    between atoms: C2*_20  and  O2*_21
REMARK   11  A    between atoms: C_23  and  OXT_25
REMARK                            x       y       z     vdW  Elec       q    Type
REMARK                         _______ _______ _______ _____ _____    ______ ____
ROOT
ATOM      1  C   UNL     1       2.788   6.488  19.372  0.00  0.00    +0.000 A 
ATOM      2  N   UNL     1       2.531   7.302  18.295  0.00  0.00    +0.000 NA
ATOM      3  C   UNL     1       3.604   7.205  17.553  0.00  0.00    +0.000 A 
ATOM      4  N   UNL     1       4.477   6.343  18.136  0.00  0.00    +0.000 N 
ATOM      5  N   UNL     1       4.012   5.914  19.334  0.00  0.00    +0.000 NA
ENDROOT
BRANCH   1   7
ATOM      6  N   UNL     1       1.474   5.113  21.000  0.00  0.00    +0.000 NA
ATOM      7  C   UNL     1       1.838   6.245  20.481  0.00  0.00    +0.000 C 
ATOM      8  N   UNL     1       1.346   7.404  21.015  0.00  0.00    +0.000 N 
ATOM      9  H   UNL     1       0.974   7.338  21.953  0.00  0.00    +0.000 HD
ATOM     10  H   UNL     1       1.914   8.231  20.834  0.00  0.00    +0.000 HD
BRANCH   6  11
ATOM     11  CA  UNL     1       1.969   3.809  20.471  0.00  0.00    +0.000 C 
BRANCH  11  12
ATOM     12  C   UNL     1       2.092   2.838  21.645  0.00  0.00    +0.000 C 
ATOM     13  O   UNL     1       3.125   2.292  22.003  0.00  0.00    +0.000 OA
BRANCH  12  14
ATOM     14  OXT UNL     1       0.894   2.584  22.234  0.00  0.00    +0.000 OA
ATOM     15  HXT UNL     1       0.544   1.757  21.833  0.00  0.00    +0.000 HD
ENDBRANCH  12  14
ENDBRANCH  11  12
BRANCH  11  16
ATOM     16  CB  UNL     1       0.967   3.220  19.480  0.00  0.00    +0.000 C 
BRANCH  16  18
ATOM     17  ND2 UNL     1       2.202   1.804  17.948  0.00  0.00    +0.000 N 
ATOM     18  CG  UNL     1       1.573   3.003  18.117  0.00  0.00    +0.000 C 
ATOM     19  OD1 UNL     1       1.558   3.841  17.221  0.00  0.00    +0.000 OA
ATOM     20 HD21 UNL     1       2.515   1.580  17.011  0.00  0.00    +0.000 HD
ATOM     21 HD22 UNL     1       1.935   1.032  18.553  0.00  0.00    +0.000 HD
ENDBRANCH  16  18
ENDBRANCH  11  16
ENDBRANCH   6  11
ENDBRANCH   1   7
BRANCH   4  22
ATOM     22  C1* UNL     1       5.748   5.919  17.567  0.00  0.00    +0.000 C 
ATOM     23  O4* UNL     1       5.901   6.438  16.225  0.00  0.00    +0.000 OA
ATOM     24  C4* UNL     1       6.308   5.350  15.358  0.00  0.00    +0.000 C 
ATOM     25  C3* UNL     1       6.776   4.232  16.281  0.00  0.00    +0.000 C 
ATOM     26  C2* UNL     1       5.890   4.403  17.504  0.00  0.00    +0.000 C 
BRANCH  25  27
ATOM     27  O3* UNL     1       8.139   4.419  16.707  0.00  0.00    +0.000 OA
ATOM     28  H3* UNL     1       8.189   5.192  17.301  0.00  0.00    +0.000 HD
ENDBRANCH  25  27
BRANCH  26  29
ATOM     29  O2* UNL     1       6.501   3.863  18.675  0.00  0.00    +0.000 OA
ATOM     30  H2* UNL     1       7.471   3.927  18.533  0.00  0.00    +0.000 HD
ENDBRANCH  26  29
BRANCH  24  31
ATOM     31  C5* UNL     1       5.119   4.947  14.483  0.00  0.00    +0.000 C 
BRANCH  31  32
ATOM     32  O5* UNL     1       5.504   3.899  13.597  0.00  0.00    +0.000 OA
ATOM     33  H5* UNL     1       6.320   3.512  13.970  0.00  0.00    +0.000 HD
ENDBRANCH  31  32
ENDBRANCH  24  31
ENDBRANCH   4  22
TORSDOF 11
ENDMDL
MODEL 2
REMARK VINA RESULT:      -7.4      1.037      2.278
REMARK  Name = 
REMARK  11 active torsions:
REMARK  status: ('A' for Active; 'I' for Inactive)
REMARK    1  A    between atoms: CG_2  and  CB_4
REMARK    2  A    between atoms: CB_4  and  CA_5
REMARK    3  A    between atoms: CA_5  and  N_6
REMARK    4  A    between atoms: CA_5  and  C_23
REMARK    5  A    between atoms: C_7  and  C_9
REMARK    6  A    between atoms: N_12  and  C1*_13
REMARK    7  A    between atoms: C4*_15  and  C5*_16
REMARK    8  A    between atoms: C5*_16  and  O5*_17
REMARK    9  A    between atoms: C3*_18  and  O3*_19
REMARK   10  A    between atoms: C2*_20  and  O2*_21
REMARK   11  A    between atoms: C_23  and  OXT_25
REMARK                            x       y       z     vdW  Elec       q    Type
REMARK                         _______ _______ _______ _____ _____    ______ ____
ROOT
ATOM      1  C   UNL     1       2.699   6.235  19.346  0.00  0.00    +0.000 A 
ATOM      2  N   UNL     1       2.475   7.184  18.379  0.00  0.00    +0.000 NA
ATOM      3  C   UNL     1       3.385   6.943  17.470  0.00  0.00    +0.000 A 
ATOM      4  N   UNL     1       4.125   5.868  17.851  0.00  0.00    +0.000 N 
ATOM      5  N   UNL     1       3.753   5.430  19.078  0.00  0.00    +0.000 NA
ENDROOT
BRANCH   1   7
ATOM      6  N   UNL     1       1.528   4.994  21.177  0.00  0.00    +0.000 NA
ATOM      7  C   UNL     1       1.887   6.085  20.574  0.00  0.00    +0.000 C 
ATOM      8  N   UNL     1       1.534   7.288  21.121  0.00  0.00    +0.000 N 
ATOM      9  H   UNL     1       1.281   7.273  22.100  0.00  0.00    +0.000 HD
ATOM     10  H   UNL     1       2.120   8.072  20.839  0.00  0.00    +0.000 HD
BRANCH   6  11
ATOM     11  CA  UNL     1       1.876   3.646  20.641  0.00  0.00    +0.000 C 
BRANCH  11  12
ATOM     12  C   UNL     1       1.940   2.670  21.815  0.00  0.00    +0.000 C 
ATOM     13  O   UNL     1       1.009   2.402  22.559  0.00  0.00    +0.000 OA
BRANCH  12  14
ATOM     14  OXT UNL     1       3.186   2.159  21.996  0.00  0.00    +0.000 OA
ATOM     15  HXT UNL     1       3.118   1.477  22.702  0.00  0.00    +0.000 HD
ENDBRANCH  12  14
ENDBRANCH  11  12
BRANCH  11  16
ATOM     16  CB  UNL     1       0.789   3.156  19.685  0.00  0.00    +0.000 C 
BRANCH  16  18
ATOM     17  ND2 UNL     1       2.016   1.778  18.111  0.00  0.00    +0.000 N 
ATOM     18  CG  UNL     1       1.315   2.935  18.289  0.00  0.00    +0.000 C 
ATOM     19  OD1 UNL     1       1.177   3.739  17.373  0.00  0.00    +0.000 OA
ATOM     20 HD21 UNL     1       2.280   1.545  17.161  0.00  0.00    +0.000 HD
ATOM     21 HD22 UNL     1       1.848   1.010  18.756  0.00  0.00    +0.000 HD
ENDBRANCH  16  18
ENDBRANCH  11  16
ENDBRANCH   6  11
ENDBRANCH   1   7
BRANCH   4  22
ATOM     22  C1* UNL     1       5.180   5.251  17.061  0.00  0.00    +0.000 C 
ATOM     23  O4* UNL     1       6.003   4.398  17.893  0.00  0.00    +0.000 OA
ATOM     24  C4* UNL     1       7.394   4.717  17.639  0.00  0.00    +0.000 C 
ATOM     25  C3* UNL     1       7.411   5.520  16.345  0.00  0.00    +0.000 C 
ATOM     26  C2* UNL     1       6.091   6.274  16.392  0.00  0.00    +0.000 C 
BRANCH  25  27
ATOM     27  O3* UNL     1       7.380   4.671  15.182  0.00  0.00    +0.000 OA
ATOM     28  H3* UNL     1       8.071   3.987  15.263  0.00  0.00    +0.000 HD
ENDBRANCH  25  27
BRANCH  26  29
ATOM     29  O2* UNL     1       5.643   6.630  15.085  0.00  0.00    +0.000 OA
ATOM     30  H2* UNL     1       4.915   6.009  14.865  0.00  0.00    +0.000 HD
ENDBRANCH  26  29
BRANCH  24  31
ATOM     31  C5* UNL     1       7.946   5.495  18.836  0.00  0.00    +0.000 C 
BRANCH  31  32
ATOM     32  O5* UNL     1       7.028   5.426  19.923  0.00  0.00    +0.000 OA
ATOM     33  H5* UNL     1       7.087   4.514  20.272  0.00  0.00    +0.000 HD
ENDBRANCH  31  32
ENDBRANCH  24  31
ENDBRANCH   4  22
TORSDOF 11
ENDMDL
MODEL 3
REMARK VINA RESULT:      -7.3      2.450      6.601
REMARK  Name = 
REMARK  11 active torsions:
REMARK  status: ('A' for Active; 'I' for Inactive)
REMARK    1  A    between atoms: CG_2  and  CB_4
REMARK    2  A    between atoms: CB_4  and  CA_5
REMARK    3  A    between atoms: CA_5  and  N_6
REMARK    4  A    between atoms: CA_5  and  C_23
REMARK    5  A    between atoms: C_7  and  C_9
REMARK    6  A    between atoms: N_12  and  C1*_13
REMARK    7  A    between atoms: C4*_15  and  C5*_16
REMARK    8  A    between atoms: C5*_16  and  O5*_17
REMARK    9  A    between atoms: C3*_18  and  O3*_19
REMARK   10  A    between atoms: C2*_20  and  O2*_21
REMARK   11  A    between atoms: C_23  and  OXT_25
REMARK                            x       y       z     vdW  Elec       q    Type
REMARK                         _______ _______ _______ _____ _____    ______ ____
ROOT
ATOM      1  C   UNL     1       4.749   5.880  16.934  0.00  0.00    +0.000 A 
ATOM      2  N   UNL     1       4.127   6.907  17.602  0.00  0.00    +0.000 NA
ATOM      3  C   UNL     1       3.032   6.369  18.077  0.00  0.00    +0.000 A 
ATOM      4  N   UNL     1       2.995   5.054  17.737  0.00  0.00    +0.000 N 
ATOM      5  N   UNL     1       4.048   4.723  16.951  0.00  0.00    +0.000 NA
ENDROOT
BRANCH   1   7
ATOM      6  N   UNL     1       7.209   6.307  16.759  0.00  0.00    +0.000 NA
ATOM      7  C   UNL     1       6.057   5.998  16.250  0.00  0.00    +0.000 C 
ATOM      8  N   UNL     1       5.984   5.687  14.920  0.00  0.00    +0.000 N 
ATOM      9  H   UNL     1       6.854   5.425  14.477  0.00  0.00    +0.000 HD
ATOM     10  H   UNL     1       5.179   5.120  14.659  0.00  0.00    +0.000 HD
BRANCH   6  11
ATOM     11  CA  UNL     1       7.365   6.657  18.200  0.00  0.00    +0.000 C 
BRANCH  11  12
ATOM     12  C   UNL     1       7.746   5.385  18.958  0.00  0.00    +0.000 C 
ATOM     13  O   UNL     1       7.966   4.299  18.444  0.00  0.00    +0.000 OA
BRANCH  12  14
ATOM     14  OXT UNL     1       7.758   5.568  20.305  0.00  0.00    +0.000 OA
ATOM     15  HXT UNL     1       7.338   6.441  20.481  0.00  0.00    +0.000 HD
ENDBRANCH  12  14
ENDBRANCH  11  12
BRANCH  11  16
ATOM     16  CB  UNL     1       8.497   7.667  18.385  0.00  0.00    +0.000 C 
BRANCH  16  18
ATOM     17  ND2 UNL     1       8.864  10.061  18.487  0.00  0.00    +0.000 N 
ATOM     18  CG  UNL     1       8.091   9.060  17.976  0.00  0.00    +0.000 C 
ATOM     19  OD1 UNL     1       7.116   9.308  17.274  0.00  0.00    +0.000 OA
ATOM     20 HD21 UNL     1       8.690  10.996  18.138  0.00  0.00    +0.000 HD
ATOM     21 HD22 UNL     1       9.811   9.836  18.780  0.00  0.00    +0.000 HD
ENDBRANCH  16  18
ENDBRANCH  11  16
ENDBRANCH   6  11
ENDBRANCH   1   7
BRANCH   4  22
ATOM     22  C1* UNL     1       1.971   4.106  18.152  0.00  0.00    +0.000 C 
ATOM     23  O4* UNL     1       1.249   4.611  19.300  0.00  0.00    +0.000 OA
ATOM     24  C4* UNL     1       1.187   3.562  20.298  0.00  0.00    +0.000 C 
ATOM     25  C3* UNL     1       1.555   2.273  19.575  0.00  0.00    +0.000 C 
ATOM     26  C2* UNL     1       2.544   2.743  18.520  0.00  0.00    +0.000 C 
BRANCH  25  27
ATOM     27  O3* UNL     1       0.428   1.700  18.885  0.00  0.00    +0.000 OA
ATOM     28  H3* UNL     1       0.395   2.049  17.975  0.00  0.00    +0.000 HD
ENDBRANCH  25  27
BRANCH  26  29
ATOM     29  O2* UNL     1       2.586   1.851  17.407  0.00  0.00    +0.000 OA
ATOM     30  H2* UNL     1       3.053   1.045  17.717  0.00  0.00    +0.000 HD
ENDBRANCH  26  29
BRANCH  24  31
ATOM     31  C5* UNL     1       2.151   3.908  21.436  0.00  0.00    +0.000 C 
BRANCH  31  32
ATOM     32  O5* UNL     1       2.609   2.713  22.062  0.00  0.00    +0.000 OA
ATOM     33  H5* UNL     1       2.703   2.051  21.349  0.00  0.00    +0.000 HD
ENDBRANCH  31  32
ENDBRANCH  24  31
ENDBRANCH   4  22
TORSDOF 11
ENDMDL
MODEL 4
REMARK VINA RESULT:      -7.0      2.682      6.945
REMARK  Name = 
REMARK  11 active torsions:
REMARK  status: ('A' for Active; 'I' for Inactive)
REMARK    1  A    between atoms: CG_2  and  CB_4
REMARK    2  A    between atoms: CB_4  and  CA_5
REMARK    3  A    between atoms: CA_5  and  N_6
REMARK    4  A    between atoms: CA_5  and  C_23
REMARK    5  A    between atoms: C_7  and  C_9
REMARK    6  A    between atoms: N_12  and  C1*_13
REMARK    7  A    between atoms: C4*_15  and  C5*_16
REMARK    8  A    between atoms: C5*_16  and  O5*_17
REMARK    9  A    between atoms: C3*_18  and  O3*_19
REMARK   10  A    between atoms: C2*_20  and  O2*_21
REMARK   11  A    between atoms: C_23  and  OXT_25
REMARK                            x       y       z     vdW  Elec       q    Type
REMARK                         _______ _______ _______ _____ _____    ______ ____
ROOT
ATOM      1  C   UNL     1       5.593   5.092  16.956  0.00  0.00    +0.000 A 
ATOM      2  N   UNL     1       4.963   6.300  17.138  0.00  0.00    +0.000 NA
ATOM      3  C   UNL     1       3.729   5.980  17.435  0.00  0.00    +0.000 A 
ATOM      4  N   UNL     1       3.610   4.627  17.461  0.00  0.00    +0.000 N 
ATOM      5  N   UNL     1       4.770   4.028  17.097  0.00  0.00    +0.000 NA
ENDROOT
BRANCH   1   7
ATOM      6  N   UNL     1       7.589   4.821  15.470  0.00  0.00    +0.000 NA
ATOM      7  C   UNL     1       7.030   4.939  16.634  0.00  0.00    +0.000 C 
ATOM      8  N   UNL     1       7.824   4.977  17.747  0.00  0.00    +0.000 N 
ATOM      9  H   UNL     1       8.795   5.211  17.592  0.00  0.00    +0.000 HD
ATOM     10  H   UNL     1       7.398   5.422  18.559  0.00  0.00    +0.000 HD
BRANCH   6  11
ATOM     11  CA  UNL     1       6.788   4.772  14.213  0.00  0.00    +0.000 C 
BRANCH  11  12
ATOM     12  C   UNL     1       7.698   5.180  13.055  0.00  0.00    +0.000 C 
ATOM     13  O   UNL     1       7.579   4.802  11.899  0.00  0.00    +0.000 OA
BRANCH  12  14
ATOM     14  OXT UNL     1       8.719   5.982  13.456  0.00  0.00    +0.000 OA
ATOM     15  HXT UNL     1       8.803   5.875  14.431  0.00  0.00    +0.000 HD
ENDBRANCH  12  14
ENDBRANCH  11  12
BRANCH  11  16
ATOM     16  CB  UNL     1       6.301   3.349  13.945  0.00  0.00    +0.000 C 
BRANCH  16  18
ATOM     17  ND2 UNL     1       5.964   2.313  11.779  0.00  0.00    +0.000 N 
ATOM     18  CG  UNL     1       5.511   3.247  12.665  0.00  0.00    +0.000 C 
ATOM     19  OD1 UNL     1       4.557   3.968  12.393  0.00  0.00    +0.000 OA
ATOM     20 HD21 UNL     1       5.387   2.140  10.964  0.00  0.00    +0.000 HD
ATOM     21 HD22 UNL     1       6.520   1.542  12.136  0.00  0.00    +0.000 HD
ENDBRANCH  16  18
ENDBRANCH  11  16
ENDBRANCH   6  11
ENDBRANCH   1   7
BRANCH   4  22
ATOM     22  C1* UNL     1       2.408   3.895  17.831  0.00  0.00    +0.000 C 
ATOM     23  O4* UNL     1       1.566   4.703  18.687  0.00  0.00    +0.000 OA
ATOM     24  C4* UNL     1       1.180   3.904  19.834  0.00  0.00    +0.000 C 
ATOM     25  C3* UNL     1       1.493   2.460  19.463  0.00  0.00    +0.000 C 
ATOM     26  C2* UNL     1       2.711   2.593  18.564  0.00  0.00    +0.000 C 
BRANCH  25  27
ATOM     27  O3* UNL     1       0.441   1.865  18.679  0.00  0.00    +0.000 OA
ATOM     28  H3* UNL     1       0.711   1.839  17.742  0.00  0.00    +0.000 HD
ENDBRANCH  25  27
BRANCH  26  29
ATOM     29  O2* UNL     1       2.831   1.483  17.675  0.00  0.00    +0.000 OA
ATOM     30  H2* UNL     1       3.375   1.793  16.919  0.00  0.00    +0.000 HD
ENDBRANCH  26  29
BRANCH  24  31
ATOM     31  C5* UNL     1       1.960   4.392  21.057  0.00  0.00    +0.000 C 
BRANCH  31  32
ATOM     32  O5* UNL     1       2.435   5.716  20.832  0.00  0.00    +0.000 OA
ATOM     33  H5* UNL     1       1.700   6.201  20.408  0.00  0.00    +0.000 HD
ENDBRANCH  31  32
ENDBRANCH  24  31
ENDBRANCH   4  22
TORSDOF 11
ENDMDL
MODEL 5
REMARK VINA RESULT:      -6.8      3.923      6.948
REMARK  Name = 
REMARK  11 active torsions:
REMARK  status: ('A' for Active; 'I' for Inactive)
REMARK    1  A    between atoms: CG_2  and  CB_4
REMARK    2  A    between atoms: CB_4  and  CA_5
REMARK    3  A    between atoms: CA_5  and  N_6
REMARK    4  A    between atoms: CA_5  and  C_23
REMARK    5  A    between atoms: C_7  and  C_9
REMARK    6  A    between atoms: N_12  and  C1*_13
REMARK    7  A    between atoms: C4*_15  and  C5*_16
REMARK    8  A    between atoms: C5*_16  and  O5*_17
REMARK    9  A    between atoms: C3*_18  and  O3*_19
REMARK   10  A    between atoms: C2*_20  and  O2*_21
REMARK   11  A    between atoms: C_23  and  OXT_25
REMARK                            x       y       z     vdW  Elec       q    Type
REMARK                         _______ _______ _______ _____ _____    ______ ____
ROOT
ATOM      1  C   UNL     1       2.324   6.368  18.925  0.00  0.00    +0.000 A 
ATOM      2  N   UNL     1       2.039   6.223  20.260  0.00  0.00    +0.000 NA
ATOM      3  C   UNL     1       1.683   7.422  20.648  0.00  0.00    +0.000 A 
ATOM      4  N   UNL     1       1.721   8.266  19.584  0.00  0.00    +0.000 N 
ATOM      5  N   UNL     1       2.188   7.639  18.479  0.00  0.00    +0.000 NA
ENDROOT
BRANCH   1   7
ATOM      6  N   UNL     1       3.941   4.937  17.659  0.00  0.00    +0.000 NA
ATOM      7  C   UNL     1       2.743   5.262  18.034  0.00  0.00    +0.000 C 
ATOM      8  N   UNL     1       1.690   4.494  17.620  0.00  0.00    +0.000 N 
ATOM      9  H   UNL     1       1.918   3.562  17.302  0.00  0.00    +0.000 HD
ATOM     10  H   UNL     1       0.860   4.558  18.207  0.00  0.00    +0.000 HD
BRANCH   6  11
ATOM     11  CA  UNL     1       5.138   5.727  18.071  0.00  0.00    +0.000 C 
BRANCH  11  12
ATOM     12  C   UNL     1       5.877   4.938  19.152  0.00  0.00    +0.000 C 
ATOM     13  O   UNL     1       6.758   5.384  19.871  0.00  0.00    +0.000 OA
BRANCH  12  14
ATOM     14  OXT UNL     1       5.489   3.636  19.199  0.00  0.00    +0.000 OA
ATOM     15  HXT UNL     1       5.910   3.182  18.434  0.00  0.00    +0.000 HD
ENDBRANCH  12  14
ENDBRANCH  11  12
BRANCH  11  16
ATOM     16  CB  UNL     1       6.091   5.907  16.890  0.00  0.00    +0.000 C 
BRANCH  16  18
ATOM     17  ND2 UNL     1       5.975   3.644  16.028  0.00  0.00    +0.000 N 
ATOM     18  CG  UNL     1       6.788   4.623  16.520  0.00  0.00    +0.000 C 
ATOM     19  OD1 UNL     1       7.989   4.428  16.679  0.00  0.00    +0.000 OA
ATOM     20 HD21 UNL     1       6.427   2.815  15.661  0.00  0.00    +0.000 HD
ATOM     21 HD22 UNL     1       5.087   3.918  15.616  0.00  0.00    +0.000 HD
ENDBRANCH  16  18
ENDBRANCH  11  16
ENDBRANCH   6  11
ENDBRANCH   1   7
BRANCH   4  22
ATOM     22  C1* UNL     1       1.316   9.664  19.606  0.00  0.00    +0.000 C 
ATOM     23  O4* UNL     1       1.443  10.209  20.941  0.00  0.00    +0.000 OA
ATOM     24  C4* UNL     1       0.213  10.900  21.271  0.00  0.00    +0.000 C 
ATOM     25  C3* UNL     1      -0.525  11.095  19.953  0.00  0.00    +0.000 C 
ATOM     26  C2* UNL     1      -0.124   9.868  19.150  0.00  0.00    +0.000 C 
BRANCH  25  27
ATOM     27  O3* UNL     1      -0.053  12.252  19.237  0.00  0.00    +0.000 OA
ATOM     28  H3* UNL     1       0.073  12.990  19.862  0.00  0.00    +0.000 HD
ENDBRANCH  25  27
BRANCH  26  29
ATOM     29  O2* UNL     1      -0.224  10.104  17.747  0.00  0.00    +0.000 OA
ATOM     30  H2* UNL     1      -0.849   9.432  17.398  0.00  0.00    +0.000 HD
ENDBRANCH  26  29
BRANCH  24  31
ATOM     31  C5* UNL     1      -0.571  10.054  22.278  0.00  0.00    +0.000 C 
BRANCH  31  32
ATOM     32  O5* UNL     1       0.133   9.998  23.515  0.00  0.00    +0.000 OA
ATOM     33  H5* UNL     1       0.744  10.761  23.516  0.00  0.00    +0.000 HD
ENDBRANCH  31  32
ENDBRANCH  24  31
ENDBRANCH   4  22
TORSDOF 11
ENDMDL
MODEL 6
REMARK VINA RESULT:      -6.7      2.497      6.501
REMARK  Name = 
REMARK  11 active torsions:
REMARK  status: ('A' for Active; 'I' for Inactive)
REMARK    1  A    between atoms: CG_2  and  CB_4
REMARK    2  A    between atoms: CB_4  and  CA_5
REMARK    3  A    between atoms: CA_5  and  N_6
REMARK    4  A    between atoms: CA_5  and  C_23
REMARK    5  A    between atoms: C_7  and  C_9
REMARK    6  A    between atoms: N_12  and  C1*_13
REMARK    7  A    between atoms: C4*_15  and  C5*_16
REMARK    8  A    between atoms: C5*_16  and  O5*_17
REMARK    9  A    between atoms: C3*_18  and  O3*_19
REMARK   10  A    between atoms: C2*_20  and  O2*_21
REMARK   11  A    between atoms: C_23  and  OXT_25
REMARK                            x       y       z     vdW  Elec       q    Type
REMARK                         _______ _______ _______ _____ _____    ______ ____
ROOT
ATOM      1  C   UNL     1       4.544   6.380  17.202  0.00  0.00    +0.000 A 
ATOM      2  N   UNL     1       3.697   7.423  17.488  0.00  0.00    +0.000 NA
ATOM      3  C   UNL     1       2.762   6.887  18.230  0.00  0.00    +0.000 A 
ATOM      4  N   UNL     1       3.038   5.570  18.418  0.00  0.00    +0.000 N 
ATOM      5  N   UNL     1       4.138   5.198  17.721  0.00  0.00    +0.000 NA
ENDROOT
BRANCH   1   7
ATOM      6  N   UNL     1       6.996   6.715  16.824  0.00  0.00    +0.000 NA
ATOM      7  C   UNL     1       5.786   6.506  16.406  0.00  0.00    +0.000 C 
ATOM      8  N   UNL     1       5.572   6.326  15.068  0.00  0.00    +0.000 N 
ATOM      9  H   UNL     1       6.381   6.070  14.519  0.00  0.00    +0.000 HD
ATOM     10  H   UNL     1       4.717   5.821  14.837  0.00  0.00    +0.000 HD
BRANCH   6  11
ATOM     11  CA  UNL     1       7.306   6.920  18.269  0.00  0.00    +0.000 C 
BRANCH  11  12
ATOM     12  C   UNL     1       7.477   5.545  18.915  0.00  0.00    +0.000 C 
ATOM     13  O   UNL     1       7.301   5.297  20.099  0.00  0.00    +0.000 OA
BRANCH  12  14
ATOM     14  OXT UNL     1       7.914   4.608  18.033  0.00  0.00    +0.000 OA
ATOM     15  HXT UNL     1       8.370   3.911  18.556  0.00  0.00    +0.000 HD
ENDBRANCH  12  14
ENDBRANCH  11  12
BRANCH  11  16
ATOM     16  CB  UNL     1       8.622   7.679  18.430  0.00  0.00    +0.000 C 
BRANCH  16  18
ATOM     17  ND2 UNL     1       7.507   9.621  17.501  0.00  0.00    +0.000 N 
ATOM     18  CG  UNL     1       8.425   9.173  18.406  0.00  0.00    +0.000 C 
ATOM     19  OD1 UNL     1       9.060   9.957  19.105  0.00  0.00    +0.000 OA
ATOM     20 HD21 UNL     1       7.267  10.604  17.543  0.00  0.00    +0.000 HD
ATOM     21 HD22 UNL     1       6.791   8.974  17.182  0.00  0.00    +0.000 HD
ENDBRANCH  16  18
ENDBRANCH  11  16
ENDBRANCH   6  11
ENDBRANCH   1   7
BRANCH   4  22
ATOM     22  C1* UNL     1       2.269   4.659  19.253  0.00  0.00    +0.000 C 
ATOM     23  O4* UNL     1       3.035   4.271  20.418  0.00  0.00    +0.000 OA
ATOM     24  C4* UNL     1       2.970   2.829  20.548  0.00  0.00    +0.000 C 
ATOM     25  C3* UNL     1       1.822   2.379  19.653  0.00  0.00    +0.000 C 
ATOM     26  C2* UNL     1       1.856   3.390  18.518  0.00  0.00    +0.000 C 
BRANCH  25  27
ATOM     27  O3* UNL     1       0.545   2.509  20.308  0.00  0.00    +0.000 OA
ATOM     28  H3* UNL     1      -0.028   3.099  19.784  0.00  0.00    +0.000 HD
ENDBRANCH  25  27
BRANCH  26  29
ATOM     29  O2* UNL     1       0.582   3.515  17.888  0.00  0.00    +0.000 OA
ATOM     30  H2* UNL     1      -0.021   3.901  18.560  0.00  0.00    +0.000 HD
ENDBRANCH  26  29
BRANCH  24  31
ATOM     31  C5* UNL     1       4.319   2.236  20.136  0.00  0.00    +0.000 C 
BRANCH  31  32
ATOM     32  O5* UNL     1       5.000   1.737  21.284  0.00  0.00    +0.000 OA
ATOM     33  H5* UNL     1       4.374   1.823  22.030  0.00  0.00    +0.000 HD
ENDBRANCH  31  32
ENDBRANCH  24  31
ENDBRANCH   4  22
TORSDOF 11
ENDMDL
MODEL 7
REMARK VINA RESULT:      -6.6      3.214      5.538
REMARK  Name = 
REMARK  11 active torsions:
REMARK  status: ('A' for Active; 'I' for Inactive)
REMARK    1  A    between atoms: CG_2  and  CB_4
REMARK    2  A    between atoms: CB_4  and  CA_5
REMARK    3  A    between atoms: CA_5  and  N_6
REMARK    4  A    between atoms: CA_5  and  C_23
REMARK    5  A    between atoms: C_7  and  C_9
REMARK    6  A    between atoms: N_12  and  C1*_13
REMARK    7  A    between atoms: C4*_15  and  C5*_16
REMARK    8  A    between atoms: C5*_16  and  O5*_17
REMARK    9  A    between atoms: C3*_18  and  O3*_19
REMARK   10  A    between atoms: C2*_20  and  O2*_21
REMARK   11  A    between atoms: C_23  and  OXT_25
REMARK                            x       y       z     vdW  Elec       q    Type
REMARK                         _______ _______ _______ _____ _____    ______ ____
ROOT
ATOM      1  C   UNL     1       4.490   5.762  18.524  0.00  0.00    +0.000 A 
ATOM      2  N   UNL     1       4.728   6.573  17.441  0.00  0.00    +0.000 NA
ATOM      3  C   UNL     1       3.709   7.393  17.420  0.00  0.00    +0.000 A 
ATOM      4  N   UNL     1       2.888   7.116  18.467  0.00  0.00    +0.000 N 
ATOM      5  N   UNL     1       3.326   6.036  19.158  0.00  0.00    +0.000 NA
ENDROOT
BRANCH   1   7
ATOM      6  N   UNL     1       5.099   3.484  19.364  0.00  0.00    +0.000 NA
ATOM      7  C   UNL     1       5.399   4.685  18.978  0.00  0.00    +0.000 C 
ATOM      8  N   UNL     1       6.716   5.050  18.921  0.00  0.00    +0.000 N 
ATOM      9  H   UNL     1       7.385   4.293  18.891  0.00  0.00    +0.000 HD
ATOM     10  H   UNL     1       6.915   5.827  18.294  0.00  0.00    +0.000 HD
BRANCH   6  11
ATOM     11  CA  UNL     1       3.685   3.015  19.451  0.00  0.00    +0.000 C 
BRANCH  11  12
ATOM     12  C   UNL     1       3.494   1.895  18.428  0.00  0.00    +0.000 C 
ATOM     13  O   UNL     1       2.667   1.897  17.528  0.00  0.00    +0.000 OA
BRANCH  12  14
ATOM     14  OXT UNL     1       4.316   0.838  18.658  0.00  0.00    +0.000 OA
ATOM     15  HXT UNL     1       3.771   0.024  18.565  0.00  0.00    +0.000 HD
ENDBRANCH  12  14
ENDBRANCH  11  12
BRANCH  11  16
ATOM     16  CB  UNL     1       3.399   2.436  20.836  0.00  0.00    +0.000 C 
BRANCH  16  18
ATOM     17  ND2 UNL     1       2.159   4.465  21.309  0.00  0.00    +0.000 N 
ATOM     18  CG  UNL     1       2.235   3.118  21.509  0.00  0.00    +0.000 C 
ATOM     19  OD1 UNL     1       1.427   2.538  22.227  0.00  0.00    +0.000 OA
ATOM     20 HD21 UNL     1       1.327   4.932  21.649  0.00  0.00    +0.000 HD
ATOM     21 HD22 UNL     1       2.618   4.856  20.490  0.00  0.00    +0.000 HD
ENDBRANCH  16  18
ENDBRANCH  11  16
ENDBRANCH   6  11
ENDBRANCH   1   7
BRANCH   4  22
ATOM     22  C1* UNL     1       1.692   7.867  18.820  0.00  0.00    +0.000 C 
ATOM     23  O4* UNL     1       1.395   8.854  17.804  0.00  0.00    +0.000 OA
ATOM     24  C4* UNL     1       1.155  10.125  18.457  0.00  0.00    +0.000 C 
ATOM     25  C3* UNL     1       0.934   9.804  19.930  0.00  0.00    +0.000 C 
ATOM     26  C2* UNL     1       1.824   8.591  20.154  0.00  0.00    +0.000 C 
BRANCH  25  27
ATOM     27  O3* UNL     1      -0.422   9.397  20.196  0.00  0.00    +0.000 OA
ATOM     28  H3* UNL     1      -0.446   8.436  20.360  0.00  0.00    +0.000 HD
ENDBRANCH  25  27
BRANCH  26  29
ATOM     29  O2* UNL     1       1.368   7.801  21.251  0.00  0.00    +0.000 OA
ATOM     30  H2* UNL     1       1.507   8.343  22.058  0.00  0.00    +0.000 HD
ENDBRANCH  26  29
BRANCH  24  31
ATOM     31  C5* UNL     1       2.361  11.036  18.217  0.00  0.00    +0.000 C 
BRANCH  31  32
ATOM     32  O5* UNL     1       1.922  12.303  17.736  0.00  0.00    +0.000 OA
ATOM     33  H5* UNL     1       2.725  12.775  17.440  0.00  0.00    +0.000 HD
ENDBRANCH  31  32
ENDBRANCH  24  31
ENDBRANCH   4  22
TORSDOF 11
ENDMDL
MODEL 8
REMARK VINA RESULT:      -6.6      1.268      1.860
REMARK  Name = 
REMARK  11 active torsions:
REMARK  status: ('A' for Active; 'I' for Inactive)
REMARK    1  A    between atoms: CG_2  and  CB_4
REMARK    2  A    between atoms: CB_4  and  CA_5
REMARK    3  A    between atoms: CA_5  and  N_6
REMARK    4  A    between atoms: CA_5  and  C_23
REMARK    5  A    between atoms: C_7  and  C_9
REMARK    6  A    between atoms: N_12  and  C1*_13
REMARK    7  A    between atoms: C4*_15  and  C5*_16
REMARK    8  A    between atoms: C5*_16  and  O5*_17
REMARK    9  A    between atoms: C3*_18  and  O3*_19
REMARK   10  A    between atoms: C2*_20  and  O2*_21
REMARK   11  A    between atoms: C_23  and  OXT_25
REMARK                            x       y       z     vdW  Elec       q    Type
REMARK                         _______ _______ _______ _____ _____    ______ ____
ROOT
ATOM      1  C   UNL     1       2.599   6.873  19.397  0.00  0.00    +0.000 A 
ATOM      2  N   UNL     1       2.239   7.931  18.599  0.00  0.00    +0.000 NA
ATOM      3  C   UNL     1       3.102   7.904  17.616  0.00  0.00    +0.000 A 
ATOM      4  N   UNL     1       3.944   6.851  17.788  0.00  0.00    +0.000 N 
ATOM      5  N   UNL     1       3.690   6.207  18.952  0.00  0.00    +0.000 NA
ENDROOT
BRANCH   1   7
ATOM      6  N   UNL     1       1.693   5.283  21.106  0.00  0.00    +0.000 NA
ATOM      7  C   UNL     1       1.884   6.475  20.631  0.00  0.00    +0.000 C 
ATOM      8  N   UNL     1       1.425   7.550  21.341  0.00  0.00    +0.000 N 
ATOM      9  H   UNL     1       1.234   7.386  22.321  0.00  0.00    +0.000 HD
ATOM     10  H   UNL     1       1.896   8.429  21.135  0.00  0.00    +0.000 HD
BRANCH   6  11
ATOM     11  CA  UNL     1       2.166   4.064  20.388  0.00  0.00    +0.000 C 
BRANCH  11  12
ATOM     12  C   UNL     1       2.394   2.963  21.423  0.00  0.00    +0.000 C 
ATOM     13  O   UNL     1       1.591   2.625  22.280  0.00  0.00    +0.000 OA
BRANCH  12  14
ATOM     14  OXT UNL     1       3.636   2.417  21.334  0.00  0.00    +0.000 OA
ATOM     15  HXT UNL     1       3.650   1.865  20.519  0.00  0.00    +0.000 HD
ENDBRANCH  12  14
ENDBRANCH  11  12
BRANCH  11  16
ATOM     16  CB  UNL     1       1.098   3.573  19.411  0.00  0.00    +0.000 C 
BRANCH  16  18
ATOM     17  ND2 UNL     1       1.844   4.277  17.213  0.00  0.00    +0.000 N 
ATOM     18  CG  UNL     1       1.677   3.222  18.063  0.00  0.00    +0.000 C 
ATOM     19  OD1 UNL     1       1.945   2.078  17.713  0.00  0.00    +0.000 OA
ATOM     20 HD21 UNL     1       2.337   4.092  16.348  0.00  0.00    +0.000 HD
ATOM     21 HD22 UNL     1       1.923   5.208  17.612  0.00  0.00    +0.000 HD
ENDBRANCH  16  18
ENDBRANCH  11  16
ENDBRANCH   6  11
ENDBRANCH   1   7
BRANCH   4  22
ATOM     22  C1* UNL     1       4.988   6.449  16.856  0.00  0.00    +0.000 C 
ATOM     23  O4* UNL     1       4.590   5.260  16.132  0.00  0.00    +0.000 OA
ATOM     24  C4* UNL     1       5.680   4.306  16.185  0.00  0.00    +0.000 C 
ATOM     25  C3* UNL     1       6.905   5.094  16.634  0.00  0.00    +0.000 C 
ATOM     26  C2* UNL     1       6.314   6.155  17.548  0.00  0.00    +0.000 C 
BRANCH  25  27
ATOM     27  O3* UNL     1       7.539   5.776  15.535  0.00  0.00    +0.000 OA
ATOM     28  H3* UNL     1       8.123   5.154  15.061  0.00  0.00    +0.000 HD
ENDBRANCH  25  27
BRANCH  26  29
ATOM     29  O2* UNL     1       7.154   7.306  17.626  0.00  0.00    +0.000 OA
ATOM     30  H2* UNL     1       7.935   7.041  18.160  0.00  0.00    +0.000 HD
ENDBRANCH  26  29
BRANCH  24  31
ATOM     31  C5* UNL     1       5.303   3.183  17.154  0.00  0.00    +0.000 C 
BRANCH  31  32
ATOM     32  O5* UNL     1       5.610   3.571  18.490  0.00  0.00    +0.000 OA
ATOM     33  H5* UNL     1       5.161   4.427  18.634  0.00  0.00    +0.000 HD
ENDBRANCH  31  32
ENDBRANCH  24  31
ENDBRANCH   4  22
TORSDOF 11
ENDMDL
MODEL 9
REMARK VINA RESULT:      -6.6      4.421      6.719
REMARK  Name = 
REMARK  11 active torsions:
REMARK  status: ('A' for Active; 'I' for Inactive)
REMARK    1  A    between atoms: CG_2  and  CB_4
REMARK    2  A    between atoms: CB_4  and  CA_5
REMARK    3  A    between atoms: CA_5  and  N_6
REMARK    4  A    between atoms: CA_5  and  C_23
REMARK    5  A    between atoms: C_7  and  C_9
REMARK    6  A    between atoms: N_12  and  C1*_13
REMARK    7  A    between atoms: C4*_15  and  C5*_16
REMARK    8  A    between atoms: C5*_16  and  O5*_17
REMARK    9  A    between atoms: C3*_18  and  O3*_19
REMARK   10  A    between atoms: C2*_20  and  O2*_21
REMARK   11  A    between atoms: C_23  and  OXT_25
REMARK                            x       y       z     vdW  Elec       q    Type
REMARK                         _______ _______ _______ _____ _____    ______ ____
ROOT
ATOM      1  C   UNL     1       2.513   7.483  18.640  0.00  0.00    +0.000 A 
ATOM      2  N   UNL     1       2.030   7.521  19.925  0.00  0.00    +0.000 NA
ATOM      3  C   UNL     1       1.330   8.626  19.975  0.00  0.00    +0.000 A 
ATOM      4  N   UNL     1       1.358   9.231  18.759  0.00  0.00    +0.000 N 
ATOM      5  N   UNL     1       2.159   8.558  17.898  0.00  0.00    +0.000 NA
ENDROOT
BRANCH   1   7
ATOM      6  N   UNL     1       3.337   5.130  18.411  0.00  0.00    +0.000 NA
ATOM      7  C   UNL     1       3.344   6.387  18.091  0.00  0.00    +0.000 C 
ATOM      8  N   UNL     1       4.177   6.809  17.092  0.00  0.00    +0.000 N 
ATOM      9  H   UNL     1       4.514   6.093  16.463  0.00  0.00    +0.000 HD
ATOM     10  H   UNL     1       3.896   7.680  16.643  0.00  0.00    +0.000 HD
BRANCH   6  11
ATOM     11  CA  UNL     1       2.455   4.597  19.490  0.00  0.00    +0.000 C 
BRANCH  11  12
ATOM     12  C   UNL     1       1.276   3.884  18.829  0.00  0.00    +0.000 C 
ATOM     13  O   UNL     1       1.130   3.731  17.625  0.00  0.00    +0.000 OA
BRANCH  12  14
ATOM     14  OXT UNL     1       0.346   3.474  19.732  0.00  0.00    +0.000 OA
ATOM     15  HXT UNL     1      -0.489   3.951  19.522  0.00  0.00    +0.000 HD
ENDBRANCH  12  14
ENDBRANCH  11  12
BRANCH  11  16
ATOM     16  CB  UNL     1       3.208   3.570  20.335  0.00  0.00    +0.000 C 
BRANCH  16  18
ATOM     17  ND2 UNL     1       5.385   3.241  19.319  0.00  0.00    +0.000 N 
ATOM     18  CG  UNL     1       4.138   2.721  19.506  0.00  0.00    +0.000 C 
ATOM     19  OD1 UNL     1       3.811   1.658  18.986  0.00  0.00    +0.000 OA
ATOM     20 HD21 UNL     1       6.067   2.644  18.868  0.00  0.00    +0.000 HD
ATOM     21 HD22 UNL     1       5.727   3.923  19.991  0.00  0.00    +0.000 HD
ENDBRANCH  16  18
ENDBRANCH  11  16
ENDBRANCH   6  11
ENDBRANCH   1   7
BRANCH   4  22
ATOM     22  C1* UNL     1       0.631  10.440  18.404  0.00  0.00    +0.000 C 
ATOM     23  O4* UNL     1       0.900  11.493  19.360  0.00  0.00    +0.000 OA
ATOM     24  C4* UNL     1      -0.364  12.071  19.771  0.00  0.00    +0.000 C 
ATOM     25  C3* UNL     1      -1.391  11.602  18.749  0.00  0.00    +0.000 C 
ATOM     26  C2* UNL     1      -0.877  10.228  18.351  0.00  0.00    +0.000 C 
BRANCH  25  27
ATOM     27  O3* UNL     1      -1.387  12.423  17.565  0.00  0.00    +0.000 OA
ATOM     28  H3* UNL     1      -1.886  11.973  16.858  0.00  0.00    +0.000 HD
ENDBRANCH  25  27
BRANCH  26  29
ATOM     29  O2* UNL     1      -1.330   9.854  17.051  0.00  0.00    +0.000 OA
ATOM     30  H2* UNL     1      -0.539   9.536  16.564  0.00  0.00    +0.000 HD
ENDBRANCH  26  29
BRANCH  24  31
ATOM     31  C5* UNL     1      -0.678  11.603  21.194  0.00  0.00    +0.000 C 
BRANCH  31  32
ATOM     32  O5* UNL     1       0.534  11.374  21.908  0.00  0.00    +0.000 OA
ATOM     33  H5* UNL     1       0.683  10.409  21.889  0.00  0.00    +0.000 HD
ENDBRANCH  31  32
ENDBRANCH  24  31
ENDBRANCH   4  22
TORSDOF 11
ENDMDL
