MODEL 1
REMARK VINA RESULT:      -8.5      0.000      0.000
REMARK  Name = 
REMARK  4 active torsions:
REMARK  status: ('A' for Active; 'I' for Inactive)
REMARK    1  A    between atoms: O_1  and  C_2
REMARK    2  A    between atoms: C_6  and  N_7
REMARK    3  A    between atoms: N_7  and  C_8
REMARK    4  A    between atoms: C_14  and  C_15
REMARK                            x       y       z     vdW  Elec       q    Type
REMARK                         _______ _______ _______ _____ _____    ______ ____
ROOT
ATOM      1  C   UNL     1       3.167   4.642  18.870  0.00  0.00    +0.000 A 
ATOM      2  C   UNL     1       2.840   3.374  19.395  0.00  0.00    +0.000 A 
ATOM      3  C   UNL     1       1.943   3.250  20.446  0.00  0.00    +0.000 A 
ATOM      4  N   UNL     1       1.383   4.353  20.992  0.00  0.00    +0.000 NA
ATOM      5  C   UNL     1       1.643   5.600  20.517  0.00  0.00    +0.000 A 
ATOM      6  C   UNL     1       1.041   6.689  21.140  0.00  0.00    +0.000 A 
ATOM      7  C   UNL     1       1.254   7.999  20.679  0.00  0.00    +0.000 A 
ATOM      8  C   UNL     1       2.092   8.185  19.560  0.00  0.00    +0.000 A 
ATOM      9  C   UNL     1       2.733   7.096  18.950  0.00  0.00    +0.000 A 
ATOM     10  C   UNL     1       2.521   5.783  19.418  0.00  0.00    +0.000 A 
ENDROOT
BRANCH   7  11
ATOM     11  C   UNL     1       0.605   9.156  21.373  0.00  0.00    +0.000 A 
ATOM     12  C   UNL     1      -0.144   8.963  22.554  0.00  0.00    +0.000 A 
ATOM     13  C   UNL     1      -0.732  10.052  23.196  0.00  0.00    +0.000 A 
ATOM     14  N   UNL     1      -0.603  11.300  22.679  0.00  0.00    +0.000 NA
ATOM     15  C   UNL     1       0.102  11.527  21.541  0.00  0.00    +0.000 A 
ATOM     16  C   UNL     1       0.726  10.468  20.875  0.00  0.00    +0.000 A 
ENDBRANCH   7  11
BRANCH   1  17
ATOM     17  N   UNL     1       4.129   4.731  17.808  0.00  0.00    +0.000 N 
ATOM     18  H   UNL     1       3.906   4.336  16.884  0.00  0.00    +0.000 HD
BRANCH  17  23
ATOM     19  C   UNL     1       7.416   5.732  19.319  0.00  0.00    +0.000 A 
ATOM     20  C   UNL     1       7.908   6.606  18.339  0.00  0.00    +0.000 A 
ATOM     21  C   UNL     1       7.176   6.839  17.179  0.00  0.00    +0.000 A 
ATOM     22  C   UNL     1       5.941   6.221  17.000  0.00  0.00    +0.000 A 
ATOM     23  C   UNL     1       5.410   5.356  17.984  0.00  0.00    +0.000 A 
ATOM     24  C   UNL     1       6.176   5.098  19.133  0.00  0.00    +0.000 A 
BRANCH  19  25
ATOM     25  O   UNL     1       8.120   5.504  20.445  0.00  0.00    +0.000 OA
ATOM     26  H   UNL     1       9.060   5.726  20.512  0.00  0.00    +0.000 HD
ENDBRANCH  19  25
ENDBRANCH  17  23
ENDBRANCH   1  17
TORSDOF 4
ENDMDL
MODEL 2
REMARK VINA RESULT:      -8.4      0.278      1.015
REMARK  Name = 
REMARK  4 active torsions:
REMARK  status: ('A' for Active; 'I' for Inactive)
REMARK    1  A    between atoms: O_1  and  C_2
REMARK    2  A    between atoms: C_6  and  N_7
REMARK    3  A    between atoms: N_7  and  C_8
REMARK    4  A    between atoms: C_14  and  C_15
REMARK                            x       y       z     vdW  Elec       q    Type
REMARK                         _______ _______ _______ _____ _____    ______ ____
ROOT
ATOM      1  C   UNL     1       3.223   4.930  18.799  0.00  0.00    +0.000 A 
ATOM      2  C   UNL     1       2.941   3.645  19.305  0.00  0.00    +0.000 A 
ATOM      3  C   UNL     1       2.062   3.476  20.365  0.00  0.00    +0.000 A 
ATOM      4  N   UNL     1       1.478   4.552  20.938  0.00  0.00    +0.000 NA
ATOM      5  C   UNL     1       1.694   5.815  20.482  0.00  0.00    +0.000 A 
ATOM      6  C   UNL     1       1.069   6.874  21.132  0.00  0.00    +0.000 A 
ATOM      7  C   UNL     1       1.237   8.197  20.691  0.00  0.00    +0.000 A 
ATOM      8  C   UNL     1       2.055   8.427  19.565  0.00  0.00    +0.000 A 
ATOM      9  C   UNL     1       2.718   7.368  18.927  0.00  0.00    +0.000 A 
ATOM     10  C   UNL     1       2.552   6.042  19.375  0.00  0.00    +0.000 A 
ENDROOT
BRANCH   7  11
ATOM     11  C   UNL     1       0.565   9.323  21.414  0.00  0.00    +0.000 A 
ATOM     12  C   UNL     1       0.695  10.653  20.960  0.00  0.00    +0.000 A 
ATOM     13  C   UNL     1       0.052  11.690  21.636  0.00  0.00    +0.000 A 
ATOM     14  N   UNL     1      -0.685  11.428  22.745  0.00  0.00    +0.000 NA
ATOM     15  C   UNL     1      -0.828  10.163  23.219  0.00  0.00    +0.000 A 
ATOM     16  C   UNL     1      -0.219   9.091  22.561  0.00  0.00    +0.000 A 
ENDBRANCH   7  11
BRANCH   1  17
ATOM     17  N   UNL     1       4.168   5.066  17.726  0.00  0.00    +0.000 N 
ATOM     18  H   UNL     1       3.923   4.727  16.785  0.00  0.00    +0.000 HD
BRANCH  17  23
ATOM     19  C   UNL     1       7.568   5.810  19.132  0.00  0.00    +0.000 A 
ATOM     20  C   UNL     1       7.983   6.855  18.294  0.00  0.00    +0.000 A 
ATOM     21  C   UNL     1       7.161   7.290  17.260  0.00  0.00    +0.000 A 
ATOM     22  C   UNL     1       5.913   6.701  17.067  0.00  0.00    +0.000 A 
ATOM     23  C   UNL     1       5.460   5.663  17.912  0.00  0.00    +0.000 A 
ATOM     24  C   UNL     1       6.315   5.206  18.930  0.00  0.00    +0.000 A 
BRANCH  19  25
ATOM     25  O   UNL     1       8.359   5.387  20.137  0.00  0.00    +0.000 OA
ATOM     26  H   UNL     1       8.095   4.664  20.724  0.00  0.00    +0.000 HD
ENDBRANCH  19  25
ENDBRANCH  17  23
ENDBRANCH   1  17
TORSDOF 4
ENDMDL
MODEL 3
REMARK VINA RESULT:      -8.4      3.205      7.843
REMARK  Name = 
REMARK  4 active torsions:
REMARK  status: ('A' for Active; 'I' for Inactive)
REMARK    1  A    between atoms: O_1  and  C_2
REMARK    2  A    between atoms: C_6  and  N_7
REMARK    3  A    between atoms: N_7  and  C_8
REMARK    4  A    between atoms: C_14  and  C_15
REMARK                            x       y       z     vdW  Elec       q    Type
REMARK                         _______ _______ _______ _____ _____    ______ ____
ROOT
ATOM      1  C   UNL     1       2.834   5.136  19.262  0.00  0.00    +0.000 A 
ATOM      2  C   UNL     1       1.898   4.115  19.529  0.00  0.00    +0.000 A 
ATOM      3  C   UNL     1       1.767   3.030  18.675  0.00  0.00    +0.000 A 
ATOM      4  N   UNL     1       2.528   2.950  17.561  0.00  0.00    +0.000 NA
ATOM      5  C   UNL     1       3.461   3.892  17.259  0.00  0.00    +0.000 A 
ATOM      6  C   UNL     1       4.198   3.749  16.087  0.00  0.00    +0.000 A 
ATOM      7  C   UNL     1       5.191   4.678  15.736  0.00  0.00    +0.000 A 
ATOM      8  C   UNL     1       5.430   5.762  16.607  0.00  0.00    +0.000 A 
ATOM      9  C   UNL     1       4.667   5.933  17.772  0.00  0.00    +0.000 A 
ATOM     10  C   UNL     1       3.667   5.002  18.119  0.00  0.00    +0.000 A 
ENDROOT
BRANCH   7  11
ATOM     11  C   UNL     1       5.962   4.512  14.463  0.00  0.00    +0.000 A 
ATOM     12  C   UNL     1       5.511   3.631  13.456  0.00  0.00    +0.000 A 
ATOM     13  C   UNL     1       6.233   3.496  12.270  0.00  0.00    +0.000 A 
ATOM     14  N   UNL     1       7.382   4.194  12.087  0.00  0.00    +0.000 NA
ATOM     15  C   UNL     1       7.854   5.044  13.035  0.00  0.00    +0.000 A 
ATOM     16  C   UNL     1       7.152   5.227  14.230  0.00  0.00    +0.000 A 
ENDBRANCH   7  11
BRANCH   1  17
ATOM     17  N   UNL     1       2.912   6.261  20.150  0.00  0.00    +0.000 N 
ATOM     18  H   UNL     1       3.544   6.227  20.963  0.00  0.00    +0.000 HD
BRANCH  17  23
ATOM     19  C   UNL     1       1.464   9.333  18.551  0.00  0.00    +0.000 A 
ATOM     20  C   UNL     1       0.627   9.800  19.574  0.00  0.00    +0.000 A 
ATOM     21  C   UNL     1       0.520   9.093  20.768  0.00  0.00    +0.000 A 
ATOM     22  C   UNL     1       1.263   7.930  20.957  0.00  0.00    +0.000 A 
ATOM     23  C   UNL     1       2.133   7.451  19.952  0.00  0.00    +0.000 A 
ATOM     24  C   UNL     1       2.204   8.152  18.735  0.00  0.00    +0.000 A 
BRANCH  19  25
ATOM     25  O   UNL     1       1.573  10.015  17.394  0.00  0.00    +0.000 OA
ATOM     26  H   UNL     1       1.325   9.622  16.545  0.00  0.00    +0.000 HD
ENDBRANCH  19  25
ENDBRANCH  17  23
ENDBRANCH   1  17
TORSDOF 4
ENDMDL
MODEL 4
REMARK VINA RESULT:      -8.2      2.663      4.465
REMARK  Name = 
REMARK  4 active torsions:
REMARK  status: ('A' for Active; 'I' for Inactive)
REMARK    1  A    between atoms: O_1  and  C_2
REMARK    2  A    between atoms: C_6  and  N_7
REMARK    3  A    between atoms: N_7  and  C_8
REMARK    4  A    between atoms: C_14  and  C_15
REMARK                            x       y       z     vdW  Elec       q    Type
REMARK                         _______ _______ _______ _____ _____    ______ ____
ROOT
ATOM      1  C   UNL     1       2.471   7.084  19.632  0.00  0.00    +0.000 A 
ATOM      2  C   UNL     1       2.953   7.230  18.314  0.00  0.00    +0.000 A 
ATOM      3  C   UNL     1       2.591   8.326  17.544  0.00  0.00    +0.000 A 
ATOM      4  N   UNL     1       1.755   9.260  18.046  0.00  0.00    +0.000 NA
ATOM      5  C   UNL     1       1.273   9.186  19.316  0.00  0.00    +0.000 A 
ATOM      6  C   UNL     1       0.404  10.179  19.758  0.00  0.00    +0.000 A 
ATOM      7  C   UNL     1      -0.106  10.166  21.067  0.00  0.00    +0.000 A 
ATOM      8  C   UNL     1       0.290   9.122  21.928  0.00  0.00    +0.000 A 
ATOM      9  C   UNL     1       1.136   8.097  21.478  0.00  0.00    +0.000 A 
ATOM     10  C   UNL     1       1.642   8.110  20.163  0.00  0.00    +0.000 A 
ENDROOT
BRANCH   7  11
ATOM     11  C   UNL     1      -1.050  11.238  21.518  0.00  0.00    +0.000 A 
ATOM     12  C   UNL     1      -1.702  12.067  20.579  0.00  0.00    +0.000 A 
ATOM     13  C   UNL     1      -2.588  13.053  21.013  0.00  0.00    +0.000 A 
ATOM     14  N   UNL     1      -2.812  13.233  22.339  0.00  0.00    +0.000 NA
ATOM     15  C   UNL     1      -2.198  12.463  23.274  0.00  0.00    +0.000 A 
ATOM     16  C   UNL     1      -1.318  11.449  22.884  0.00  0.00    +0.000 A 
ENDBRANCH   7  11
BRANCH   1  17
ATOM     17  N   UNL     1       2.837   5.917  20.383  0.00  0.00    +0.000 N 
ATOM     18  H   UNL     1       3.388   6.018  21.248  0.00  0.00    +0.000 HD
BRANCH  17  23
ATOM     19  C   UNL     1       3.064   2.406  19.076  0.00  0.00    +0.000 A 
ATOM     20  C   UNL     1       1.721   2.005  19.147  0.00  0.00    +0.000 A 
ATOM     21  C   UNL     1       0.758   2.875  19.648  0.00  0.00    +0.000 A 
ATOM     22  C   UNL     1       1.121   4.154  20.059  0.00  0.00    +0.000 A 
ATOM     23  C   UNL     1       2.462   4.593  19.975  0.00  0.00    +0.000 A 
ATOM     24  C   UNL     1       3.434   3.692  19.504  0.00  0.00    +0.000 A 
BRANCH  19  25
ATOM     25  O   UNL     1       4.000   1.568  18.591  0.00  0.00    +0.000 OA
ATOM     26  H   UNL     1       4.615   1.840  17.895  0.00  0.00    +0.000 HD
ENDBRANCH  19  25
ENDBRANCH  17  23
ENDBRANCH   1  17
TORSDOF 4
ENDMDL
MODEL 5
REMARK VINA RESULT:      -8.2      2.713      4.452
REMARK  Name = 
REMARK  4 active torsions:
REMARK  status: ('A' for Active; 'I' for Inactive)
REMARK    1  A    between atoms: O_1  and  C_2
REMARK    2  A    between atoms: C_6  and  N_7
REMARK    3  A    between atoms: N_7  and  C_8
REMARK    4  A    between atoms: C_14  and  C_15
REMARK                            x       y       z     vdW  Elec       q    Type
REMARK                         _______ _______ _______ _____ _____    ______ ____
ROOT
ATOM      1  C   UNL     1       2.274   7.247  19.760  0.00  0.00    +0.000 A 
ATOM      2  C   UNL     1       2.715   7.352  18.424  0.00  0.00    +0.000 A 
ATOM      3  C   UNL     1       2.335   8.427  17.633  0.00  0.00    +0.000 A 
ATOM      4  N   UNL     1       1.519   9.380  18.134  0.00  0.00    +0.000 NA
ATOM      5  C   UNL     1       1.077   9.345  19.419  0.00  0.00    +0.000 A 
ATOM      6  C   UNL     1       0.227  10.355  19.860  0.00  0.00    +0.000 A 
ATOM      7  C   UNL     1      -0.243  10.383  21.183  0.00  0.00    +0.000 A 
ATOM      8  C   UNL     1       0.175   9.362  22.062  0.00  0.00    +0.000 A 
ATOM      9  C   UNL     1       1.001   8.320  21.615  0.00  0.00    +0.000 A 
ATOM     10  C   UNL     1       1.467   8.291  20.286  0.00  0.00    +0.000 A 
ENDROOT
BRANCH   7  11
ATOM     11  C   UNL     1      -1.167  11.473  21.632  0.00  0.00    +0.000 A 
ATOM     12  C   UNL     1      -1.622  11.530  22.967  0.00  0.00    +0.000 A 
ATOM     13  C   UNL     1      -2.473  12.558  23.373  0.00  0.00    +0.000 A 
ATOM     14  N   UNL     1      -2.883  13.496  22.482  0.00  0.00    +0.000 NA
ATOM     15  C   UNL     1      -2.475  13.471  21.187  0.00  0.00    +0.000 A 
ATOM     16  C   UNL     1      -1.605  12.472  20.741  0.00  0.00    +0.000 A 
ENDBRANCH   7  11
BRANCH   1  17
ATOM     17  N   UNL     1       2.658   6.099  20.533  0.00  0.00    +0.000 N 
ATOM     18  H   UNL     1       3.157   6.229  21.425  0.00  0.00    +0.000 HD
BRANCH  17  23
ATOM     19  C   UNL     1       3.108   2.639  19.151  0.00  0.00    +0.000 A 
ATOM     20  C   UNL     1       1.803   2.136  19.254  0.00  0.00    +0.000 A 
ATOM     21  C   UNL     1       0.793   2.921  19.800  0.00  0.00    +0.000 A 
ATOM     22  C   UNL     1       1.071   4.217  20.226  0.00  0.00    +0.000 A 
ATOM     23  C   UNL     1       2.372   4.758  20.110  0.00  0.00    +0.000 A 
ATOM     24  C   UNL     1       3.394   3.942  19.593  0.00  0.00    +0.000 A 
BRANCH  19  25
ATOM     25  O   UNL     1       4.090   1.884  18.621  0.00  0.00    +0.000 OA
ATOM     26  H   UNL     1       3.960   0.946  18.421  0.00  0.00    +0.000 HD
ENDBRANCH  19  25
ENDBRANCH  17  23
ENDBRANCH   1  17
TORSDOF 4
ENDMDL
MODEL 6
REMARK VINA RESULT:      -8.2      1.354      1.784
REMARK  Name = 
REMARK  4 active torsions:
REMARK  status: ('A' for Active; 'I' for Inactive)
REMARK    1  A    between atoms: O_1  and  C_2
REMARK    2  A    between atoms: C_6  and  N_7
REMARK    3  A    between atoms: N_7  and  C_8
REMARK    4  A    between atoms: C_14  and  C_15
REMARK                            x       y       z     vdW  Elec       q    Type
REMARK                         _______ _______ _______ _____ _____    ______ ____
ROOT
ATOM      1  C   UNL     1       2.903   3.676  18.445  0.00  0.00    +0.000 A 
ATOM      2  C   UNL     1       2.732   2.541  19.264  0.00  0.00    +0.000 A 
ATOM      3  C   UNL     1       2.167   2.655  20.526  0.00  0.00    +0.000 A 
ATOM      4  N   UNL     1       1.790   3.866  20.992  0.00  0.00    +0.000 NA
ATOM      5  C   UNL     1       1.911   4.994  20.243  0.00  0.00    +0.000 A 
ATOM      6  C   UNL     1       1.515   6.208  20.796  0.00  0.00    +0.000 A 
ATOM      7  C   UNL     1       1.595   7.401  20.061  0.00  0.00    +0.000 A 
ATOM      8  C   UNL     1       2.085   7.340  18.739  0.00  0.00    +0.000 A 
ATOM      9  C   UNL     1       2.522   6.126  18.187  0.00  0.00    +0.000 A 
ATOM     10  C   UNL     1       2.444   4.931  18.930  0.00  0.00    +0.000 A 
ENDROOT
BRANCH   7  11
ATOM     11  C   UNL     1       1.175   8.698  20.681  0.00  0.00    +0.000 A 
ATOM     12  C   UNL     1       1.079   9.873  19.904  0.00  0.00    +0.000 A 
ATOM     13  C   UNL     1       0.674  11.070  20.494  0.00  0.00    +0.000 A 
ATOM     14  N   UNL     1       0.390  11.116  21.819  0.00  0.00    +0.000 NA
ATOM     15  C   UNL     1       0.478  10.011  22.603  0.00  0.00    +0.000 A 
ATOM     16  C   UNL     1       0.860   8.785  22.051  0.00  0.00    +0.000 A 
ENDBRANCH   7  11
BRANCH   1  17
ATOM     17  N   UNL     1       3.527   3.523  17.161  0.00  0.00    +0.000 N 
ATOM     18  H   UNL     1       3.006   3.080  16.390  0.00  0.00    +0.000 HD
BRANCH  17  23
ATOM     19  C   UNL     1       7.061   4.660  17.711  0.00  0.00    +0.000 A 
ATOM     20  C   UNL     1       7.488   4.863  16.390  0.00  0.00    +0.000 A 
ATOM     21  C   UNL     1       6.626   4.600  15.329  0.00  0.00    +0.000 A 
ATOM     22  C   UNL     1       5.331   4.154  15.579  0.00  0.00    +0.000 A 
ATOM     23  C   UNL     1       4.868   3.966  16.901  0.00  0.00    +0.000 A 
ATOM     24  C   UNL     1       5.759   4.198  17.963  0.00  0.00    +0.000 A 
BRANCH  19  25
ATOM     25  O   UNL     1       7.890   4.916  18.741  0.00  0.00    +0.000 OA
ATOM     26  H   UNL     1       8.013   5.811  19.087  0.00  0.00    +0.000 HD
ENDBRANCH  19  25
ENDBRANCH  17  23
ENDBRANCH   1  17
TORSDOF 4
ENDMDL
MODEL 7
REMARK VINA RESULT:      -8.2      4.188      8.382
REMARK  Name = 
REMARK  4 active torsions:
REMARK  status: ('A' for Active; 'I' for Inactive)
REMARK    1  A    between atoms: O_1  and  C_2
REMARK    2  A    between atoms: C_6  and  N_7
REMARK    3  A    between atoms: N_7  and  C_8
REMARK    4  A    between atoms: C_14  and  C_15
REMARK                            x       y       z     vdW  Elec       q    Type
REMARK                         _______ _______ _______ _____ _____    ______ ____
ROOT
ATOM      1  C   UNL     1       0.188  10.198  19.943  0.00  0.00    +0.000 A 
ATOM      2  C   UNL     1      -0.116  10.090  21.316  0.00  0.00    +0.000 A 
ATOM      3  C   UNL     1       0.414   9.062  22.082  0.00  0.00    +0.000 A 
ATOM      4  N   UNL     1       1.218   8.138  21.511  0.00  0.00    +0.000 NA
ATOM      5  C   UNL     1       1.564   8.199  20.197  0.00  0.00    +0.000 A 
ATOM      6  C   UNL     1       2.384   7.203  19.677  0.00  0.00    +0.000 A 
ATOM      7  C   UNL     1       2.792   7.228  18.333  0.00  0.00    +0.000 A 
ATOM      8  C   UNL     1       2.353   8.294  17.521  0.00  0.00    +0.000 A 
ATOM      9  C   UNL     1       1.496   9.281  18.029  0.00  0.00    +0.000 A 
ATOM     10  C   UNL     1       1.084   9.252  19.376  0.00  0.00    +0.000 A 
ENDROOT
BRANCH   7  11
ATOM     11  C   UNL     1       3.665   6.138  17.791  0.00  0.00    +0.000 A 
ATOM     12  C   UNL     1       4.819   6.444  17.037  0.00  0.00    +0.000 A 
ATOM     13  C   UNL     1       5.628   5.419  16.549  0.00  0.00    +0.000 A 
ATOM     14  N   UNL     1       5.302   4.122  16.781  0.00  0.00    +0.000 NA
ATOM     15  C   UNL     1       4.196   3.786  17.494  0.00  0.00    +0.000 A 
ATOM     16  C   UNL     1       3.367   4.781  18.020  0.00  0.00    +0.000 A 
ENDBRANCH   7  11
BRANCH   1  17
ATOM     17  N   UNL     1      -0.412  11.254  19.176  0.00  0.00    +0.000 N 
ATOM     18  H   UNL     1       0.080  12.154  19.076  0.00  0.00    +0.000 HD
BRANCH  17  23
ATOM     19  C   UNL     1      -4.014  11.789  18.269  0.00  0.00    +0.000 A 
ATOM     20  C   UNL     1      -4.196  10.799  17.293  0.00  0.00    +0.000 A 
ATOM     21  C   UNL     1      -3.133   9.983  16.918  0.00  0.00    +0.000 A 
ATOM     22  C   UNL     1      -1.891  10.134  17.529  0.00  0.00    +0.000 A 
ATOM     23  C   UNL     1      -1.687  11.107  18.534  0.00  0.00    +0.000 A 
ATOM     24  C   UNL     1      -2.758  11.951  18.877  0.00  0.00    +0.000 A 
BRANCH  19  25
ATOM     25  O   UNL     1      -5.041  12.579  18.637  0.00  0.00    +0.000 OA
ATOM     26  H   UNL     1      -5.892  12.557  18.177  0.00  0.00    +0.000 HD
ENDBRANCH  19  25
ENDBRANCH  17  23
ENDBRANCH   1  17
TORSDOF 4
ENDMDL
MODEL 8
REMARK VINA RESULT:      -8.1      3.334      7.871
REMARK  Name = 
REMARK  4 active torsions:
REMARK  status: ('A' for Active; 'I' for Inactive)
REMARK    1  A    between atoms: O_1  and  C_2
REMARK    2  A    between atoms: C_6  and  N_7
REMARK    3  A    between atoms: N_7  and  C_8
REMARK    4  A    between atoms: C_14  and  C_15
REMARK                            x       y       z     vdW  Elec       q    Type
REMARK                         _______ _______ _______ _____ _____    ______ ____
ROOT
ATOM      1  C   UNL     1       2.775   5.496  19.297  0.00  0.00    +0.000 A 
ATOM      2  C   UNL     1       1.886   4.466  19.667  0.00  0.00    +0.000 A 
ATOM      3  C   UNL     1       1.790   3.306  18.913  0.00  0.00    +0.000 A 
ATOM      4  N   UNL     1       2.540   3.158  17.800  0.00  0.00    +0.000 NA
ATOM      5  C   UNL     1       3.431   4.106  17.402  0.00  0.00    +0.000 A 
ATOM      6  C   UNL     1       4.159   3.890  16.236  0.00  0.00    +0.000 A 
ATOM      7  C   UNL     1       5.108   4.824  15.790  0.00  0.00    +0.000 A 
ATOM      8  C   UNL     1       5.313   5.988  16.558  0.00  0.00    +0.000 A 
ATOM      9  C   UNL     1       4.556   6.231  17.715  0.00  0.00    +0.000 A 
ATOM     10  C   UNL     1       3.600   5.295  18.157  0.00  0.00    +0.000 A 
ENDROOT
BRANCH   7  11
ATOM     11  C   UNL     1       5.871   4.576  14.524  0.00  0.00    +0.000 A 
ATOM     12  C   UNL     1       7.101   5.225  14.284  0.00  0.00    +0.000 A 
ATOM     13  C   UNL     1       7.806   4.975  13.107  0.00  0.00    +0.000 A 
ATOM     14  N   UNL     1       7.304   4.122  12.179  0.00  0.00    +0.000 NA
ATOM     15  C   UNL     1       6.119   3.485  12.368  0.00  0.00    +0.000 A 
ATOM     16  C   UNL     1       5.389   3.689  13.542  0.00  0.00    +0.000 A 
ENDBRANCH   7  11
BRANCH   1  17
ATOM     17  N   UNL     1       2.817   6.698  20.082  0.00  0.00    +0.000 N 
ATOM     18  H   UNL     1       3.464   6.763  20.881  0.00  0.00    +0.000 HD
BRANCH  17  23
ATOM     19  C   UNL     1       0.343   9.487  20.516  0.00  0.00    +0.000 A 
ATOM     20  C   UNL     1       0.325  10.035  19.225  0.00  0.00    +0.000 A 
ATOM     21  C   UNL     1       1.143   9.507  18.231  0.00  0.00    +0.000 A 
ATOM     22  C   UNL     1       1.964   8.418  18.510  0.00  0.00    +0.000 A 
ATOM     23  C   UNL     1       1.983   7.831  19.796  0.00  0.00    +0.000 A 
ATOM     24  C   UNL     1       1.182   8.397  20.803  0.00  0.00    +0.000 A 
BRANCH  19  25
ATOM     25  O   UNL     1      -0.448   9.993  21.482  0.00  0.00    +0.000 OA
ATOM     26  H   UNL     1      -1.312   9.607  21.688  0.00  0.00    +0.000 HD
ENDBRANCH  19  25
ENDBRANCH  17  23
ENDBRANCH   1  17
TORSDOF 4
ENDMDL
MODEL 9
REMARK VINA RESULT:      -8.1      2.251      4.255
REMARK  Name = 
REMARK  4 active torsions:
REMARK  status: ('A' for Active; 'I' for Inactive)
REMARK    1  A    between atoms: O_1  and  C_2
REMARK    2  A    between atoms: C_6  and  N_7
REMARK    3  A    between atoms: N_7  and  C_8
REMARK    4  A    between atoms: C_14  and  C_15
REMARK                            x       y       z     vdW  Elec       q    Type
REMARK                         _______ _______ _______ _____ _____    ______ ____
ROOT
ATOM      1  C   UNL     1       1.925   7.854  19.719  0.00  0.00    +0.000 A 
ATOM      2  C   UNL     1       2.274   8.153  18.386  0.00  0.00    +0.000 A 
ATOM      3  C   UNL     1       1.916   9.366  17.814  0.00  0.00    +0.000 A 
ATOM      4  N   UNL     1       1.210  10.269  18.528  0.00  0.00    +0.000 NA
ATOM      5  C   UNL     1       0.861  10.047  19.824  0.00  0.00    +0.000 A 
ATOM      6  C   UNL     1       0.121  11.019  20.491  0.00  0.00    +0.000 A 
ATOM      7  C   UNL     1      -0.247  10.854  21.836  0.00  0.00    +0.000 A 
ATOM      8  C   UNL     1       0.158   9.677  22.500  0.00  0.00    +0.000 A 
ATOM      9  C   UNL     1       0.872   8.677  21.824  0.00  0.00    +0.000 A 
ATOM     10  C   UNL     1       1.236   8.843  20.473  0.00  0.00    +0.000 A 
ENDROOT
BRANCH   7  11
ATOM     11  C   UNL     1      -1.055  11.907  22.530  0.00  0.00    +0.000 A 
ATOM     12  C   UNL     1      -0.604  13.243  22.585  0.00  0.00    +0.000 A 
ATOM     13  C   UNL     1      -1.373  14.216  23.224  0.00  0.00    +0.000 A 
ATOM     14  N   UNL     1      -2.548  13.878  23.813  0.00  0.00    +0.000 NA
ATOM     15  C   UNL     1      -3.013  12.602  23.789  0.00  0.00    +0.000 A 
ATOM     16  C   UNL     1      -2.285  11.599  23.142  0.00  0.00    +0.000 A 
ENDBRANCH   7  11
BRANCH   1  17
ATOM     17  N   UNL     1       2.280   6.573  20.263  0.00  0.00    +0.000 N 
ATOM     18  H   UNL     1       2.170   6.399  21.272  0.00  0.00    +0.000 HD
BRANCH  17  23
ATOM     19  C   UNL     1       4.660   4.156  18.657  0.00  0.00    +0.000 A 
ATOM     20  C   UNL     1       3.792   3.436  17.823  0.00  0.00    +0.000 A 
ATOM     21  C   UNL     1       2.431   3.727  17.814  0.00  0.00    +0.000 A 
ATOM     22  C   UNL     1       1.932   4.750  18.616  0.00  0.00    +0.000 A 
ATOM     23  C   UNL     1       2.789   5.508  19.446  0.00  0.00    +0.000 A 
ATOM     24  C   UNL     1       4.156   5.179  19.477  0.00  0.00    +0.000 A 
BRANCH  19  25
ATOM     25  O   UNL     1       5.978   3.879  18.669  0.00  0.00    +0.000 OA
ATOM     26  H   UNL     1       6.602   4.390  19.204  0.00  0.00    +0.000 HD
ENDBRANCH  19  25
ENDBRANCH  17  23
ENDBRANCH   1  17
TORSDOF 4
ENDMDL
