MODEL 1
REMARK VINA RESULT:      -7.5      0.000      0.000
REMARK  Name = 
REMARK  5 active torsions:
REMARK  status: ('A' for Active; 'I' for Inactive)
REMARK    1  A    between atoms: C_1  and  C_2
REMARK    2  A    between atoms: C_4  and  N_5
REMARK    3  A    between atoms: N_5  and  C_6
REMARK    4  A    between atoms: C_6  and  C_7
REMARK    5  A    between atoms: C_7  and  C_8
REMARK                            x       y       z     vdW  Elec       q    Type
REMARK                         _______ _______ _______ _____ _____    ______ ____
ROOT
ATOM      1  C   UNL     1       7.178   5.056  13.614  0.00  0.00    +0.000 C 
ATOM      2  C   UNL     1       6.865   4.917  15.083  0.00  0.00    +0.000 A 
ATOM      3  C   UNL     1       5.751   3.996  15.441  0.00  0.00    +0.000 A 
ATOM      4  C   UNL     1       5.399   3.848  16.734  0.00  0.00    +0.000 A 
ATOM      5  C   UNL     1       6.148   4.595  17.686  0.00  0.00    +0.000 A 
ATOM      6  N   UNL     1       6.100   4.672  19.005  0.00  0.00    +0.000 NA
ATOM      7  N   UNL     1       7.108   5.521  19.418  0.00  0.00    +0.000 NA
ATOM      8  C   UNL     1       7.742   5.938  18.342  0.00  0.00    +0.000 A 
ATOM      9  N   UNL     1       7.180   5.388  17.224  0.00  0.00    +0.000 N 
ATOM     10  N   UNL     1       7.574   5.590  15.946  0.00  0.00    +0.000 NA
ENDROOT
BRANCH   4  11
ATOM     11  N   UNL     1       4.367   3.015  17.135  0.00  0.00    +0.000 N 
ATOM     12  H   UNL     1       4.662   2.061  17.350  0.00  0.00    +0.000 HD
BRANCH  11  13
ATOM     13  C   UNL     1       2.934   3.236  16.956  0.00  0.00    +0.000 C 
BRANCH  13  14
ATOM     14  C   UNL     1       2.378   4.251  17.961  0.00  0.00    +0.000 C 
BRANCH  14  15
ATOM     15  C   UNL     1       2.231   3.641  19.331  0.00  0.00    +0.000 A 
ATOM     16  C   UNL     1       0.985   3.572  19.950  0.00  0.00    +0.000 A 
ATOM     17  C   UNL     1       0.897   3.010  21.220  0.00  0.00    +0.000 A 
ATOM     18  C   UNL     1       2.047   2.540  21.841  0.00  0.00    +0.000 A 
ATOM     19  C   UNL     1       3.248   2.659  21.163  0.00  0.00    +0.000 A 
ATOM     20  N   UNL     1       3.364   3.199  19.929  0.00  0.00    +0.000 NA
ENDBRANCH  14  15
ENDBRANCH  13  14
ENDBRANCH  11  13
ENDBRANCH   4  11
TORSDOF 4
ENDMDL
MODEL 2
REMARK VINA RESULT:      -7.3      3.039      3.764
REMARK  Name = 
REMARK  5 active torsions:
REMARK  status: ('A' for Active; 'I' for Inactive)
REMARK    1  A    between atoms: C_1  and  C_2
REMARK    2  A    between atoms: C_4  and  N_5
REMARK    3  A    between atoms: N_5  and  C_6
REMARK    4  A    between atoms: C_6  and  C_7
REMARK    5  A    between atoms: C_7  and  C_8
REMARK                            x       y       z     vdW  Elec       q    Type
REMARK                         _______ _______ _______ _____ _____    ______ ____
ROOT
ATOM      1  C   UNL     1       6.376   4.064  14.273  0.00  0.00    +0.000 C 
ATOM      2  C   UNL     1       6.269   4.337  15.754  0.00  0.00    +0.000 A 
ATOM      3  C   UNL     1       4.922   4.168  16.365  0.00  0.00    +0.000 A 
ATOM      4  C   UNL     1       4.750   4.424  17.677  0.00  0.00    +0.000 A 
ATOM      5  C   UNL     1       5.904   4.836  18.401  0.00  0.00    +0.000 A 
ATOM      6  N   UNL     1       6.106   5.136  19.673  0.00  0.00    +0.000 NA
ATOM      7  N   UNL     1       7.448   5.420  19.835  0.00  0.00    +0.000 NA
ATOM      8  C   UNL     1       8.026   5.286  18.660  0.00  0.00    +0.000 A 
ATOM      9  N   UNL     1       7.103   4.921  17.721  0.00  0.00    +0.000 N 
ATOM     10  N   UNL     1       7.339   4.692  16.409  0.00  0.00    +0.000 NA
ENDROOT
BRANCH   4  11
ATOM     11  N   UNL     1       3.522   4.295  18.307  0.00  0.00    +0.000 N 
ATOM     12  H   UNL     1       3.259   3.330  18.513  0.00  0.00    +0.000 HD
BRANCH  11  13
ATOM     13  C   UNL     1       2.463   5.297  18.386  0.00  0.00    +0.000 C 
BRANCH  13  14
ATOM     14  C   UNL     1       2.606   6.191  19.624  0.00  0.00    +0.000 C 
BRANCH  14  15
ATOM     15  C   UNL     1       2.082   7.580  19.362  0.00  0.00    +0.000 A 
ATOM     16  C   UNL     1       2.171   8.147  18.093  0.00  0.00    +0.000 A 
ATOM     17  C   UNL     1       1.683   9.436  17.899  0.00  0.00    +0.000 A 
ATOM     18  C   UNL     1       1.128  10.125  18.970  0.00  0.00    +0.000 A 
ATOM     19  C   UNL     1       1.090   9.495  20.201  0.00  0.00    +0.000 A 
ATOM     20  N   UNL     1       1.555   8.244  20.420  0.00  0.00    +0.000 NA
ENDBRANCH  14  15
ENDBRANCH  13  14
ENDBRANCH  11  13
ENDBRANCH   4  11
TORSDOF 4
ENDMDL
MODEL 3
REMARK VINA RESULT:      -7.3      1.095      1.138
REMARK  Name = 
REMARK  5 active torsions:
REMARK  status: ('A' for Active; 'I' for Inactive)
REMARK    1  A    between atoms: C_1  and  C_2
REMARK    2  A    between atoms: C_4  and  N_5
REMARK    3  A    between atoms: N_5  and  C_6
REMARK    4  A    between atoms: C_6  and  C_7
REMARK    5  A    between atoms: C_7  and  C_8
REMARK                            x       y       z     vdW  Elec       q    Type
REMARK                         _______ _______ _______ _____ _____    ______ ____
ROOT
ATOM      1  C   UNL     1       6.972   4.471  13.960  0.00  0.00    +0.000 C 
ATOM      2  C   UNL     1       6.627   4.655  15.417  0.00  0.00    +0.000 A 
ATOM      3  C   UNL     1       5.190   4.522  15.782  0.00  0.00    +0.000 A 
ATOM      4  C   UNL     1       4.808   4.705  17.061  0.00  0.00    +0.000 A 
ATOM      5  C   UNL     1       5.839   5.007  17.995  0.00  0.00    +0.000 A 
ATOM      6  N   UNL     1       5.834   5.215  19.301  0.00  0.00    +0.000 NA
ATOM      7  N   UNL     1       7.140   5.414  19.704  0.00  0.00    +0.000 NA
ATOM      8  C   UNL     1       7.904   5.322  18.635  0.00  0.00    +0.000 A 
ATOM      9  N   UNL     1       7.138   5.068  17.532  0.00  0.00    +0.000 N 
ATOM     10  N   UNL     1       7.584   4.909  16.265  0.00  0.00    +0.000 NA
ENDROOT
BRANCH   4  11
ATOM     11  N   UNL     1       3.486   4.605  17.467  0.00  0.00    +0.000 N 
ATOM     12  H   UNL     1       3.295   5.038  18.372  0.00  0.00    +0.000 HD
BRANCH  11  13
ATOM     13  C   UNL     1       2.471   3.695  16.944  0.00  0.00    +0.000 C 
BRANCH  13  14
ATOM     14  C   UNL     1       1.205   3.686  17.808  0.00  0.00    +0.000 C 
BRANCH  14  15
ATOM     15  C   UNL     1       1.542   3.604  19.275  0.00  0.00    +0.000 A 
ATOM     16  C   UNL     1       1.461   2.394  19.958  0.00  0.00    +0.000 A 
ATOM     17  C   UNL     1       1.772   2.366  21.315  0.00  0.00    +0.000 A 
ATOM     18  C   UNL     1       2.147   3.541  21.954  0.00  0.00    +0.000 A 
ATOM     19  C   UNL     1       2.189   4.705  21.206  0.00  0.00    +0.000 A 
ATOM     20  N   UNL     1       1.894   4.762  19.888  0.00  0.00    +0.000 NA
ENDBRANCH  14  15
ENDBRANCH  13  14
ENDBRANCH  11  13
ENDBRANCH   4  11
TORSDOF 4
ENDMDL
MODEL 4
REMARK VINA RESULT:      -7.2      1.480      2.619
REMARK  Name = 
REMARK  5 active torsions:
REMARK  status: ('A' for Active; 'I' for Inactive)
REMARK    1  A    between atoms: C_1  and  C_2
REMARK    2  A    between atoms: C_4  and  N_5
REMARK    3  A    between atoms: N_5  and  C_6
REMARK    4  A    between atoms: C_6  and  C_7
REMARK    5  A    between atoms: C_7  and  C_8
REMARK                            x       y       z     vdW  Elec       q    Type
REMARK                         _______ _______ _______ _____ _____    ______ ____
ROOT
ATOM      1  C   UNL     1       8.013   8.432  17.691  0.00  0.00    +0.000 C 
ATOM      2  C   UNL     1       7.166   7.251  17.284  0.00  0.00    +0.000 A 
ATOM      3  C   UNL     1       5.884   7.068  18.019  0.00  0.00    +0.000 A 
ATOM      4  C   UNL     1       5.094   6.016  17.727  0.00  0.00    +0.000 A 
ATOM      5  C   UNL     1       5.552   5.143  16.700  0.00  0.00    +0.000 A 
ATOM      6  N   UNL     1       5.036   4.057  16.148  0.00  0.00    +0.000 NA
ATOM      7  N   UNL     1       5.893   3.640  15.149  0.00  0.00    +0.000 NA
ATOM      8  C   UNL     1       6.906   4.481  15.118  0.00  0.00    +0.000 A 
ATOM      9  N   UNL     1       6.745   5.445  16.073  0.00  0.00    +0.000 N 
ATOM     10  N   UNL     1       7.588   6.472  16.327  0.00  0.00    +0.000 NA
ENDROOT
BRANCH   4  11
ATOM     11  N   UNL     1       3.893   5.782  18.378  0.00  0.00    +0.000 N 
ATOM     12  H   UNL     1       3.990   5.282  19.263  0.00  0.00    +0.000 HD
BRANCH  11  13
ATOM     13  C   UNL     1       2.552   5.851  17.804  0.00  0.00    +0.000 C 
BRANCH  13  14
ATOM     14  C   UNL     1       1.844   4.491  17.830  0.00  0.00    +0.000 C 
BRANCH  14  15
ATOM     15  C   UNL     1       2.046   3.792  19.149  0.00  0.00    +0.000 A 
ATOM     16  C   UNL     1       1.083   3.868  20.152  0.00  0.00    +0.000 A 
ATOM     17  C   UNL     1       1.316   3.215  21.358  0.00  0.00    +0.000 A 
ATOM     18  C   UNL     1       2.500   2.511  21.536  0.00  0.00    +0.000 A 
ATOM     19  C   UNL     1       3.412   2.496  20.495  0.00  0.00    +0.000 A 
ATOM     20  N   UNL     1       3.213   3.120  19.313  0.00  0.00    +0.000 NA
ENDBRANCH  14  15
ENDBRANCH  13  14
ENDBRANCH  11  13
ENDBRANCH   4  11
TORSDOF 4
ENDMDL
MODEL 5
REMARK VINA RESULT:      -7.1      2.191      3.741
REMARK  Name = 
REMARK  5 active torsions:
REMARK  status: ('A' for Active; 'I' for Inactive)
REMARK    1  A    between atoms: C_1  and  C_2
REMARK    2  A    between atoms: C_4  and  N_5
REMARK    3  A    between atoms: N_5  and  C_6
REMARK    4  A    between atoms: C_6  and  C_7
REMARK    5  A    between atoms: C_7  and  C_8
REMARK                            x       y       z     vdW  Elec       q    Type
REMARK                         _______ _______ _______ _____ _____    ______ ____
ROOT
ATOM      1  C   UNL     1       8.137   7.713  18.353  0.00  0.00    +0.000 C 
ATOM      2  C   UNL     1       7.461   6.545  17.676  0.00  0.00    +0.000 A 
ATOM      3  C   UNL     1       6.724   5.600  18.560  0.00  0.00    +0.000 A 
ATOM      4  C   UNL     1       6.124   4.519  18.024  0.00  0.00    +0.000 A 
ATOM      5  C   UNL     1       6.233   4.365  16.614  0.00  0.00    +0.000 A 
ATOM      6  N   UNL     1       5.758   3.464  15.769  0.00  0.00    +0.000 NA
ATOM      7  N   UNL     1       6.130   3.840  14.494  0.00  0.00    +0.000 NA
ATOM      8  C   UNL     1       6.820   4.957  14.594  0.00  0.00    +0.000 A 
ATOM      9  N   UNL     1       6.917   5.332  15.904  0.00  0.00    +0.000 N 
ATOM     10  N   UNL     1       7.551   6.428  16.380  0.00  0.00    +0.000 NA
ENDROOT
BRANCH   4  11
ATOM     11  N   UNL     1       5.429   3.596  18.790  0.00  0.00    +0.000 N 
ATOM     12  H   UNL     1       5.619   2.623  18.544  0.00  0.00    +0.000 HD
BRANCH  11  13
ATOM     13  C   UNL     1       4.256   3.847  19.623  0.00  0.00    +0.000 C 
BRANCH  13  14
ATOM     14  C   UNL     1       3.020   4.197  18.787  0.00  0.00    +0.000 C 
BRANCH  14  15
ATOM     15  C   UNL     1       2.690   5.665  18.884  0.00  0.00    +0.000 A 
ATOM     16  C   UNL     1       2.993   6.534  17.839  0.00  0.00    +0.000 A 
ATOM     17  C   UNL     1       2.679   7.883  17.976  0.00  0.00    +0.000 A 
ATOM     18  C   UNL     1       2.082   8.330  19.147  0.00  0.00    +0.000 A 
ATOM     19  C   UNL     1       1.827   7.404  20.143  0.00  0.00    +0.000 A 
ATOM     20  N   UNL     1       2.119   6.089  20.039  0.00  0.00    +0.000 NA
ENDBRANCH  14  15
ENDBRANCH  13  14
ENDBRANCH  11  13
ENDBRANCH   4  11
TORSDOF 4
ENDMDL
MODEL 6
REMARK VINA RESULT:      -7.1      1.802      2.530
REMARK  Name = 
REMARK  5 active torsions:
REMARK  status: ('A' for Active; 'I' for Inactive)
REMARK    1  A    between atoms: C_1  and  C_2
REMARK    2  A    between atoms: C_4  and  N_5
REMARK    3  A    between atoms: N_5  and  C_6
REMARK    4  A    between atoms: C_6  and  C_7
REMARK    5  A    between atoms: C_7  and  C_8
REMARK                            x       y       z     vdW  Elec       q    Type
REMARK                         _______ _______ _______ _____ _____    ______ ____
ROOT
ATOM      1  C   UNL     1       6.891   4.678  13.997  0.00  0.00    +0.000 C 
ATOM      2  C   UNL     1       6.662   4.640  15.488  0.00  0.00    +0.000 A 
ATOM      3  C   UNL     1       5.510   3.824  15.963  0.00  0.00    +0.000 A 
ATOM      4  C   UNL     1       5.231   3.772  17.281  0.00  0.00    +0.000 A 
ATOM      5  C   UNL     1       6.089   4.511  18.143  0.00  0.00    +0.000 A 
ATOM      6  N   UNL     1       6.130   4.661  19.456  0.00  0.00    +0.000 NA
ATOM      7  N   UNL     1       7.219   5.454  19.759  0.00  0.00    +0.000 NA
ATOM      8  C   UNL     1       7.812   5.765  18.626  0.00  0.00    +0.000 A 
ATOM      9  N   UNL     1       7.144   5.200  17.576  0.00  0.00    +0.000 N 
ATOM     10  N   UNL     1       7.469   5.304  16.268  0.00  0.00    +0.000 NA
ENDROOT
BRANCH   4  11
ATOM     11  N   UNL     1       4.170   3.039  17.789  0.00  0.00    +0.000 N 
ATOM     12  H   UNL     1       4.397   2.065  17.995  0.00  0.00    +0.000 HD
BRANCH  11  13
ATOM     13  C   UNL     1       2.752   3.387  17.735  0.00  0.00    +0.000 C 
BRANCH  13  14
ATOM     14  C   UNL     1       2.222   3.856  19.094  0.00  0.00    +0.000 C 
BRANCH  14  15
ATOM     15  C   UNL     1       2.179   5.361  19.177  0.00  0.00    +0.000 A 
ATOM     16  C   UNL     1       2.400   6.143  18.047  0.00  0.00    +0.000 A 
ATOM     17  C   UNL     1       2.361   7.529  18.172  0.00  0.00    +0.000 A 
ATOM     18  C   UNL     1       2.110   8.096  19.414  0.00  0.00    +0.000 A 
ATOM     19  C   UNL     1       1.914   7.248  20.490  0.00  0.00    +0.000 A 
ATOM     20  N   UNL     1       1.945   5.900  20.399  0.00  0.00    +0.000 NA
ENDBRANCH  14  15
ENDBRANCH  13  14
ENDBRANCH  11  13
ENDBRANCH   4  11
TORSDOF 4
ENDMDL
MODEL 7
REMARK VINA RESULT:      -7.0      1.257      1.400
REMARK  Name = 
REMARK  5 active torsions:
REMARK  status: ('A' for Active; 'I' for Inactive)
REMARK    1  A    between atoms: C_1  and  C_2
REMARK    2  A    between atoms: C_4  and  N_5
REMARK    3  A    between atoms: N_5  and  C_6
REMARK    4  A    between atoms: C_6  and  C_7
REMARK    5  A    between atoms: C_7  and  C_8
REMARK                            x       y       z     vdW  Elec       q    Type
REMARK                         _______ _______ _______ _____ _____    ______ ____
ROOT
ATOM      1  C   UNL     1       6.199   4.057  14.264  0.00  0.00    +0.000 C 
ATOM      2  C   UNL     1       6.261   4.413  15.730  0.00  0.00    +0.000 A 
ATOM      3  C   UNL     1       4.965   4.720  16.395  0.00  0.00    +0.000 A 
ATOM      4  C   UNL     1       4.952   5.075  17.695  0.00  0.00    +0.000 A 
ATOM      5  C   UNL     1       6.213   5.117  18.355  0.00  0.00    +0.000 A 
ATOM      6  N   UNL     1       6.565   5.388  19.601  0.00  0.00    +0.000 NA
ATOM      7  N   UNL     1       7.933   5.224  19.700  0.00  0.00    +0.000 NA
ATOM      8  C   UNL     1       8.376   4.858  18.515  0.00  0.00    +0.000 A 
ATOM      9  N   UNL     1       7.338   4.775  17.631  0.00  0.00    +0.000 N 
ATOM     10  N   UNL     1       7.420   4.426  16.327  0.00  0.00    +0.000 NA
ENDROOT
BRANCH   4  11
ATOM     11  N   UNL     1       3.783   5.382  18.373  0.00  0.00    +0.000 N 
ATOM     12  H   UNL     1       3.751   5.026  19.330  0.00  0.00    +0.000 HD
BRANCH  11  13
ATOM     13  C   UNL     1       2.518   5.825  17.792  0.00  0.00    +0.000 C 
BRANCH  13  14
ATOM     14  C   UNL     1       1.450   4.727  17.831  0.00  0.00    +0.000 C 
BRANCH  14  15
ATOM     15  C   UNL     1       1.625   3.833  19.032  0.00  0.00    +0.000 A 
ATOM     16  C   UNL     1       1.054   4.167  20.258  0.00  0.00    +0.000 A 
ATOM     17  C   UNL     1       1.250   3.317  21.343  0.00  0.00    +0.000 A 
ATOM     18  C   UNL     1       2.011   2.167  21.181  0.00  0.00    +0.000 A 
ATOM     19  C   UNL     1       2.555   1.915  19.934  0.00  0.00    +0.000 A 
ATOM     20  N   UNL     1       2.382   2.721  18.862  0.00  0.00    +0.000 NA
ENDBRANCH  14  15
ENDBRANCH  13  14
ENDBRANCH  11  13
ENDBRANCH   4  11
TORSDOF 4
ENDMDL
MODEL 8
REMARK VINA RESULT:      -7.0      1.313      2.734
REMARK  Name = 
REMARK  5 active torsions:
REMARK  status: ('A' for Active; 'I' for Inactive)
REMARK    1  A    between atoms: C_1  and  C_2
REMARK    2  A    between atoms: C_4  and  N_5
REMARK    3  A    between atoms: N_5  and  C_6
REMARK    4  A    between atoms: C_6  and  C_7
REMARK    5  A    between atoms: C_7  and  C_8
REMARK                            x       y       z     vdW  Elec       q    Type
REMARK                         _______ _______ _______ _____ _____    ______ ____
ROOT
ATOM      1  C   UNL     1       7.754   5.903  19.156  0.00  0.00    +0.000 C 
ATOM      2  C   UNL     1       7.075   5.307  17.947  0.00  0.00    +0.000 A 
ATOM      3  C   UNL     1       5.813   4.557  18.196  0.00  0.00    +0.000 A 
ATOM      4  C   UNL     1       5.172   3.972  17.165  0.00  0.00    +0.000 A 
ATOM      5  C   UNL     1       5.759   4.132  15.879  0.00  0.00    +0.000 A 
ATOM      6  N   UNL     1       5.398   3.730  14.671  0.00  0.00    +0.000 NA
ATOM      7  N   UNL     1       6.322   4.219  13.768  0.00  0.00    +0.000 NA
ATOM      8  C   UNL     1       7.218   4.903  14.447  0.00  0.00    +0.000 A 
ATOM      9  N   UNL     1       6.915   4.881  15.780  0.00  0.00    +0.000 N 
ATOM     10  N   UNL     1       7.612   5.479  16.772  0.00  0.00    +0.000 NA
ENDROOT
BRANCH   4  11
ATOM     11  N   UNL     1       3.998   3.253  17.328  0.00  0.00    +0.000 N 
ATOM     12  H   UNL     1       4.140   2.283  17.615  0.00  0.00    +0.000 HD
BRANCH  11  13
ATOM     13  C   UNL     1       2.673   3.602  16.823  0.00  0.00    +0.000 C 
BRANCH  13  14
ATOM     14  C   UNL     1       1.944   4.584  17.747  0.00  0.00    +0.000 C 
BRANCH  14  15
ATOM     15  C   UNL     1       1.924   4.087  19.170  0.00  0.00    +0.000 A 
ATOM     16  C   UNL     1       2.297   4.920  20.221  0.00  0.00    +0.000 A 
ATOM     17  C   UNL     1       2.272   4.415  21.519  0.00  0.00    +0.000 A 
ATOM     18  C   UNL     1       1.885   3.099  21.732  0.00  0.00    +0.000 A 
ATOM     19  C   UNL     1       1.542   2.333  20.631  0.00  0.00    +0.000 A 
ATOM     20  N   UNL     1       1.556   2.796  19.361  0.00  0.00    +0.000 NA
ENDBRANCH  14  15
ENDBRANCH  13  14
ENDBRANCH  11  13
ENDBRANCH   4  11
TORSDOF 4
ENDMDL
MODEL 9
REMARK VINA RESULT:      -6.9      1.992      5.876
REMARK  Name = 
REMARK  5 active torsions:
REMARK  status: ('A' for Active; 'I' for Inactive)
REMARK    1  A    between atoms: C_1  and  C_2
REMARK    2  A    between atoms: C_4  and  N_5
REMARK    3  A    between atoms: N_5  and  C_6
REMARK    4  A    between atoms: C_6  and  C_7
REMARK    5  A    between atoms: C_7  and  C_8
REMARK                            x       y       z     vdW  Elec       q    Type
REMARK                         _______ _______ _______ _____ _____    ______ ____
ROOT
ATOM      1  C   UNL     1       1.830   2.966  21.842  0.00  0.00    +0.000 C 
ATOM      2  C   UNL     1       2.361   3.868  20.755  0.00  0.00    +0.000 A 
ATOM      3  C   UNL     1       3.348   3.267  19.816  0.00  0.00    +0.000 A 
ATOM      4  C   UNL     1       3.886   4.026  18.840  0.00  0.00    +0.000 A 
ATOM      5  C   UNL     1       3.446   5.378  18.771  0.00  0.00    +0.000 A 
ATOM      6  N   UNL     1       3.731   6.374  17.948  0.00  0.00    +0.000 NA
ATOM      7  N   UNL     1       2.966   7.462  18.319  0.00  0.00    +0.000 NA
ATOM      8  C   UNL     1       2.237   7.102  19.354  0.00  0.00    +0.000 A 
ATOM      9  N   UNL     1       2.499   5.801  19.683  0.00  0.00    +0.000 N 
ATOM     10  N   UNL     1       1.933   5.098  20.690  0.00  0.00    +0.000 NA
ENDROOT
BRANCH   4  11
ATOM     11  N   UNL     1       4.815   3.532  17.938  0.00  0.00    +0.000 N 
ATOM     12  H   UNL     1       5.660   3.158  18.374  0.00  0.00    +0.000 HD
BRANCH  11  13
ATOM     13  C   UNL     1       4.876   3.794  16.503  0.00  0.00    +0.000 C 
BRANCH  13  14
ATOM     14  C   UNL     1       6.291   4.163  16.043  0.00  0.00    +0.000 C 
BRANCH  14  15
ATOM     15  C   UNL     1       6.919   5.179  16.963  0.00  0.00    +0.000 A 
ATOM     16  C   UNL     1       7.046   6.510  16.573  0.00  0.00    +0.000 A 
ATOM     17  C   UNL     1       7.641   7.412  17.451  0.00  0.00    +0.000 A 
ATOM     18  C   UNL     1       8.099   6.965  18.683  0.00  0.00    +0.000 A 
ATOM     19  C   UNL     1       7.947   5.624  18.988  0.00  0.00    +0.000 A 
ATOM     20  N   UNL     1       7.372   4.725  18.157  0.00  0.00    +0.000 NA
ENDBRANCH  14  15
ENDBRANCH  13  14
ENDBRANCH  11  13
ENDBRANCH   4  11
TORSDOF 4
ENDMDL
