MODEL 1
REMARK VINA RESULT:      -7.8      0.000      0.000
REMARK  Name = 
REMARK  14 active torsions:
REMARK  status: ('A' for Active; 'I' for Inactive)
REMARK    1  A    between atoms: C_1  and  N_2
REMARK    2  A    between atoms: N_2  and  C_3
REMARK    3  A    between atoms: N_2  and  C_11
REMARK    4  A    between atoms: C_3  and  C_4
REMARK    5  A    between atoms: C_4  and  C_5
REMARK    6  A    between atoms: C_11  and  C_12
REMARK    7  A    between atoms: C_12  and  O_13
REMARK    8  A    between atoms: C_12  and  C_14
REMARK    9  A    between atoms: C_14  and  O_15
REMARK   10  A    between atoms: O_15  and  C_16
REMARK   11  A    between atoms: C_21  and  C_22
REMARK   12  A    between atoms: C_22  and  C_24
REMARK   13  A    between atoms: C_24  and  C_25
REMARK   14  A    between atoms: C_25  and  C_26
REMARK                            x       y       z     vdW  Elec       q    Type
REMARK                         _______ _______ _______ _____ _____    ______ ____
ROOT
ATOM      1  O   UNL     1       4.932   4.535  18.468  0.00  0.00    +0.000 OA
ENDROOT
BRANCH   1   2
ATOM      2  C   UNL     1       5.493   4.556  17.223  0.00  0.00    +0.000 A 
ATOM      3  C   UNL     1       4.748   4.126  16.089  0.00  0.00    +0.000 A 
ATOM      4  C   UNL     1       5.256   4.227  14.807  0.00  0.00    +0.000 A 
ATOM      5  C   UNL     1       6.519   4.757  14.607  0.00  0.00    +0.000 A 
ATOM      6  C   UNL     1       7.292   5.163  15.697  0.00  0.00    +0.000 A 
ATOM      7  C   UNL     1       6.815   5.056  17.026  0.00  0.00    +0.000 A 
BRANCH   7   8
ATOM      8  C   UNL     1       7.756   5.452  18.139  0.00  0.00    +0.000 C 
ATOM      9  O   UNL     1       8.363   4.571  18.736  0.00  0.00    +0.000 OA
BRANCH   8  10
ATOM     10  C   UNL     1       7.856   6.879  18.658  0.00  0.00    +0.000 C 
BRANCH  10  11
ATOM     11  C   UNL     1       7.798   7.969  17.555  0.00  0.00    +0.000 C 
BRANCH  11  12
ATOM     12  C   UNL     1       8.341   9.293  18.059  0.00  0.00    +0.000 A 
ATOM     13  C   UNL     1       9.107   9.335  19.240  0.00  0.00    +0.000 A 
ATOM     14  C   UNL     1       9.603  10.549  19.724  0.00  0.00    +0.000 A 
ATOM     15  C   UNL     1       9.344  11.736  19.036  0.00  0.00    +0.000 A 
ATOM     16  C   UNL     1       8.598  11.708  17.855  0.00  0.00    +0.000 A 
ATOM     17  C   UNL     1       8.101  10.493  17.363  0.00  0.00    +0.000 A 
ENDBRANCH  11  12
ENDBRANCH  10  11
ENDBRANCH   8  10
ENDBRANCH   7   8
ENDBRANCH   1   2
BRANCH   1  18
ATOM     18  C   UNL     1       5.008   3.446  19.323  0.00  0.00    +0.000 C 
BRANCH  18  19
ATOM     19  C   UNL     1       3.715   2.647  19.440  0.00  0.00    +0.000 C 
BRANCH  19  20
ATOM     20  O   UNL     1       3.907   1.528  18.607  0.00  0.00    +0.000 OA
ATOM     21  H   UNL     1       3.942   0.717  19.185  0.00  0.00    +0.000 HD
ENDBRANCH  19  20
BRANCH  19  22
ATOM     22  C   UNL     1       2.461   3.495  19.026  0.00  0.00    +0.000 C 
BRANCH  22  24
ATOM     23  C   UNL     1       1.730   2.684  21.172  0.00  0.00    +0.000 C 
ATOM     24  N   UNL     1       1.397   3.612  20.067  0.00  0.00    +0.000 NA
BRANCH  24  25
ATOM     25  C   UNL     1       1.268   5.001  20.571  0.00  0.00    +0.000 C 
BRANCH  25  26
ATOM     26  C   UNL     1       2.469   5.916  20.304  0.00  0.00    +0.000 C 
BRANCH  26  27
ATOM     27  C   UNL     1       2.087   7.231  19.660  0.00  0.00    +0.000 A 
ATOM     28  C   UNL     1       1.385   8.183  20.412  0.00  0.00    +0.000 A 
ATOM     29  C   UNL     1       1.047   9.417  19.852  0.00  0.00    +0.000 A 
ATOM     30  C   UNL     1       1.396   9.708  18.536  0.00  0.00    +0.000 A 
ATOM     31  C   UNL     1       2.094   8.771  17.769  0.00  0.00    +0.000 A 
ATOM     32  C   UNL     1       2.445   7.537  18.329  0.00  0.00    +0.000 A 
ENDBRANCH  26  27
ENDBRANCH  25  26
ENDBRANCH  24  25
ENDBRANCH  22  24
ENDBRANCH  19  22
ENDBRANCH  18  19
ENDBRANCH   1  18
TORSDOF 13
ENDMDL
MODEL 2
REMARK VINA RESULT:      -7.8      3.418      7.327
REMARK  Name = 
REMARK  14 active torsions:
REMARK  status: ('A' for Active; 'I' for Inactive)
REMARK    1  A    between atoms: C_1  and  N_2
REMARK    2  A    between atoms: N_2  and  C_3
REMARK    3  A    between atoms: N_2  and  C_11
REMARK    4  A    between atoms: C_3  and  C_4
REMARK    5  A    between atoms: C_4  and  C_5
REMARK    6  A    between atoms: C_11  and  C_12
REMARK    7  A    between atoms: C_12  and  O_13
REMARK    8  A    between atoms: C_12  and  C_14
REMARK    9  A    between atoms: C_14  and  O_15
REMARK   10  A    between atoms: O_15  and  C_16
REMARK   11  A    between atoms: C_21  and  C_22
REMARK   12  A    between atoms: C_22  and  C_24
REMARK   13  A    between atoms: C_24  and  C_25
REMARK   14  A    between atoms: C_25  and  C_26
REMARK                            x       y       z     vdW  Elec       q    Type
REMARK                         _______ _______ _______ _____ _____    ______ ____
ROOT
ATOM      1  O   UNL     1       1.626   5.947  20.700  0.00  0.00    +0.000 OA
ENDROOT
BRANCH   1   2
ATOM      2  C   UNL     1       2.046   6.841  19.757  0.00  0.00    +0.000 A 
ATOM      3  C   UNL     1       2.836   6.408  18.655  0.00  0.00    +0.000 A 
ATOM      4  C   UNL     1       3.193   7.271  17.635  0.00  0.00    +0.000 A 
ATOM      5  C   UNL     1       2.780   8.591  17.675  0.00  0.00    +0.000 A 
ATOM      6  C   UNL     1       2.028   9.060  18.754  0.00  0.00    +0.000 A 
ATOM      7  C   UNL     1       1.660   8.213  19.827  0.00  0.00    +0.000 A 
BRANCH   7   8
ATOM      8  C   UNL     1       0.911   8.834  20.982  0.00  0.00    +0.000 C 
ATOM      9  O   UNL     1       1.402   8.769  22.103  0.00  0.00    +0.000 OA
BRANCH   8  10
ATOM     10  C   UNL     1      -0.499   9.388  20.841  0.00  0.00    +0.000 C 
BRANCH  10  11
ATOM     11  C   UNL     1      -0.573  10.792  20.183  0.00  0.00    +0.000 C 
BRANCH  11  12
ATOM     12  C   UNL     1      -1.505  10.791  18.985  0.00  0.00    +0.000 A 
ATOM     13  C   UNL     1      -2.627  11.642  18.966  0.00  0.00    +0.000 A 
ATOM     14  C   UNL     1      -3.502  11.642  17.875  0.00  0.00    +0.000 A 
ATOM     15  C   UNL     1      -3.268  10.796  16.790  0.00  0.00    +0.000 A 
ATOM     16  C   UNL     1      -2.151   9.957  16.788  0.00  0.00    +0.000 A 
ATOM     17  C   UNL     1      -1.269   9.955  17.878  0.00  0.00    +0.000 A 
ENDBRANCH  11  12
ENDBRANCH  10  11
ENDBRANCH   8  10
ENDBRANCH   7   8
ENDBRANCH   1   2
BRANCH   1  18
ATOM     18  C   UNL     1       2.428   4.935  21.207  0.00  0.00    +0.000 C 
BRANCH  18  19
ATOM     19  C   UNL     1       1.902   3.527  20.951  0.00  0.00    +0.000 C 
BRANCH  19  20
ATOM     20  O   UNL     1       1.639   3.003  22.231  0.00  0.00    +0.000 OA
ATOM     21  H   UNL     1       2.085   2.114  22.297  0.00  0.00    +0.000 HD
ENDBRANCH  19  20
BRANCH  19  22
ATOM     22  C   UNL     1       2.928   2.656  20.144  0.00  0.00    +0.000 C 
BRANCH  22  24
ATOM     23  C   UNL     1       0.996   2.418  18.727  0.00  0.00    +0.000 C 
ATOM     24  N   UNL     1       2.355   1.893  18.996  0.00  0.00    +0.000 NA
BRANCH  24  25
ATOM     25  C   UNL     1       3.205   1.997  17.785  0.00  0.00    +0.000 C 
BRANCH  25  26
ATOM     26  C   UNL     1       3.287   3.391  17.151  0.00  0.00    +0.000 C 
BRANCH  26  27
ATOM     27  C   UNL     1       4.706   3.880  16.965  0.00  0.00    +0.000 A 
ATOM     28  C   UNL     1       5.469   4.213  18.092  0.00  0.00    +0.000 A 
ATOM     29  C   UNL     1       6.793   4.637  17.950  0.00  0.00    +0.000 A 
ATOM     30  C   UNL     1       7.361   4.743  16.684  0.00  0.00    +0.000 A 
ATOM     31  C   UNL     1       6.617   4.417  15.547  0.00  0.00    +0.000 A 
ATOM     32  C   UNL     1       5.294   3.981  15.685  0.00  0.00    +0.000 A 
ENDBRANCH  26  27
ENDBRANCH  25  26
ENDBRANCH  24  25
ENDBRANCH  22  24
ENDBRANCH  19  22
ENDBRANCH  18  19
ENDBRANCH   1  18
TORSDOF 13
ENDMDL
MODEL 3
REMARK VINA RESULT:      -7.4      2.059      7.234
REMARK  Name = 
REMARK  14 active torsions:
REMARK  status: ('A' for Active; 'I' for Inactive)
REMARK    1  A    between atoms: C_1  and  N_2
REMARK    2  A    between atoms: N_2  and  C_3
REMARK    3  A    between atoms: N_2  and  C_11
REMARK    4  A    between atoms: C_3  and  C_4
REMARK    5  A    between atoms: C_4  and  C_5
REMARK    6  A    between atoms: C_11  and  C_12
REMARK    7  A    between atoms: C_12  and  O_13
REMARK    8  A    between atoms: C_12  and  C_14
REMARK    9  A    between atoms: C_14  and  O_15
REMARK   10  A    between atoms: O_15  and  C_16
REMARK   11  A    between atoms: C_21  and  C_22
REMARK   12  A    between atoms: C_22  and  C_24
REMARK   13  A    between atoms: C_24  and  C_25
REMARK   14  A    between atoms: C_25  and  C_26
REMARK                            x       y       z     vdW  Elec       q    Type
REMARK                         _______ _______ _______ _____ _____    ______ ____
ROOT
ATOM      1  O   UNL     1       4.802   4.261  18.626  0.00  0.00    +0.000 OA
ENDROOT
BRANCH   1   2
ATOM      2  C   UNL     1       3.752   3.982  19.454  0.00  0.00    +0.000 A 
ATOM      3  C   UNL     1       3.745   2.790  20.233  0.00  0.00    +0.000 A 
ATOM      4  C   UNL     1       2.743   2.530  21.150  0.00  0.00    +0.000 A 
ATOM      5  C   UNL     1       1.716   3.441  21.324  0.00  0.00    +0.000 A 
ATOM      6  C   UNL     1       1.673   4.608  20.558  0.00  0.00    +0.000 A 
ATOM      7  C   UNL     1       2.669   4.900  19.594  0.00  0.00    +0.000 A 
BRANCH   7   8
ATOM      8  C   UNL     1       2.492   6.150  18.765  0.00  0.00    +0.000 C 
ATOM      9  O   UNL     1       2.576   6.062  17.546  0.00  0.00    +0.000 OA
BRANCH   8  10
ATOM     10  C   UNL     1       2.379   7.534  19.385  0.00  0.00    +0.000 C 
BRANCH  10  11
ATOM     11  C   UNL     1       2.242   8.689  18.356  0.00  0.00    +0.000 C 
BRANCH  11  12
ATOM     12  C   UNL     1       0.998   9.516  18.620  0.00  0.00    +0.000 A 
ATOM     13  C   UNL     1      -0.060   9.512  17.690  0.00  0.00    +0.000 A 
ATOM     14  C   UNL     1      -1.207  10.280  17.912  0.00  0.00    +0.000 A 
ATOM     15  C   UNL     1      -1.315  11.060  19.065  0.00  0.00    +0.000 A 
ATOM     16  C   UNL     1      -0.280  11.064  20.003  0.00  0.00    +0.000 A 
ATOM     17  C   UNL     1       0.871  10.293  19.787  0.00  0.00    +0.000 A 
ENDBRANCH  11  12
ENDBRANCH  10  11
ENDBRANCH   8  10
ENDBRANCH   7   8
ENDBRANCH   1   2
BRANCH   1  18
ATOM     18  C   UNL     1       6.073   4.579  19.083  0.00  0.00    +0.000 C 
BRANCH  18  19
ATOM     19  C   UNL     1       7.046   5.005  17.990  0.00  0.00    +0.000 C 
BRANCH  19  20
ATOM     20  O   UNL     1       8.062   4.031  18.012  0.00  0.00    +0.000 OA
ATOM     21  H   UNL     1       8.939   4.502  18.051  0.00  0.00    +0.000 HD
ENDBRANCH  19  20
BRANCH  19  22
ATOM     22  C   UNL     1       7.598   6.454  18.229  0.00  0.00    +0.000 C 
BRANCH  22  24
ATOM     23  C   UNL     1       5.814   7.391  16.910  0.00  0.00    +0.000 C 
ATOM     24  N   UNL     1       7.273   7.446  17.162  0.00  0.00    +0.000 NA
BRANCH  24  25
ATOM     25  C   UNL     1       7.686   8.820  17.541  0.00  0.00    +0.000 C 
BRANCH  25  26
ATOM     26  C   UNL     1       8.666   8.915  18.717  0.00  0.00    +0.000 C 
BRANCH  26  27
ATOM     27  C   UNL     1       9.132  10.328  18.992  0.00  0.00    +0.000 A 
ATOM     28  C   UNL     1       9.668  10.640  20.248  0.00  0.00    +0.000 A 
ATOM     29  C   UNL     1      10.135  11.928  20.518  0.00  0.00    +0.000 A 
ATOM     30  C   UNL     1      10.061  12.918  19.543  0.00  0.00    +0.000 A 
ATOM     31  C   UNL     1       9.528  12.628  18.283  0.00  0.00    +0.000 A 
ATOM     32  C   UNL     1       9.068  11.336  18.005  0.00  0.00    +0.000 A 
ENDBRANCH  26  27
ENDBRANCH  25  26
ENDBRANCH  24  25
ENDBRANCH  22  24
ENDBRANCH  19  22
ENDBRANCH  18  19
ENDBRANCH   1  18
TORSDOF 13
ENDMDL
MODEL 4
REMARK VINA RESULT:      -7.4      2.496      6.944
REMARK  Name = 
REMARK  14 active torsions:
REMARK  status: ('A' for Active; 'I' for Inactive)
REMARK    1  A    between atoms: C_1  and  N_2
REMARK    2  A    between atoms: N_2  and  C_3
REMARK    3  A    between atoms: N_2  and  C_11
REMARK    4  A    between atoms: C_3  and  C_4
REMARK    5  A    between atoms: C_4  and  C_5
REMARK    6  A    between atoms: C_11  and  C_12
REMARK    7  A    between atoms: C_12  and  O_13
REMARK    8  A    between atoms: C_12  and  C_14
REMARK    9  A    between atoms: C_14  and  O_15
REMARK   10  A    between atoms: O_15  and  C_16
REMARK   11  A    between atoms: C_21  and  C_22
REMARK   12  A    between atoms: C_22  and  C_24
REMARK   13  A    between atoms: C_24  and  C_25
REMARK   14  A    between atoms: C_25  and  C_26
REMARK                            x       y       z     vdW  Elec       q    Type
REMARK                         _______ _______ _______ _____ _____    ______ ____
ROOT
ATOM      1  O   UNL     1       2.047   6.093  20.736  0.00  0.00    +0.000 OA
ENDROOT
BRANCH   1   2
ATOM      2  C   UNL     1       2.076   7.142  19.863  0.00  0.00    +0.000 A 
ATOM      3  C   UNL     1       2.869   7.076  18.682  0.00  0.00    +0.000 A 
ATOM      4  C   UNL     1       2.841   8.081  17.733  0.00  0.00    +0.000 A 
ATOM      5  C   UNL     1       2.029   9.186  17.923  0.00  0.00    +0.000 A 
ATOM      6  C   UNL     1       1.259   9.301  19.082  0.00  0.00    +0.000 A 
ATOM      7  C   UNL     1       1.275   8.302  20.087  0.00  0.00    +0.000 A 
BRANCH   7   8
ATOM      8  C   UNL     1       0.465   8.555  21.336  0.00  0.00    +0.000 C 
ATOM      9  O   UNL     1      -0.574   7.928  21.499  0.00  0.00    +0.000 OA
BRANCH   8  10
ATOM     10  C   UNL     1       0.798   9.671  22.315  0.00  0.00    +0.000 C 
BRANCH  10  11
ATOM     11  C   UNL     1      -0.282  10.782  22.413  0.00  0.00    +0.000 C 
BRANCH  11  12
ATOM     12  C   UNL     1      -0.318  11.627  21.153  0.00  0.00    +0.000 A 
ATOM     13  C   UNL     1      -1.455  11.604  20.323  0.00  0.00    +0.000 A 
ATOM     14  C   UNL     1      -1.498  12.366  19.151  0.00  0.00    +0.000 A 
ATOM     15  C   UNL     1      -0.409  13.164  18.795  0.00  0.00    +0.000 A 
ATOM     16  C   UNL     1       0.720  13.209  19.616  0.00  0.00    +0.000 A 
ATOM     17  C   UNL     1       0.767  12.449  20.794  0.00  0.00    +0.000 A 
ENDBRANCH  11  12
ENDBRANCH  10  11
ENDBRANCH   8  10
ENDBRANCH   7   8
ENDBRANCH   1   2
BRANCH   1  18
ATOM     18  C   UNL     1       1.171   5.025  20.620  0.00  0.00    +0.000 C 
BRANCH  18  19
ATOM     19  C   UNL     1       1.829   3.711  20.214  0.00  0.00    +0.000 C 
BRANCH  19  20
ATOM     20  O   UNL     1       3.070   3.709  20.879  0.00  0.00    +0.000 OA
ATOM     21  H   UNL     1       3.716   4.229  20.328  0.00  0.00    +0.000 HD
ENDBRANCH  19  20
BRANCH  19  22
ATOM     22  C   UNL     1       1.984   3.590  18.657  0.00  0.00    +0.000 C 
BRANCH  22  24
ATOM     23  C   UNL     1       3.481   1.809  18.038  0.00  0.00    +0.000 C 
ATOM     24  N   UNL     1       3.361   3.279  18.173  0.00  0.00    +0.000 NA
BRANCH  24  25
ATOM     25  C   UNL     1       3.657   3.948  16.882  0.00  0.00    +0.000 C 
BRANCH  25  26
ATOM     26  C   UNL     1       5.111   3.855  16.406  0.00  0.00    +0.000 C 
BRANCH  26  27
ATOM     27  C   UNL     1       6.008   4.909  17.015  0.00  0.00    +0.000 A 
ATOM     28  C   UNL     1       5.836   6.251  16.649  0.00  0.00    +0.000 A 
ATOM     29  C   UNL     1       6.630   7.248  17.220  0.00  0.00    +0.000 A 
ATOM     30  C   UNL     1       7.608   6.915  18.152  0.00  0.00    +0.000 A 
ATOM     31  C   UNL     1       7.797   5.583  18.531  0.00  0.00    +0.000 A 
ATOM     32  C   UNL     1       6.997   4.581  17.969  0.00  0.00    +0.000 A 
ENDBRANCH  26  27
ENDBRANCH  25  26
ENDBRANCH  24  25
ENDBRANCH  22  24
ENDBRANCH  19  22
ENDBRANCH  18  19
ENDBRANCH   1  18
TORSDOF 13
ENDMDL
MODEL 5
REMARK VINA RESULT:      -7.3      3.630      6.396
REMARK  Name = 
REMARK  14 active torsions:
REMARK  status: ('A' for Active; 'I' for Inactive)
REMARK    1  A    between atoms: C_1  and  N_2
REMARK    2  A    between atoms: N_2  and  C_3
REMARK    3  A    between atoms: N_2  and  C_11
REMARK    4  A    between atoms: C_3  and  C_4
REMARK    5  A    between atoms: C_4  and  C_5
REMARK    6  A    between atoms: C_11  and  C_12
REMARK    7  A    between atoms: C_12  and  O_13
REMARK    8  A    between atoms: C_12  and  C_14
REMARK    9  A    between atoms: C_14  and  O_15
REMARK   10  A    between atoms: O_15  and  C_16
REMARK   11  A    between atoms: C_21  and  C_22
REMARK   12  A    between atoms: C_22  and  C_24
REMARK   13  A    between atoms: C_24  and  C_25
REMARK   14  A    between atoms: C_25  and  C_26
REMARK                            x       y       z     vdW  Elec       q    Type
REMARK                         _______ _______ _______ _____ _____    ______ ____
ROOT
ATOM      1  O   UNL     1       2.874   6.508  19.831  0.00  0.00    +0.000 OA
ENDROOT
BRANCH   1   2
ATOM      2  C   UNL     1       2.541   5.251  19.413  0.00  0.00    +0.000 A 
ATOM      3  C   UNL     1       1.428   4.572  19.986  0.00  0.00    +0.000 A 
ATOM      4  C   UNL     1       1.010   3.341  19.515  0.00  0.00    +0.000 A 
ATOM      5  C   UNL     1       1.681   2.742  18.463  0.00  0.00    +0.000 A 
ATOM      6  C   UNL     1       2.795   3.364  17.894  0.00  0.00    +0.000 A 
ATOM      7  C   UNL     1       3.266   4.615  18.362  0.00  0.00    +0.000 A 
BRANCH   7   8
ATOM      8  C   UNL     1       4.522   5.168  17.730  0.00  0.00    +0.000 C 
ATOM      9  O   UNL     1       5.236   5.908  18.396  0.00  0.00    +0.000 OA
BRANCH   8  10
ATOM     10  C   UNL     1       4.848   4.980  16.257  0.00  0.00    +0.000 C 
BRANCH  10  11
ATOM     11  C   UNL     1       6.257   4.389  15.981  0.00  0.00    +0.000 C 
BRANCH  11  12
ATOM     12  C   UNL     1       6.556   4.347  14.495  0.00  0.00    +0.000 A 
ATOM     13  C   UNL     1       7.560   5.174  13.955  0.00  0.00    +0.000 A 
ATOM     14  C   UNL     1       7.838   5.157  12.585  0.00  0.00    +0.000 A 
ATOM     15  C   UNL     1       7.120   4.314  11.736  0.00  0.00    +0.000 A 
ATOM     16  C   UNL     1       6.131   3.477  12.258  0.00  0.00    +0.000 A 
ATOM     17  C   UNL     1       5.850   3.488  13.632  0.00  0.00    +0.000 A 
ENDBRANCH  11  12
ENDBRANCH  10  11
ENDBRANCH   8  10
ENDBRANCH   7   8
ENDBRANCH   1   2
BRANCH   1  18
ATOM     18  C   UNL     1       2.123   7.636  19.537  0.00  0.00    +0.000 C 
BRANCH  18  19
ATOM     19  C   UNL     1       2.120   8.023  18.063  0.00  0.00    +0.000 C 
BRANCH  19  20
ATOM     20  O   UNL     1       3.471   8.266  17.751  0.00  0.00    +0.000 OA
ATOM     21  H   UNL     1       4.025   7.953  18.517  0.00  0.00    +0.000 HD
ENDBRANCH  19  20
BRANCH  19  22
ATOM     22  C   UNL     1       1.207   9.269  17.786  0.00  0.00    +0.000 C 
BRANCH  22  24
ATOM     23  C   UNL     1       2.330  11.383  18.048  0.00  0.00    +0.000 C 
ATOM     24  N   UNL     1       1.409  10.427  18.706  0.00  0.00    +0.000 NA
BRANCH  24  25
ATOM     25  C   UNL     1       0.127  11.090  19.049  0.00  0.00    +0.000 C 
BRANCH  25  26
ATOM     26  C   UNL     1      -1.098  10.170  19.109  0.00  0.00    +0.000 C 
BRANCH  26  27
ATOM     27  C   UNL     1      -2.158  10.520  18.087  0.00  0.00    +0.000 A 
ATOM     28  C   UNL     1      -2.093   9.946  16.810  0.00  0.00    +0.000 A 
ATOM     29  C   UNL     1      -3.076  10.227  15.857  0.00  0.00    +0.000 A 
ATOM     30  C   UNL     1      -4.123  11.091  16.167  0.00  0.00    +0.000 A 
ATOM     31  C   UNL     1      -4.204  11.674  17.434  0.00  0.00    +0.000 A 
ATOM     32  C   UNL     1      -3.229  11.387  18.395  0.00  0.00    +0.000 A 
ENDBRANCH  26  27
ENDBRANCH  25  26
ENDBRANCH  24  25
ENDBRANCH  22  24
ENDBRANCH  19  22
ENDBRANCH  18  19
ENDBRANCH   1  18
TORSDOF 13
ENDMDL
MODEL 6
REMARK VINA RESULT:      -7.2      2.417      7.253
REMARK  Name = 
REMARK  14 active torsions:
REMARK  status: ('A' for Active; 'I' for Inactive)
REMARK    1  A    between atoms: C_1  and  N_2
REMARK    2  A    between atoms: N_2  and  C_3
REMARK    3  A    between atoms: N_2  and  C_11
REMARK    4  A    between atoms: C_3  and  C_4
REMARK    5  A    between atoms: C_4  and  C_5
REMARK    6  A    between atoms: C_11  and  C_12
REMARK    7  A    between atoms: C_12  and  O_13
REMARK    8  A    between atoms: C_12  and  C_14
REMARK    9  A    between atoms: C_14  and  O_15
REMARK   10  A    between atoms: O_15  and  C_16
REMARK   11  A    between atoms: C_21  and  C_22
REMARK   12  A    between atoms: C_22  and  C_24
REMARK   13  A    between atoms: C_24  and  C_25
REMARK   14  A    between atoms: C_25  and  C_26
REMARK                            x       y       z     vdW  Elec       q    Type
REMARK                         _______ _______ _______ _____ _____    ______ ____
ROOT
ATOM      1  O   UNL     1       4.643   5.611  18.894  0.00  0.00    +0.000 OA
ENDROOT
BRANCH   1   2
ATOM      2  C   UNL     1       3.503   4.941  19.234  0.00  0.00    +0.000 A 
ATOM      3  C   UNL     1       2.739   5.343  20.366  0.00  0.00    +0.000 A 
ATOM      4  C   UNL     1       1.532   4.746  20.676  0.00  0.00    +0.000 A 
ATOM      5  C   UNL     1       1.042   3.728  19.875  0.00  0.00    +0.000 A 
ATOM      6  C   UNL     1       1.776   3.286  18.773  0.00  0.00    +0.000 A 
ATOM      7  C   UNL     1       3.026   3.859  18.435  0.00  0.00    +0.000 A 
BRANCH   7   8
ATOM      8  C   UNL     1       3.776   3.259  17.269  0.00  0.00    +0.000 C 
ATOM      9  O   UNL     1       4.070   2.071  17.309  0.00  0.00    +0.000 OA
BRANCH   8  10
ATOM     10  C   UNL     1       4.325   4.102  16.128  0.00  0.00    +0.000 C 
BRANCH  10  11
ATOM     11  C   UNL     1       5.865   4.022  15.953  0.00  0.00    +0.000 C 
BRANCH  11  12
ATOM     12  C   UNL     1       6.259   4.111  14.490  0.00  0.00    +0.000 A 
ATOM     13  C   UNL     1       5.530   3.396  13.520  0.00  0.00    +0.000 A 
ATOM     14  C   UNL     1       5.889   3.457  12.170  0.00  0.00    +0.000 A 
ATOM     15  C   UNL     1       6.979   4.233  11.770  0.00  0.00    +0.000 A 
ATOM     16  C   UNL     1       7.703   4.959  12.719  0.00  0.00    +0.000 A 
ATOM     17  C   UNL     1       7.345   4.904  14.073  0.00  0.00    +0.000 A 
ENDBRANCH  11  12
ENDBRANCH  10  11
ENDBRANCH   8  10
ENDBRANCH   7   8
ENDBRANCH   1   2
BRANCH   1  18
ATOM     18  C   UNL     1       5.905   5.250  19.341  0.00  0.00    +0.000 C 
BRANCH  18  19
ATOM     19  C   UNL     1       7.016   5.446  18.316  0.00  0.00    +0.000 C 
BRANCH  19  20
ATOM     20  O   UNL     1       7.839   4.312  18.454  0.00  0.00    +0.000 OA
ATOM     21  H   UNL     1       7.782   3.786  17.611  0.00  0.00    +0.000 HD
ENDBRANCH  19  20
BRANCH  19  22
ATOM     22  C   UNL     1       7.798   6.787  18.548  0.00  0.00    +0.000 C 
BRANCH  22  24
ATOM     23  C   UNL     1       6.546   7.523  16.628  0.00  0.00    +0.000 C 
ATOM     24  N   UNL     1       7.794   7.737  17.397  0.00  0.00    +0.000 NA
BRANCH  24  25
ATOM     25  C   UNL     1       7.896   9.148  17.845  0.00  0.00    +0.000 C 
BRANCH  25  26
ATOM     26  C   UNL     1       8.988   9.435  18.882  0.00  0.00    +0.000 C 
BRANCH  26  27
ATOM     27  C   UNL     1       9.547  10.838  18.787  0.00  0.00    +0.000 A 
ATOM     28  C   UNL     1       8.942  11.759  17.922  0.00  0.00    +0.000 A 
ATOM     29  C   UNL     1       9.418  13.070  17.838  0.00  0.00    +0.000 A 
ATOM     30  C   UNL     1      10.507  13.469  18.607  0.00  0.00    +0.000 A 
ATOM     31  C   UNL     1      11.126  12.565  19.474  0.00  0.00    +0.000 A 
ATOM     32  C   UNL     1      10.646  11.254  19.570  0.00  0.00    +0.000 A 
ENDBRANCH  26  27
ENDBRANCH  25  26
ENDBRANCH  24  25
ENDBRANCH  22  24
ENDBRANCH  19  22
ENDBRANCH  18  19
ENDBRANCH   1  18
TORSDOF 13
ENDMDL
MODEL 7
REMARK VINA RESULT:      -7.2      3.407      7.004
REMARK  Name = 
REMARK  14 active torsions:
REMARK  status: ('A' for Active; 'I' for Inactive)
REMARK    1  A    between atoms: C_1  and  N_2
REMARK    2  A    between atoms: N_2  and  C_3
REMARK    3  A    between atoms: N_2  and  C_11
REMARK    4  A    between atoms: C_3  and  C_4
REMARK    5  A    between atoms: C_4  and  C_5
REMARK    6  A    between atoms: C_11  and  C_12
REMARK    7  A    between atoms: C_12  and  O_13
REMARK    8  A    between atoms: C_12  and  C_14
REMARK    9  A    between atoms: C_14  and  O_15
REMARK   10  A    between atoms: O_15  and  C_16
REMARK   11  A    between atoms: C_21  and  C_22
REMARK   12  A    between atoms: C_22  and  C_24
REMARK   13  A    between atoms: C_24  and  C_25
REMARK   14  A    between atoms: C_25  and  C_26
REMARK                            x       y       z     vdW  Elec       q    Type
REMARK                         _______ _______ _______ _____ _____    ______ ____
ROOT
ATOM      1  O   UNL     1       2.061   6.000  20.763  0.00  0.00    +0.000 OA
ENDROOT
BRANCH   1   2
ATOM      2  C   UNL     1       2.108   7.037  19.877  0.00  0.00    +0.000 A 
ATOM      3  C   UNL     1       2.909   6.947  18.703  0.00  0.00    +0.000 A 
ATOM      4  C   UNL     1       2.901   7.940  17.741  0.00  0.00    +0.000 A 
ATOM      5  C   UNL     1       2.100   9.056  17.910  0.00  0.00    +0.000 A 
ATOM      6  C   UNL     1       1.321   9.194  19.061  0.00  0.00    +0.000 A 
ATOM      7  C   UNL     1       1.319   8.209  20.079  0.00  0.00    +0.000 A 
BRANCH   7   8
ATOM      8  C   UNL     1       0.501   8.487  21.318  0.00  0.00    +0.000 C 
ATOM      9  O   UNL     1      -0.537   7.861  21.489  0.00  0.00    +0.000 OA
BRANCH   8  10
ATOM     10  C   UNL     1       0.826   9.625  22.274  0.00  0.00    +0.000 C 
BRANCH  10  11
ATOM     11  C   UNL     1      -0.251  10.741  22.334  0.00  0.00    +0.000 C 
BRANCH  11  12
ATOM     12  C   UNL     1      -0.228  11.597  21.082  0.00  0.00    +0.000 A 
ATOM     13  C   UNL     1       0.885  12.416  20.810  0.00  0.00    +0.000 A 
ATOM     14  C   UNL     1       0.915  13.221  19.667  0.00  0.00    +0.000 A 
ATOM     15  C   UNL     1      -0.163  13.218  18.780  0.00  0.00    +0.000 A 
ATOM     16  C   UNL     1      -1.268  12.401  19.029  0.00  0.00    +0.000 A 
ATOM     17  C   UNL     1      -1.302  11.589  20.172  0.00  0.00    +0.000 A 
ENDBRANCH  11  12
ENDBRANCH  10  11
ENDBRANCH   8  10
ENDBRANCH   7   8
ENDBRANCH   1   2
BRANCH   1  18
ATOM     18  C   UNL     1       1.113   4.989  20.708  0.00  0.00    +0.000 C 
BRANCH  18  19
ATOM     19  C   UNL     1       1.536   3.776  19.887  0.00  0.00    +0.000 C 
BRANCH  19  20
ATOM     20  O   UNL     1       0.395   2.951  19.849  0.00  0.00    +0.000 OA
ATOM     21  H   UNL     1       0.537   2.262  19.144  0.00  0.00    +0.000 HD
ENDBRANCH  19  20
BRANCH  19  22
ATOM     22  C   UNL     1       2.780   3.050  20.510  0.00  0.00    +0.000 C 
BRANCH  22  24
ATOM     23  C   UNL     1       3.550   1.412  18.922  0.00  0.00    +0.000 C 
ATOM     24  N   UNL     1       3.872   2.715  19.549  0.00  0.00    +0.000 NA
BRANCH  24  25
ATOM     25  C   UNL     1       4.038   3.766  18.514  0.00  0.00    +0.000 C 
BRANCH  25  26
ATOM     26  C   UNL     1       5.463   4.306  18.342  0.00  0.00    +0.000 C 
BRANCH  26  27
ATOM     27  C   UNL     1       5.867   4.470  16.893  0.00  0.00    +0.000 A 
ATOM     28  C   UNL     1       7.183   4.843  16.588  0.00  0.00    +0.000 A 
ATOM     29  C   UNL     1       7.592   4.971  15.258  0.00  0.00    +0.000 A 
ATOM     30  C   UNL     1       6.689   4.741  14.224  0.00  0.00    +0.000 A 
ATOM     31  C   UNL     1       5.372   4.370  14.507  0.00  0.00    +0.000 A 
ATOM     32  C   UNL     1       4.961   4.229  15.837  0.00  0.00    +0.000 A 
ENDBRANCH  26  27
ENDBRANCH  25  26
ENDBRANCH  24  25
ENDBRANCH  22  24
ENDBRANCH  19  22
ENDBRANCH  18  19
ENDBRANCH   1  18
TORSDOF 13
ENDMDL
MODEL 8
REMARK VINA RESULT:      -7.2      3.769      7.105
REMARK  Name = 
REMARK  14 active torsions:
REMARK  status: ('A' for Active; 'I' for Inactive)
REMARK    1  A    between atoms: C_1  and  N_2
REMARK    2  A    between atoms: N_2  and  C_3
REMARK    3  A    between atoms: N_2  and  C_11
REMARK    4  A    between atoms: C_3  and  C_4
REMARK    5  A    between atoms: C_4  and  C_5
REMARK    6  A    between atoms: C_11  and  C_12
REMARK    7  A    between atoms: C_12  and  O_13
REMARK    8  A    between atoms: C_12  and  C_14
REMARK    9  A    between atoms: C_14  and  O_15
REMARK   10  A    between atoms: O_15  and  C_16
REMARK   11  A    between atoms: C_21  and  C_22
REMARK   12  A    between atoms: C_22  and  C_24
REMARK   13  A    between atoms: C_24  and  C_25
REMARK   14  A    between atoms: C_25  and  C_26
REMARK                            x       y       z     vdW  Elec       q    Type
REMARK                         _______ _______ _______ _____ _____    ______ ____
ROOT
ATOM      1  O   UNL     1       1.065   8.042  21.315  0.00  0.00    +0.000 OA
ENDROOT
BRANCH   1   2
ATOM      2  C   UNL     1       1.538   8.124  20.036  0.00  0.00    +0.000 A 
ATOM      3  C   UNL     1       1.386   9.326  19.288  0.00  0.00    +0.000 A 
ATOM      4  C   UNL     1       1.939   9.471  18.029  0.00  0.00    +0.000 A 
ATOM      5  C   UNL     1       2.659   8.429  17.470  0.00  0.00    +0.000 A 
ATOM      6  C   UNL     1       2.805   7.224  18.161  0.00  0.00    +0.000 A 
ATOM      7  C   UNL     1       2.236   7.031  19.443  0.00  0.00    +0.000 A 
BRANCH   7   8
ATOM      8  C   UNL     1       2.387   5.667  20.075  0.00  0.00    +0.000 C 
ATOM      9  O   UNL     1       1.480   5.244  20.781  0.00  0.00    +0.000 OA
BRANCH   8  10
ATOM     10  C   UNL     1       3.682   4.872  20.007  0.00  0.00    +0.000 C 
BRANCH  10  11
ATOM     11  C   UNL     1       3.733   3.824  18.862  0.00  0.00    +0.000 C 
BRANCH  11  12
ATOM     12  C   UNL     1       4.857   4.125  17.889  0.00  0.00    +0.000 A 
ATOM     13  C   UNL     1       4.675   3.897  16.511  0.00  0.00    +0.000 A 
ATOM     14  C   UNL     1       5.706   4.157  15.603  0.00  0.00    +0.000 A 
ATOM     15  C   UNL     1       6.931   4.649  16.057  0.00  0.00    +0.000 A 
ATOM     16  C   UNL     1       7.122   4.894  17.419  0.00  0.00    +0.000 A 
ATOM     17  C   UNL     1       6.090   4.639  18.333  0.00  0.00    +0.000 A 
ENDBRANCH  11  12
ENDBRANCH  10  11
ENDBRANCH   8  10
ENDBRANCH   7   8
ENDBRANCH   1   2
BRANCH   1  18
ATOM     18  C   UNL     1      -0.086   8.683  21.749  0.00  0.00    +0.000 C 
BRANCH  18  19
ATOM     19  C   UNL     1       0.167   9.939  22.575  0.00  0.00    +0.000 C 
BRANCH  19  20
ATOM     20  O   UNL     1       0.947   9.504  23.663  0.00  0.00    +0.000 OA
ATOM     21  H   UNL     1       0.503   9.810  24.501  0.00  0.00    +0.000 HD
ENDBRANCH  19  20
BRANCH  19  22
ATOM     22  C   UNL     1      -1.171  10.621  23.029  0.00  0.00    +0.000 C 
BRANCH  22  24
ATOM     23  C   UNL     1      -1.801  12.944  23.038  0.00  0.00    +0.000 C 
ATOM     24  N   UNL     1      -1.635  11.753  22.174  0.00  0.00    +0.000 NA
BRANCH  24  25
ATOM     25  C   UNL     1      -0.684  12.036  21.071  0.00  0.00    +0.000 C 
BRANCH  25  26
ATOM     26  C   UNL     1      -1.274  12.766  19.859  0.00  0.00    +0.000 C 
BRANCH  26  27
ATOM     27  C   UNL     1      -2.097  11.868  18.963  0.00  0.00    +0.000 A 
ATOM     28  C   UNL     1      -1.447  10.935  18.144  0.00  0.00    +0.000 A 
ATOM     29  C   UNL     1      -2.184  10.071  17.330  0.00  0.00    +0.000 A 
ATOM     30  C   UNL     1      -3.574  10.139  17.318  0.00  0.00    +0.000 A 
ATOM     31  C   UNL     1      -4.242  11.063  18.126  0.00  0.00    +0.000 A 
ATOM     32  C   UNL     1      -3.509  11.922  18.951  0.00  0.00    +0.000 A 
ENDBRANCH  26  27
ENDBRANCH  25  26
ENDBRANCH  24  25
ENDBRANCH  22  24
ENDBRANCH  19  22
ENDBRANCH  18  19
ENDBRANCH   1  18
TORSDOF 13
ENDMDL
MODEL 9
REMARK VINA RESULT:      -7.2      3.270      7.111
REMARK  Name = 
REMARK  14 active torsions:
REMARK  status: ('A' for Active; 'I' for Inactive)
REMARK    1  A    between atoms: C_1  and  N_2
REMARK    2  A    between atoms: N_2  and  C_3
REMARK    3  A    between atoms: N_2  and  C_11
REMARK    4  A    between atoms: C_3  and  C_4
REMARK    5  A    between atoms: C_4  and  C_5
REMARK    6  A    between atoms: C_11  and  C_12
REMARK    7  A    between atoms: C_12  and  O_13
REMARK    8  A    between atoms: C_12  and  C_14
REMARK    9  A    between atoms: C_14  and  O_15
REMARK   10  A    between atoms: O_15  and  C_16
REMARK   11  A    between atoms: C_21  and  C_22
REMARK   12  A    between atoms: C_22  and  C_24
REMARK   13  A    between atoms: C_24  and  C_25
REMARK   14  A    between atoms: C_25  and  C_26
REMARK                            x       y       z     vdW  Elec       q    Type
REMARK                         _______ _______ _______ _____ _____    ______ ____
ROOT
ATOM      1  O   UNL     1       1.553   6.204  20.872  0.00  0.00    +0.000 OA
ENDROOT
BRANCH   1   2
ATOM      2  C   UNL     1       1.685   7.280  20.041  0.00  0.00    +0.000 A 
ATOM      3  C   UNL     1       2.489   7.192  18.870  0.00  0.00    +0.000 A 
ATOM      4  C   UNL     1       2.563   8.232  17.962  0.00  0.00    +0.000 A 
ATOM      5  C   UNL     1       1.844   9.394  18.185  0.00  0.00    +0.000 A 
ATOM      6  C   UNL     1       1.067   9.529  19.337  0.00  0.00    +0.000 A 
ATOM      7  C   UNL     1       0.982   8.494  20.301  0.00  0.00    +0.000 A 
BRANCH   7   8
ATOM      8  C   UNL     1       0.175   8.767  21.548  0.00  0.00    +0.000 C 
ATOM      9  O   UNL     1      -0.856   8.132  21.731  0.00  0.00    +0.000 OA
BRANCH   8  10
ATOM     10  C   UNL     1       0.499   9.909  22.499  0.00  0.00    +0.000 C 
BRANCH  10  11
ATOM     11  C   UNL     1      -0.576  11.028  22.549  0.00  0.00    +0.000 C 
BRANCH  11  12
ATOM     12  C   UNL     1      -0.554  11.870  21.287  0.00  0.00    +0.000 A 
ATOM     13  C   UNL     1       0.528  12.734  21.037  0.00  0.00    +0.000 A 
ATOM     14  C   UNL     1       0.556  13.527  19.885  0.00  0.00    +0.000 A 
ATOM     15  C   UNL     1      -0.495  13.465  18.968  0.00  0.00    +0.000 A 
ATOM     16  C   UNL     1      -1.569  12.602  19.196  0.00  0.00    +0.000 A 
ATOM     17  C   UNL     1      -1.600  11.803  20.347  0.00  0.00    +0.000 A 
ENDBRANCH  11  12
ENDBRANCH  10  11
ENDBRANCH   8  10
ENDBRANCH   7   8
ENDBRANCH   1   2
BRANCH   1  18
ATOM     18  C   UNL     1       2.429   5.129  20.877  0.00  0.00    +0.000 C 
BRANCH  18  19
ATOM     19  C   UNL     1       1.938   3.913  20.101  0.00  0.00    +0.000 C 
BRANCH  19  20
ATOM     20  O   UNL     1       0.804   3.468  20.809  0.00  0.00    +0.000 OA
ATOM     21  H   UNL     1       0.803   3.913  21.700  0.00  0.00    +0.000 HD
ENDBRANCH  19  20
BRANCH  19  22
ATOM     22  C   UNL     1       3.044   2.806  19.984  0.00  0.00    +0.000 C 
BRANCH  22  24
ATOM     23  C   UNL     1       3.803   1.284  18.280  0.00  0.00    +0.000 C 
ATOM     24  N   UNL     1       3.718   2.714  18.655  0.00  0.00    +0.000 NA
BRANCH  24  25
ATOM     25  C   UNL     1       2.994   3.485  17.615  0.00  0.00    +0.000 C 
BRANCH  25  26
ATOM     26  C   UNL     1       3.859   4.420  16.761  0.00  0.00    +0.000 C 
BRANCH  26  27
ATOM     27  C   UNL     1       5.221   4.687  17.362  0.00  0.00    +0.000 A 
ATOM     28  C   UNL     1       5.309   5.341  18.598  0.00  0.00    +0.000 A 
ATOM     29  C   UNL     1       6.553   5.572  19.190  0.00  0.00    +0.000 A 
ATOM     30  C   UNL     1       7.719   5.164  18.549  0.00  0.00    +0.000 A 
ATOM     31  C   UNL     1       7.654   4.512  17.315  0.00  0.00    +0.000 A 
ATOM     32  C   UNL     1       6.409   4.268  16.723  0.00  0.00    +0.000 A 
ENDBRANCH  26  27
ENDBRANCH  25  26
ENDBRANCH  24  25
ENDBRANCH  22  24
ENDBRANCH  19  22
ENDBRANCH  18  19
ENDBRANCH   1  18
TORSDOF 13
ENDMDL
