MODEL 1
REMARK VINA RESULT:      -7.8      0.000      0.000
REMARK  Name = 
REMARK  10 active torsions:
REMARK  status: ('A' for Active; 'I' for Inactive)
REMARK    1  A    between atoms: C_1  and  C_2
REMARK    2  A    between atoms: C_2  and  C_3
REMARK    3  A    between atoms: C_3  and  C_4
REMARK    4  A    between atoms: C_4  and  N_5
REMARK    5  A    between atoms: N_5  and  C_20
REMARK    6  A    between atoms: C_6  and  C_8
REMARK    7  A    between atoms: C_11  and  S_12
REMARK    8  A    between atoms: S_12  and  N_15
REMARK    9  A    between atoms: N_15  and  C_16
REMARK   10  A    between atoms: N_15  and  C_17
REMARK                            x       y       z     vdW  Elec       q    Type
REMARK                         _______ _______ _______ _____ _____    ______ ____
ROOT
ATOM      1  N   UNL     1       4.862   4.667  17.246  0.00  0.00    +0.000 N 
ATOM      2  C   UNL     1       3.497   4.657  17.619  0.00  0.00    +0.000 C 
ATOM      3  O   UNL     1       2.724   3.782  17.216  0.00  0.00    +0.000 OA
ENDROOT
BRANCH   2   4
ATOM      4  C   UNL     1       2.885   5.732  18.488  0.00  0.00    +0.000 A 
ATOM      5  C   UNL     1       2.691   7.056  18.076  0.00  0.00    +0.000 A 
ATOM      6  C   UNL     1       2.199   8.032  18.947  0.00  0.00    +0.000 A 
ATOM      7  C   UNL     1       1.743   7.650  20.202  0.00  0.00    +0.000 A 
ATOM      8  C   UNL     1       1.853   6.324  20.623  0.00  0.00    +0.000 A 
ATOM      9  C   UNL     1       2.430   5.372  19.767  0.00  0.00    +0.000 A 
BRANCH   7  10
ATOM     10  S   UNL     1       0.979   8.882  21.240  0.00  0.00    +0.000 S 
ATOM     11  O   UNL     1      -0.307   8.352  21.655  0.00  0.00    +0.000 OA
ATOM     12  O   UNL     1       1.967   9.316  22.211  0.00  0.00    +0.000 OA
BRANCH  10  13
ATOM     13  N   UNL     1       0.694  10.159  20.143  0.00  0.00    +0.000 NA
ATOM     14  C   UNL     1      -0.634  10.215  19.507  0.00  0.00    +0.000 C 
ATOM     15  C   UNL     1       1.197  11.488  20.548  0.00  0.00    +0.000 C 
ENDBRANCH  10  13
ENDBRANCH   7  10
ENDBRANCH   2   4
BRANCH   1  16
ATOM     16  C   UNL     1       5.821   5.568  17.777  0.00  0.00    +0.000 A 
ATOM     17  C   UNL     1       6.105   6.764  17.105  0.00  0.00    +0.000 A 
ATOM     18  C   UNL     1       7.199   7.535  17.490  0.00  0.00    +0.000 A 
ATOM     19  C   UNL     1       8.006   7.125  18.553  0.00  0.00    +0.000 A 
ATOM     20  C   UNL     1       7.689   5.967  19.262  0.00  0.00    +0.000 A 
ATOM     21  C   UNL     1       6.587   5.196  18.889  0.00  0.00    +0.000 A 
ENDBRANCH   1  16
BRANCH   1  22
ATOM     22  C   UNL     1       5.316   3.753  16.182  0.00  0.00    +0.000 C 
BRANCH  22  23
ATOM     23  C   UNL     1       5.238   4.327  14.760  0.00  0.00    +0.000 C 
BRANCH  23  25
ATOM     24  C   UNL     1       6.299   3.528  12.627  0.00  0.00    +0.000 C 
ATOM     25  C   UNL     1       6.542   4.214  13.966  0.00  0.00    +0.000 C 
ENDBRANCH  23  25
ENDBRANCH  22  23
ENDBRANCH   1  22
TORSDOF 7
ENDMDL
MODEL 2
REMARK VINA RESULT:      -7.3      0.339      1.020
REMARK  Name = 
REMARK  10 active torsions:
REMARK  status: ('A' for Active; 'I' for Inactive)
REMARK    1  A    between atoms: C_1  and  C_2
REMARK    2  A    between atoms: C_2  and  C_3
REMARK    3  A    between atoms: C_3  and  C_4
REMARK    4  A    between atoms: C_4  and  N_5
REMARK    5  A    between atoms: N_5  and  C_20
REMARK    6  A    between atoms: C_6  and  C_8
REMARK    7  A    between atoms: C_11  and  S_12
REMARK    8  A    between atoms: S_12  and  N_15
REMARK    9  A    between atoms: N_15  and  C_16
REMARK   10  A    between atoms: N_15  and  C_17
REMARK                            x       y       z     vdW  Elec       q    Type
REMARK                         _______ _______ _______ _____ _____    ______ ____
ROOT
ATOM      1  N   UNL     1       5.022   4.633  17.201  0.00  0.00    +0.000 N 
ATOM      2  C   UNL     1       3.662   4.553  17.584  0.00  0.00    +0.000 C 
ATOM      3  O   UNL     1       2.926   3.653  17.166  0.00  0.00    +0.000 OA
ENDROOT
BRANCH   2   4
ATOM      4  C   UNL     1       3.010   5.579  18.483  0.00  0.00    +0.000 A 
ATOM      5  C   UNL     1       2.618   5.325  19.804  0.00  0.00    +0.000 A 
ATOM      6  C   UNL     1       1.941   6.282  20.565  0.00  0.00    +0.000 A 
ATOM      7  C   UNL     1       1.793   7.568  20.059  0.00  0.00    +0.000 A 
ATOM      8  C   UNL     1       2.235   7.878  18.773  0.00  0.00    +0.000 A 
ATOM      9  C   UNL     1       2.836   6.881  17.987  0.00  0.00    +0.000 A 
BRANCH   7  10
ATOM     10  S   UNL     1       1.063   8.814  21.105  0.00  0.00    +0.000 S 
ATOM     11  O   UNL     1      -0.224   8.303  21.541  0.00  0.00    +0.000 OA
ATOM     12  O   UNL     1       2.072   9.236  22.059  0.00  0.00    +0.000 OA
BRANCH  10  13
ATOM     13  N   UNL     1       0.778  10.091  20.008  0.00  0.00    +0.000 NA
ATOM     14  C   UNL     1      -0.547  10.142  19.365  0.00  0.00    +0.000 C 
ATOM     15  C   UNL     1       1.273  11.421  20.418  0.00  0.00    +0.000 C 
ENDBRANCH  10  13
ENDBRANCH   7  10
ENDBRANCH   2   4
BRANCH   1  16
ATOM     16  C   UNL     1       5.945   5.564  17.746  0.00  0.00    +0.000 A 
ATOM     17  C   UNL     1       6.169   6.786  17.099  0.00  0.00    +0.000 A 
ATOM     18  C   UNL     1       7.231   7.597  17.494  0.00  0.00    +0.000 A 
ATOM     19  C   UNL     1       8.063   7.199  18.542  0.00  0.00    +0.000 A 
ATOM     20  C   UNL     1       7.804   6.012  19.226  0.00  0.00    +0.000 A 
ATOM     21  C   UNL     1       6.735   5.202  18.844  0.00  0.00    +0.000 A 
ENDBRANCH   1  16
BRANCH   1  22
ATOM     22  C   UNL     1       5.508   3.765  16.113  0.00  0.00    +0.000 C 
BRANCH  22  23
ATOM     23  C   UNL     1       6.011   4.510  14.868  0.00  0.00    +0.000 C 
BRANCH  23  25
ATOM     24  C   UNL     1       6.467   3.529  12.600  0.00  0.00    +0.000 C 
ATOM     25  C   UNL     1       5.389   4.028  13.556  0.00  0.00    +0.000 C 
ENDBRANCH  23  25
ENDBRANCH  22  23
ENDBRANCH   1  22
TORSDOF 7
ENDMDL
MODEL 3
REMARK VINA RESULT:      -7.2      2.122      3.937
REMARK  Name = 
REMARK  10 active torsions:
REMARK  status: ('A' for Active; 'I' for Inactive)
REMARK    1  A    between atoms: C_1  and  C_2
REMARK    2  A    between atoms: C_2  and  C_3
REMARK    3  A    between atoms: C_3  and  C_4
REMARK    4  A    between atoms: C_4  and  N_5
REMARK    5  A    between atoms: N_5  and  C_20
REMARK    6  A    between atoms: C_6  and  C_8
REMARK    7  A    between atoms: C_11  and  S_12
REMARK    8  A    between atoms: S_12  and  N_15
REMARK    9  A    between atoms: N_15  and  C_16
REMARK   10  A    between atoms: N_15  and  C_17
REMARK                            x       y       z     vdW  Elec       q    Type
REMARK                         _______ _______ _______ _____ _____    ______ ____
ROOT
ATOM      1  N   UNL     1       3.672   5.233  18.348  0.00  0.00    +0.000 N 
ATOM      2  C   UNL     1       3.648   6.584  17.930  0.00  0.00    +0.000 C 
ATOM      3  O   UNL     1       4.470   7.023  17.118  0.00  0.00    +0.000 OA
ENDROOT
BRANCH   2   4
ATOM      4  C   UNL     1       2.657   7.586  18.477  0.00  0.00    +0.000 A 
ATOM      5  C   UNL     1       2.234   7.620  19.812  0.00  0.00    +0.000 A 
ATOM      6  C   UNL     1       1.251   8.512  20.248  0.00  0.00    +0.000 A 
ATOM      7  C   UNL     1       0.795   9.495  19.378  0.00  0.00    +0.000 A 
ATOM      8  C   UNL     1       1.247   9.538  18.059  0.00  0.00    +0.000 A 
ATOM      9  C   UNL     1       2.170   8.579  17.611  0.00  0.00    +0.000 A 
BRANCH   7  10
ATOM     10  S   UNL     1      -0.345  10.717  19.998  0.00  0.00    +0.000 S 
ATOM     11  O   UNL     1      -1.547  10.627  19.190  0.00  0.00    +0.000 OA
ATOM     12  O   UNL     1      -0.393  10.584  21.443  0.00  0.00    +0.000 OA
BRANCH  10  13
ATOM     13  N   UNL     1       0.443  12.182  19.611  0.00  0.00    +0.000 NA
ATOM     14  C   UNL     1      -0.263  13.105  18.704  0.00  0.00    +0.000 C 
ATOM     15  C   UNL     1       1.116  12.873  20.729  0.00  0.00    +0.000 C 
ENDBRANCH  10  13
ENDBRANCH   7  10
ENDBRANCH   2   4
BRANCH   1  16
ATOM     16  C   UNL     1       2.682   4.642  19.175  0.00  0.00    +0.000 A 
ATOM     17  C   UNL     1       2.899   4.528  20.554  0.00  0.00    +0.000 A 
ATOM     18  C   UNL     1       2.044   3.749  21.331  0.00  0.00    +0.000 A 
ATOM     19  C   UNL     1       0.963   3.093  20.738  0.00  0.00    +0.000 A 
ATOM     20  C   UNL     1       0.710   3.256  19.378  0.00  0.00    +0.000 A 
ATOM     21  C   UNL     1       1.555   4.044  18.596  0.00  0.00    +0.000 A 
ENDBRANCH   1  16
BRANCH   1  22
ATOM     22  C   UNL     1       4.830   4.395  17.984  0.00  0.00    +0.000 C 
BRANCH  22  23
ATOM     23  C   UNL     1       4.732   3.721  16.607  0.00  0.00    +0.000 C 
BRANCH  23  25
ATOM     24  C   UNL     1       7.071   4.632  16.501  0.00  0.00    +0.000 C 
ATOM     25  C   UNL     1       5.985   3.877  15.743  0.00  0.00    +0.000 C 
ENDBRANCH  23  25
ENDBRANCH  22  23
ENDBRANCH   1  22
TORSDOF 7
ENDMDL
MODEL 4
REMARK VINA RESULT:      -7.1      2.203      3.778
REMARK  Name = 
REMARK  10 active torsions:
REMARK  status: ('A' for Active; 'I' for Inactive)
REMARK    1  A    between atoms: C_1  and  C_2
REMARK    2  A    between atoms: C_2  and  C_3
REMARK    3  A    between atoms: C_3  and  C_4
REMARK    4  A    between atoms: C_4  and  N_5
REMARK    5  A    between atoms: N_5  and  C_20
REMARK    6  A    between atoms: C_6  and  C_8
REMARK    7  A    between atoms: C_11  and  S_12
REMARK    8  A    between atoms: S_12  and  N_15
REMARK    9  A    between atoms: N_15  and  C_16
REMARK   10  A    between atoms: N_15  and  C_17
REMARK                            x       y       z     vdW  Elec       q    Type
REMARK                         _______ _______ _______ _____ _____    ______ ____
ROOT
ATOM      1  N   UNL     1       3.772   5.032  18.146  0.00  0.00    +0.000 N 
ATOM      2  C   UNL     1       3.805   6.396  17.771  0.00  0.00    +0.000 C 
ATOM      3  O   UNL     1       4.633   6.823  16.959  0.00  0.00    +0.000 OA
ENDROOT
BRANCH   2   4
ATOM      4  C   UNL     1       2.869   7.424  18.365  0.00  0.00    +0.000 A 
ATOM      5  C   UNL     1       2.388   7.377  19.680  0.00  0.00    +0.000 A 
ATOM      6  C   UNL     1       1.458   8.305  20.155  0.00  0.00    +0.000 A 
ATOM      7  C   UNL     1       1.120   9.393  19.358  0.00  0.00    +0.000 A 
ATOM      8  C   UNL     1       1.635   9.512  18.067  0.00  0.00    +0.000 A 
ATOM      9  C   UNL     1       2.502   8.524  17.573  0.00  0.00    +0.000 A 
BRANCH   7  10
ATOM     10  S   UNL     1       0.050  10.645  20.040  0.00  0.00    +0.000 S 
ATOM     11  O   UNL     1      -0.845   9.981  20.970  0.00  0.00    +0.000 OA
ATOM     12  O   UNL     1       0.882  11.759  20.455  0.00  0.00    +0.000 OA
BRANCH  10  13
ATOM     13  N   UNL     1      -0.865  11.124  18.679  0.00  0.00    +0.000 NA
ATOM     14  C   UNL     1      -1.947  10.222  18.246  0.00  0.00    +0.000 C 
ATOM     15  C   UNL     1      -1.245  12.550  18.621  0.00  0.00    +0.000 C 
ENDBRANCH  10  13
ENDBRANCH   7  10
ENDBRANCH   2   4
BRANCH   1  16
ATOM     16  C   UNL     1       2.769   4.461  18.971  0.00  0.00    +0.000 A 
ATOM     17  C   UNL     1       2.998   4.300  20.343  0.00  0.00    +0.000 A 
ATOM     18  C   UNL     1       2.121   3.537  21.110  0.00  0.00    +0.000 A 
ATOM     19  C   UNL     1       1.006   2.943  20.515  0.00  0.00    +0.000 A 
ATOM     20  C   UNL     1       0.743   3.154  19.163  0.00  0.00    +0.000 A 
ATOM     21  C   UNL     1       1.610   3.927  18.391  0.00  0.00    +0.000 A 
ENDBRANCH   1  16
BRANCH   1  22
ATOM     22  C   UNL     1       4.885   4.155  17.737  0.00  0.00    +0.000 C 
BRANCH  22  23
ATOM     23  C   UNL     1       4.870   3.740  16.258  0.00  0.00    +0.000 C 
BRANCH  23  25
ATOM     24  C   UNL     1       5.970   3.975  14.011  0.00  0.00    +0.000 C 
ATOM     25  C   UNL     1       6.184   4.004  15.520  0.00  0.00    +0.000 C 
ENDBRANCH  23  25
ENDBRANCH  22  23
ENDBRANCH   1  22
TORSDOF 7
ENDMDL
MODEL 5
REMARK VINA RESULT:      -7.1      2.104      3.734
REMARK  Name = 
REMARK  10 active torsions:
REMARK  status: ('A' for Active; 'I' for Inactive)
REMARK    1  A    between atoms: C_1  and  C_2
REMARK    2  A    between atoms: C_2  and  C_3
REMARK    3  A    between atoms: C_3  and  C_4
REMARK    4  A    between atoms: C_4  and  N_5
REMARK    5  A    between atoms: N_5  and  C_20
REMARK    6  A    between atoms: C_6  and  C_8
REMARK    7  A    between atoms: C_11  and  S_12
REMARK    8  A    between atoms: S_12  and  N_15
REMARK    9  A    between atoms: N_15  and  C_16
REMARK   10  A    between atoms: N_15  and  C_17
REMARK                            x       y       z     vdW  Elec       q    Type
REMARK                         _______ _______ _______ _____ _____    ______ ____
ROOT
ATOM      1  N   UNL     1       3.844   5.191  18.271  0.00  0.00    +0.000 N 
ATOM      2  C   UNL     1       3.886   6.561  17.921  0.00  0.00    +0.000 C 
ATOM      3  O   UNL     1       4.817   7.031  17.259  0.00  0.00    +0.000 OA
ENDROOT
BRANCH   2   4
ATOM      4  C   UNL     1       2.829   7.545  18.370  0.00  0.00    +0.000 A 
ATOM      5  C   UNL     1       2.210   8.470  17.519  0.00  0.00    +0.000 A 
ATOM      6  C   UNL     1       1.301   9.416  18.001  0.00  0.00    +0.000 A 
ATOM      7  C   UNL     1       0.880   9.338  19.323  0.00  0.00    +0.000 A 
ATOM      8  C   UNL     1       1.423   8.383  20.184  0.00  0.00    +0.000 A 
ATOM      9  C   UNL     1       2.400   7.495  19.706  0.00  0.00    +0.000 A 
BRANCH   7  10
ATOM     10  S   UNL     1      -0.392  10.457  19.877  0.00  0.00    +0.000 S 
ATOM     11  O   UNL     1      -1.515  10.308  18.970  0.00  0.00    +0.000 OA
ATOM     12  O   UNL     1      -0.546  10.277  21.309  0.00  0.00    +0.000 OA
BRANCH  10  13
ATOM     13  N   UNL     1       0.315  11.986  19.591  0.00  0.00    +0.000 NA
ATOM     14  C   UNL     1      -0.562  13.043  19.059  0.00  0.00    +0.000 C 
ATOM     15  C   UNL     1       1.246  12.475  20.629  0.00  0.00    +0.000 C 
ENDBRANCH  10  13
ENDBRANCH   7  10
ENDBRANCH   2   4
BRANCH   1  16
ATOM     16  C   UNL     1       2.743   4.570  18.917  0.00  0.00    +0.000 A 
ATOM     17  C   UNL     1       2.774   4.357  20.301  0.00  0.00    +0.000 A 
ATOM     18  C   UNL     1       1.811   3.549  20.901  0.00  0.00    +0.000 A 
ATOM     19  C   UNL     1       0.807   2.963  20.127  0.00  0.00    +0.000 A 
ATOM     20  C   UNL     1       0.740   3.225  18.760  0.00  0.00    +0.000 A 
ATOM     21  C   UNL     1       1.694   4.043  18.153  0.00  0.00    +0.000 A 
ENDBRANCH   1  16
BRANCH   1  22
ATOM     22  C   UNL     1       5.039   4.359  18.035  0.00  0.00    +0.000 C 
BRANCH  22  23
ATOM     23  C   UNL     1       5.054   3.616  16.690  0.00  0.00    +0.000 C 
BRANCH  23  25
ATOM     24  C   UNL     1       5.586   4.444  14.378  0.00  0.00    +0.000 C 
ATOM     25  C   UNL     1       6.163   4.066  15.738  0.00  0.00    +0.000 C 
ENDBRANCH  23  25
ENDBRANCH  22  23
ENDBRANCH   1  22
TORSDOF 7
ENDMDL
MODEL 6
REMARK VINA RESULT:      -7.0      1.758      3.318
REMARK  Name = 
REMARK  10 active torsions:
REMARK  status: ('A' for Active; 'I' for Inactive)
REMARK    1  A    between atoms: C_1  and  C_2
REMARK    2  A    between atoms: C_2  and  C_3
REMARK    3  A    between atoms: C_3  and  C_4
REMARK    4  A    between atoms: C_4  and  N_5
REMARK    5  A    between atoms: N_5  and  C_20
REMARK    6  A    between atoms: C_6  and  C_8
REMARK    7  A    between atoms: C_11  and  S_12
REMARK    8  A    between atoms: S_12  and  N_15
REMARK    9  A    between atoms: N_15  and  C_16
REMARK   10  A    between atoms: N_15  and  C_17
REMARK                            x       y       z     vdW  Elec       q    Type
REMARK                         _______ _______ _______ _____ _____    ______ ____
ROOT
ATOM      1  N   UNL     1       3.914   4.645  17.296  0.00  0.00    +0.000 N 
ATOM      2  C   UNL     1       3.855   6.059  17.284  0.00  0.00    +0.000 C 
ATOM      3  O   UNL     1       4.497   6.726  16.466  0.00  0.00    +0.000 OA
ENDROOT
BRANCH   2   4
ATOM      4  C   UNL     1       3.048   6.846  18.292  0.00  0.00    +0.000 A 
ATOM      5  C   UNL     1       2.860   6.452  19.623  0.00  0.00    +0.000 A 
ATOM      6  C   UNL     1       2.035   7.171  20.492  0.00  0.00    +0.000 A 
ATOM      7  C   UNL     1       1.514   8.390  20.076  0.00  0.00    +0.000 A 
ATOM      8  C   UNL     1       1.738   8.851  18.778  0.00  0.00    +0.000 A 
ATOM      9  C   UNL     1       2.498   8.074  17.889  0.00  0.00    +0.000 A 
BRANCH   7  10
ATOM     10  S   UNL     1       0.589   9.364  21.248  0.00  0.00    +0.000 S 
ATOM     11  O   UNL     1      -0.640   8.644  21.526  0.00  0.00    +0.000 OA
ATOM     12  O   UNL     1       1.496   9.751  22.314  0.00  0.00    +0.000 OA
BRANCH  10  13
ATOM     13  N   UNL     1       0.192  10.753  20.338  0.00  0.00    +0.000 NA
ATOM     14  C   UNL     1      -1.129  10.773  19.685  0.00  0.00    +0.000 C 
ATOM     15  C   UNL     1       0.558  12.051  20.940  0.00  0.00    +0.000 C 
ENDBRANCH  10  13
ENDBRANCH   7  10
ENDBRANCH   2   4
BRANCH   1  16
ATOM     16  C   UNL     1       3.105   3.825  18.124  0.00  0.00    +0.000 A 
ATOM     17  C   UNL     1       1.742   3.672  17.839  0.00  0.00    +0.000 A 
ATOM     18  C   UNL     1       0.902   3.063  18.769  0.00  0.00    +0.000 A 
ATOM     19  C   UNL     1       1.418   2.594  19.978  0.00  0.00    +0.000 A 
ATOM     20  C   UNL     1       2.785   2.690  20.236  0.00  0.00    +0.000 A 
ATOM     21  C   UNL     1       3.634   3.288  19.304  0.00  0.00    +0.000 A 
ENDBRANCH   1  16
BRANCH   1  22
ATOM     22  C   UNL     1       4.930   3.968  16.468  0.00  0.00    +0.000 C 
BRANCH  22  23
ATOM     23  C   UNL     1       6.384   4.334  16.803  0.00  0.00    +0.000 C 
BRANCH  23  25
ATOM     24  C   UNL     1       6.438   4.512  14.297  0.00  0.00    +0.000 C 
ATOM     25  C   UNL     1       7.237   4.688  15.583  0.00  0.00    +0.000 C 
ENDBRANCH  23  25
ENDBRANCH  22  23
ENDBRANCH   1  22
TORSDOF 7
ENDMDL
MODEL 7
REMARK VINA RESULT:      -7.0      2.011      3.605
REMARK  Name = 
REMARK  10 active torsions:
REMARK  status: ('A' for Active; 'I' for Inactive)
REMARK    1  A    between atoms: C_1  and  C_2
REMARK    2  A    between atoms: C_2  and  C_3
REMARK    3  A    between atoms: C_3  and  C_4
REMARK    4  A    between atoms: C_4  and  N_5
REMARK    5  A    between atoms: N_5  and  C_20
REMARK    6  A    between atoms: C_6  and  C_8
REMARK    7  A    between atoms: C_11  and  S_12
REMARK    8  A    between atoms: S_12  and  N_15
REMARK    9  A    between atoms: N_15  and  C_16
REMARK   10  A    between atoms: N_15  and  C_17
REMARK                            x       y       z     vdW  Elec       q    Type
REMARK                         _______ _______ _______ _____ _____    ______ ____
ROOT
ATOM      1  N   UNL     1       4.105   5.092  18.094  0.00  0.00    +0.000 N 
ATOM      2  C   UNL     1       4.073   6.484  17.843  0.00  0.00    +0.000 C 
ATOM      3  O   UNL     1       4.957   7.042  17.185  0.00  0.00    +0.000 OA
ENDROOT
BRANCH   2   4
ATOM      4  C   UNL     1       2.991   7.384  18.396  0.00  0.00    +0.000 A 
ATOM      5  C   UNL     1       2.528   7.330  19.717  0.00  0.00    +0.000 A 
ATOM      6  C   UNL     1       1.467   8.127  20.156  0.00  0.00    +0.000 A 
ATOM      7  C   UNL     1       0.963   9.107  19.311  0.00  0.00    +0.000 A 
ATOM      8  C   UNL     1       1.448   9.239  18.009  0.00  0.00    +0.000 A 
ATOM      9  C   UNL     1       2.455   8.373  17.555  0.00  0.00    +0.000 A 
BRANCH   7  10
ATOM     10  S   UNL     1      -0.286  10.212  19.941  0.00  0.00    +0.000 S 
ATOM     11  O   UNL     1      -1.393  10.184  19.002  0.00  0.00    +0.000 OA
ATOM     12  O   UNL     1      -0.478   9.907  21.347  0.00  0.00    +0.000 OA
BRANCH  10  13
ATOM     13  N   UNL     1       0.475  11.736  19.812  0.00  0.00    +0.000 NA
ATOM     14  C   UNL     1       0.088  12.586  18.672  0.00  0.00    +0.000 C 
ATOM     15  C   UNL     1       0.630  12.493  21.071  0.00  0.00    +0.000 C 
ENDBRANCH  10  13
ENDBRANCH   7  10
ENDBRANCH   2   4
BRANCH   1  16
ATOM     16  C   UNL     1       3.056   4.377  18.730  0.00  0.00    +0.000 A 
ATOM     17  C   UNL     1       1.912   4.020  18.005  0.00  0.00    +0.000 A 
ATOM     18  C   UNL     1       0.792   3.530  18.672  0.00  0.00    +0.000 A 
ATOM     19  C   UNL     1       0.813   3.380  20.060  0.00  0.00    +0.000 A 
ATOM     20  C   UNL     1       1.972   3.677  20.776  0.00  0.00    +0.000 A 
ATOM     21  C   UNL     1       3.102   4.157  20.113  0.00  0.00    +0.000 A 
ENDBRANCH   1  16
BRANCH   1  22
ATOM     22  C   UNL     1       5.326   4.336  17.759  0.00  0.00    +0.000 C 
BRANCH  22  23
ATOM     23  C   UNL     1       5.265   3.565  16.432  0.00  0.00    +0.000 C 
BRANCH  23  25
ATOM     24  C   UNL     1       5.734   4.275  14.068  0.00  0.00    +0.000 C 
ATOM     25  C   UNL     1       6.348   3.961  15.427  0.00  0.00    +0.000 C 
ENDBRANCH  23  25
ENDBRANCH  22  23
ENDBRANCH   1  22
TORSDOF 7
ENDMDL
MODEL 8
REMARK VINA RESULT:      -7.0      1.958      3.751
REMARK  Name = 
REMARK  10 active torsions:
REMARK  status: ('A' for Active; 'I' for Inactive)
REMARK    1  A    between atoms: C_1  and  C_2
REMARK    2  A    between atoms: C_2  and  C_3
REMARK    3  A    between atoms: C_3  and  C_4
REMARK    4  A    between atoms: C_4  and  N_5
REMARK    5  A    between atoms: N_5  and  C_20
REMARK    6  A    between atoms: C_6  and  C_8
REMARK    7  A    between atoms: C_11  and  S_12
REMARK    8  A    between atoms: S_12  and  N_15
REMARK    9  A    between atoms: N_15  and  C_16
REMARK   10  A    between atoms: N_15  and  C_17
REMARK                            x       y       z     vdW  Elec       q    Type
REMARK                         _______ _______ _______ _____ _____    ______ ____
ROOT
ATOM      1  N   UNL     1       3.847   4.983  17.718  0.00  0.00    +0.000 N 
ATOM      2  C   UNL     1       3.791   6.377  17.488  0.00  0.00    +0.000 C 
ATOM      3  O   UNL     1       4.499   6.920  16.634  0.00  0.00    +0.000 OA
ENDROOT
BRANCH   2   4
ATOM      4  C   UNL     1       2.906   7.298  18.297  0.00  0.00    +0.000 A 
ATOM      5  C   UNL     1       2.623   7.118  19.657  0.00  0.00    +0.000 A 
ATOM      6  C   UNL     1       1.731   7.949  20.339  0.00  0.00    +0.000 A 
ATOM      7  C   UNL     1       1.232   9.076  19.697  0.00  0.00    +0.000 A 
ATOM      8  C   UNL     1       1.548   9.329  18.362  0.00  0.00    +0.000 A 
ATOM      9  C   UNL     1       2.378   8.436  17.665  0.00  0.00    +0.000 A 
BRANCH   7  10
ATOM     10  S   UNL     1       0.217  10.206  20.630  0.00  0.00    +0.000 S 
ATOM     11  O   UNL     1      -0.929   9.453  21.107  0.00  0.00    +0.000 OA
ATOM     12  O   UNL     1       1.083  10.926  21.545  0.00  0.00    +0.000 OA
BRANCH  10  13
ATOM     13  N   UNL     1      -0.328  11.288  19.427  0.00  0.00    +0.000 NA
ATOM     14  C   UNL     1      -1.734  11.169  19.002  0.00  0.00    +0.000 C 
ATOM     15  C   UNL     1       0.117  12.690  19.564  0.00  0.00    +0.000 C 
ENDBRANCH  10  13
ENDBRANCH   7  10
ENDBRANCH   2   4
BRANCH   1  16
ATOM     16  C   UNL     1       2.970   4.288  18.591  0.00  0.00    +0.000 A 
ATOM     17  C   UNL     1       1.672   3.970  18.173  0.00  0.00    +0.000 A 
ATOM     18  C   UNL     1       0.740   3.500  19.095  0.00  0.00    +0.000 A 
ATOM     19  C   UNL     1       1.102   3.332  20.434  0.00  0.00    +0.000 A 
ATOM     20  C   UNL     1       2.411   3.590  20.839  0.00  0.00    +0.000 A 
ATOM     21  C   UNL     1       3.353   4.049  19.918  0.00  0.00    +0.000 A 
ENDBRANCH   1  16
BRANCH   1  22
ATOM     22  C   UNL     1       4.925   4.200  17.086  0.00  0.00    +0.000 C 
BRANCH  22  23
ATOM     23  C   UNL     1       6.241   4.157  17.878  0.00  0.00    +0.000 C 
BRANCH  23  25
ATOM     24  C   UNL     1       7.587   6.250  18.232  0.00  0.00    +0.000 C 
ATOM     25  C   UNL     1       7.341   5.058  17.313  0.00  0.00    +0.000 C 
ENDBRANCH  23  25
ENDBRANCH  22  23
ENDBRANCH   1  22
TORSDOF 7
ENDMDL
MODEL 9
REMARK VINA RESULT:      -6.9      1.317      1.881
REMARK  Name = 
REMARK  10 active torsions:
REMARK  status: ('A' for Active; 'I' for Inactive)
REMARK    1  A    between atoms: C_1  and  C_2
REMARK    2  A    between atoms: C_2  and  C_3
REMARK    3  A    between atoms: C_3  and  C_4
REMARK    4  A    between atoms: C_4  and  N_5
REMARK    5  A    between atoms: N_5  and  C_20
REMARK    6  A    between atoms: C_6  and  C_8
REMARK    7  A    between atoms: C_11  and  S_12
REMARK    8  A    between atoms: S_12  and  N_15
REMARK    9  A    between atoms: N_15  and  C_16
REMARK   10  A    between atoms: N_15  and  C_17
REMARK                            x       y       z     vdW  Elec       q    Type
REMARK                         _______ _______ _______ _____ _____    ______ ____
ROOT
ATOM      1  N   UNL     1       4.224   4.860  17.618  0.00  0.00    +0.000 N 
ATOM      2  C   UNL     1       2.875   5.161  17.915  0.00  0.00    +0.000 C 
ATOM      3  O   UNL     1       1.969   4.347  17.704  0.00  0.00    +0.000 OA
ENDROOT
BRANCH   2   4
ATOM      4  C   UNL     1       2.443   6.504  18.460  0.00  0.00    +0.000 A 
ATOM      5  C   UNL     1       2.262   6.774  19.822  0.00  0.00    +0.000 A 
ATOM      6  C   UNL     1       1.780   8.007  20.269  0.00  0.00    +0.000 A 
ATOM      7  C   UNL     1       1.627   9.043  19.356  0.00  0.00    +0.000 A 
ATOM      8  C   UNL     1       1.867   8.833  17.998  0.00  0.00    +0.000 A 
ATOM      9  C   UNL     1       2.267   7.562  17.554  0.00  0.00    +0.000 A 
BRANCH   7  10
ATOM     10  S   UNL     1       1.157  10.651  19.967  0.00  0.00    +0.000 S 
ATOM     11  O   UNL     1       1.447  10.667  21.390  0.00  0.00    +0.000 OA
ATOM     12  O   UNL     1       1.717  11.646  19.070  0.00  0.00    +0.000 OA
BRANCH  10  13
ATOM     13  N   UNL     1      -0.540  10.634  19.775  0.00  0.00    +0.000 NA
ATOM     14  C   UNL     1      -1.327  11.487  20.683  0.00  0.00    +0.000 C 
ATOM     15  C   UNL     1      -1.036  10.658  18.384  0.00  0.00    +0.000 C 
ENDBRANCH  10  13
ENDBRANCH   7  10
ENDBRANCH   2   4
BRANCH   1  16
ATOM     16  C   UNL     1       5.317   5.701  17.955  0.00  0.00    +0.000 A 
ATOM     17  C   UNL     1       5.589   6.837  17.182  0.00  0.00    +0.000 A 
ATOM     18  C   UNL     1       6.783   7.531  17.363  0.00  0.00    +0.000 A 
ATOM     19  C   UNL     1       7.703   7.104  18.323  0.00  0.00    +0.000 A 
ATOM     20  C   UNL     1       7.406   6.010  19.134  0.00  0.00    +0.000 A 
ATOM     21  C   UNL     1       6.206   5.317  18.967  0.00  0.00    +0.000 A 
ENDBRANCH   1  16
BRANCH   1  22
ATOM     22  C   UNL     1       4.528   3.645  16.838  0.00  0.00    +0.000 C 
BRANCH  22  23
ATOM     23  C   UNL     1       5.012   3.903  15.403  0.00  0.00    +0.000 C 
BRANCH  23  25
ATOM     24  C   UNL     1       7.030   4.942  14.325  0.00  0.00    +0.000 C 
ATOM     25  C   UNL     1       6.531   3.823  15.231  0.00  0.00    +0.000 C 
ENDBRANCH  23  25
ENDBRANCH  22  23
ENDBRANCH   1  22
TORSDOF 7
ENDMDL
