MODEL 1
REMARK VINA RESULT:      -6.5      0.000      0.000
REMARK  Name = 
REMARK  4 active torsions:
REMARK  status: ('A' for Active; 'I' for Inactive)
REMARK    1  A    between atoms: N_2  and  C_4
REMARK    2  A    between atoms: C_7  and  S_8
REMARK    3  A    between atoms: S_8  and  C_9
REMARK    4  A    between atoms: C_9  and  C_10
REMARK                            x       y       z     vdW  Elec       q    Type
REMARK                         _______ _______ _______ _____ _____    ______ ____
ROOT
ATOM      1  C   UNL     1       6.694   4.982  15.011  0.00  0.00    +0.000 A 
ATOM      2  C   UNL     1       5.422   5.500  15.255  0.00  0.00    +0.000 A 
ATOM      3  C   UNL     1       4.973   5.580  16.575  0.00  0.00    +0.000 A 
ATOM      4  C   UNL     1       5.810   5.156  17.605  0.00  0.00    +0.000 A 
ATOM      5  N   UNL     1       7.045   4.652  17.374  0.00  0.00    +0.000 NA
ATOM      6  C   UNL     1       7.464   4.570  16.085  0.00  0.00    +0.000 A 
ENDROOT
BRANCH   1   8
ATOM      7  O   UNL     1       8.154   5.614  13.339  0.00  0.00    +0.000 OA
ATOM      8  N   UNL     1       7.217   4.869  13.657  0.00  0.00    +0.000 N 
ATOM      9  O   UNL     1       6.700   4.030  12.908  0.00  0.00    +0.000 OA
ENDBRANCH   1   8
BRANCH   4  10
ATOM     10  S   UNL     1       5.233   5.229  19.290  0.00  0.00    +0.000 S 
BRANCH  10  11
ATOM     11  C   UNL     1       3.525   5.795  19.011  0.00  0.00    +0.000 C 
BRANCH  11  12
ATOM     12  C   UNL     1       2.517   4.702  19.265  0.00  0.00    +0.000 A 
ATOM     13  C   UNL     1       2.084   4.423  20.567  0.00  0.00    +0.000 A 
ATOM     14  C   UNL     1       1.135   3.430  20.756  0.00  0.00    +0.000 A 
ATOM     15  N   UNL     1       0.600   2.702  19.754  0.00  0.00    +0.000 NA
ATOM     16  C   UNL     1       1.039   2.975  18.507  0.00  0.00    +0.000 A 
ATOM     17  C   UNL     1       1.983   3.948  18.216  0.00  0.00    +0.000 A 
ENDBRANCH  11  12
ENDBRANCH  10  11
ENDBRANCH   4  10
TORSDOF 4
ENDMDL
MODEL 2
REMARK VINA RESULT:      -6.3      0.319      1.398
REMARK  Name = 
REMARK  4 active torsions:
REMARK  status: ('A' for Active; 'I' for Inactive)
REMARK    1  A    between atoms: N_2  and  C_4
REMARK    2  A    between atoms: C_7  and  S_8
REMARK    3  A    between atoms: S_8  and  C_9
REMARK    4  A    between atoms: C_9  and  C_10
REMARK                            x       y       z     vdW  Elec       q    Type
REMARK                         _______ _______ _______ _____ _____    ______ ____
ROOT
ATOM      1  C   UNL     1       6.636   4.890  14.988  0.00  0.00    +0.000 A 
ATOM      2  C   UNL     1       5.300   5.172  15.273  0.00  0.00    +0.000 A 
ATOM      3  C   UNL     1       4.904   5.262  16.610  0.00  0.00    +0.000 A 
ATOM      4  C   UNL     1       5.853   5.081  17.614  0.00  0.00    +0.000 A 
ATOM      5  N   UNL     1       7.150   4.806  17.343  0.00  0.00    +0.000 NA
ATOM      6  C   UNL     1       7.519   4.711  16.040  0.00  0.00    +0.000 A 
ENDROOT
BRANCH   1   8
ATOM      7  O   UNL     1       6.586   3.921  12.895  0.00  0.00    +0.000 OA
ATOM      8  N   UNL     1       7.110   4.780  13.616  0.00  0.00    +0.000 N 
ATOM      9  O   UNL     1       8.003   5.556  13.251  0.00  0.00    +0.000 OA
ENDBRANCH   1   8
BRANCH   4  10
ATOM     10  S   UNL     1       5.349   5.165  19.321  0.00  0.00    +0.000 S 
BRANCH  10  11
ATOM     11  C   UNL     1       3.617   5.688  19.110  0.00  0.00    +0.000 C 
BRANCH  11  12
ATOM     12  C   UNL     1       2.645   4.608  19.516  0.00  0.00    +0.000 A 
ATOM     13  C   UNL     1       1.971   3.858  18.544  0.00  0.00    +0.000 A 
ATOM     14  C   UNL     1       1.107   2.856  18.957  0.00  0.00    +0.000 A 
ATOM     15  N   UNL     1       0.866   2.557  20.250  0.00  0.00    +0.000 NA
ATOM     16  C   UNL     1       1.513   3.300  21.172  0.00  0.00    +0.000 A 
ATOM     17  C   UNL     1       2.397   4.322  20.861  0.00  0.00    +0.000 A 
ENDBRANCH  11  12
ENDBRANCH  10  11
ENDBRANCH   4  10
TORSDOF 4
ENDMDL
MODEL 3
REMARK VINA RESULT:      -6.3      0.784      1.660
REMARK  Name = 
REMARK  4 active torsions:
REMARK  status: ('A' for Active; 'I' for Inactive)
REMARK    1  A    between atoms: N_2  and  C_4
REMARK    2  A    between atoms: C_7  and  S_8
REMARK    3  A    between atoms: S_8  and  C_9
REMARK    4  A    between atoms: C_9  and  C_10
REMARK                            x       y       z     vdW  Elec       q    Type
REMARK                         _______ _______ _______ _____ _____    ______ ____
ROOT
ATOM      1  C   UNL     1       6.579   5.054  15.203  0.00  0.00    +0.000 A 
ATOM      2  C   UNL     1       7.210   4.491  16.312  0.00  0.00    +0.000 A 
ATOM      3  C   UNL     1       6.649   4.690  17.576  0.00  0.00    +0.000 A 
ATOM      4  C   UNL     1       5.473   5.429  17.689  0.00  0.00    +0.000 A 
ATOM      5  N   UNL     1       4.857   5.978  16.616  0.00  0.00    +0.000 NA
ATOM      6  C   UNL     1       5.419   5.786  15.396  0.00  0.00    +0.000 A 
ENDROOT
BRANCH   1   8
ATOM      7  O   UNL     1       8.046   5.629  13.517  0.00  0.00    +0.000 OA
ATOM      8  N   UNL     1       7.116   4.886  13.861  0.00  0.00    +0.000 N 
ATOM      9  O   UNL     1       6.617   4.007  13.146  0.00  0.00    +0.000 OA
ENDBRANCH   1   8
BRANCH   4  10
ATOM     10  S   UNL     1       4.766   5.711  19.301  0.00  0.00    +0.000 S 
BRANCH  10  11
ATOM     11  C   UNL     1       3.017   5.922  18.842  0.00  0.00    +0.000 C 
BRANCH  11  12
ATOM     12  C   UNL     1       2.187   4.714  19.197  0.00  0.00    +0.000 A 
ATOM     13  C   UNL     1       1.708   3.862  18.195  0.00  0.00    +0.000 A 
ATOM     14  C   UNL     1       0.973   2.745  18.564  0.00  0.00    +0.000 A 
ATOM     15  N   UNL     1       0.680   2.427  19.842  0.00  0.00    +0.000 NA
ATOM     16  C   UNL     1       1.137   3.268  20.793  0.00  0.00    +0.000 A 
ATOM     17  C   UNL     1       1.881   4.408  20.526  0.00  0.00    +0.000 A 
ENDBRANCH  11  12
ENDBRANCH  10  11
ENDBRANCH   4  10
TORSDOF 4
ENDMDL
MODEL 4
REMARK VINA RESULT:      -6.2      1.979      2.529
REMARK  Name = 
REMARK  4 active torsions:
REMARK  status: ('A' for Active; 'I' for Inactive)
REMARK    1  A    between atoms: N_2  and  C_4
REMARK    2  A    between atoms: C_7  and  S_8
REMARK    3  A    between atoms: S_8  and  C_9
REMARK    4  A    between atoms: C_9  and  C_10
REMARK                            x       y       z     vdW  Elec       q    Type
REMARK                         _______ _______ _______ _____ _____    ______ ____
ROOT
ATOM      1  C   UNL     1       6.113   5.178  16.770  0.00  0.00    +0.000 A 
ATOM      2  C   UNL     1       5.025   4.312  16.887  0.00  0.00    +0.000 A 
ATOM      3  C   UNL     1       3.805   4.824  17.334  0.00  0.00    +0.000 A 
ATOM      4  C   UNL     1       3.707   6.181  17.636  0.00  0.00    +0.000 A 
ATOM      5  N   UNL     1       4.759   7.025  17.526  0.00  0.00    +0.000 NA
ATOM      6  C   UNL     1       5.941   6.512  17.101  0.00  0.00    +0.000 A 
ENDROOT
BRANCH   1   8
ATOM      7  O   UNL     1       8.159   4.183  17.151  0.00  0.00    +0.000 OA
ATOM      8  N   UNL     1       7.411   4.705  16.314  0.00  0.00    +0.000 N 
ATOM      9  O   UNL     1       7.687   4.846  15.115  0.00  0.00    +0.000 OA
ENDBRANCH   1   8
BRANCH   4  10
ATOM     10  S   UNL     1       2.161   6.836  18.235  0.00  0.00    +0.000 S 
BRANCH  10  11
ATOM     11  C   UNL     1       2.327   6.457  20.008  0.00  0.00    +0.000 C 
BRANCH  11  12
ATOM     12  C   UNL     1       1.988   5.019  20.315  0.00  0.00    +0.000 A 
ATOM     13  C   UNL     1       1.130   4.297  19.478  0.00  0.00    +0.000 A 
ATOM     14  C   UNL     1       0.865   2.970  19.778  0.00  0.00    +0.000 A 
ATOM     15  N   UNL     1       1.381   2.323  20.844  0.00  0.00    +0.000 NA
ATOM     16  C   UNL     1       2.194   3.040  21.649  0.00  0.00    +0.000 A 
ATOM     17  C   UNL     1       2.521   4.370  21.432  0.00  0.00    +0.000 A 
ENDBRANCH  11  12
ENDBRANCH  10  11
ENDBRANCH   4  10
TORSDOF 4
ENDMDL
MODEL 5
REMARK VINA RESULT:      -6.2      2.298      3.066
REMARK  Name = 
REMARK  4 active torsions:
REMARK  status: ('A' for Active; 'I' for Inactive)
REMARK    1  A    between atoms: N_2  and  C_4
REMARK    2  A    between atoms: C_7  and  S_8
REMARK    3  A    between atoms: S_8  and  C_9
REMARK    4  A    between atoms: C_9  and  C_10
REMARK                            x       y       z     vdW  Elec       q    Type
REMARK                         _______ _______ _______ _____ _____    ______ ____
ROOT
ATOM      1  C   UNL     1       6.273   4.714  16.809  0.00  0.00    +0.000 A 
ATOM      2  C   UNL     1       5.201   4.025  16.240  0.00  0.00    +0.000 A 
ATOM      3  C   UNL     1       4.303   3.368  17.084  0.00  0.00    +0.000 A 
ATOM      4  C   UNL     1       4.493   3.433  18.463  0.00  0.00    +0.000 A 
ATOM      5  N   UNL     1       5.531   4.100  19.020  0.00  0.00    +0.000 NA
ATOM      6  C   UNL     1       6.403   4.723  18.187  0.00  0.00    +0.000 A 
ENDROOT
BRANCH   1   8
ATOM      7  O   UNL     1       7.666   4.833  14.973  0.00  0.00    +0.000 OA
ATOM      8  N   UNL     1       7.246   5.414  15.983  0.00  0.00    +0.000 N 
ATOM      9  O   UNL     1       7.590   6.550  16.335  0.00  0.00    +0.000 OA
ENDBRANCH   1   8
BRANCH   4  10
ATOM     10  S   UNL     1       3.366   2.574  19.544  0.00  0.00    +0.000 S 
BRANCH  10  11
ATOM     11  C   UNL     1       1.818   3.439  19.132  0.00  0.00    +0.000 C 
BRANCH  11  12
ATOM     12  C   UNL     1       1.925   4.928  19.344  0.00  0.00    +0.000 A 
ATOM     13  C   UNL     1       2.215   5.780  18.272  0.00  0.00    +0.000 A 
ATOM     14  C   UNL     1       2.277   7.146  18.503  0.00  0.00    +0.000 A 
ATOM     15  N   UNL     1       2.080   7.713  19.711  0.00  0.00    +0.000 NA
ATOM     16  C   UNL     1       1.816   6.875  20.736  0.00  0.00    +0.000 A 
ATOM     17  C   UNL     1       1.732   5.497  20.606  0.00  0.00    +0.000 A 
ENDBRANCH  11  12
ENDBRANCH  10  11
ENDBRANCH   4  10
TORSDOF 4
ENDMDL
MODEL 6
REMARK VINA RESULT:      -6.2      1.649      1.949
REMARK  Name = 
REMARK  4 active torsions:
REMARK  status: ('A' for Active; 'I' for Inactive)
REMARK    1  A    between atoms: N_2  and  C_4
REMARK    2  A    between atoms: C_7  and  S_8
REMARK    3  A    between atoms: S_8  and  C_9
REMARK    4  A    between atoms: C_9  and  C_10
REMARK                            x       y       z     vdW  Elec       q    Type
REMARK                         _______ _______ _______ _____ _____    ______ ____
ROOT
ATOM      1  C   UNL     1       6.352   4.245  13.914  0.00  0.00    +0.000 A 
ATOM      2  C   UNL     1       5.209   3.940  14.653  0.00  0.00    +0.000 A 
ATOM      3  C   UNL     1       5.127   4.382  15.976  0.00  0.00    +0.000 A 
ATOM      4  C   UNL     1       6.179   5.123  16.511  0.00  0.00    +0.000 A 
ATOM      5  N   UNL     1       7.291   5.422  15.799  0.00  0.00    +0.000 NA
ATOM      6  C   UNL     1       7.361   4.976  14.519  0.00  0.00    +0.000 A 
ENDROOT
BRANCH   1   8
ATOM      7  O   UNL     1       7.347   4.384  11.837  0.00  0.00    +0.000 OA
ATOM      8  N   UNL     1       6.499   3.810  12.533  0.00  0.00    +0.000 N 
ATOM      9  O   UNL     1       5.772   2.888  12.140  0.00  0.00    +0.000 OA
ENDBRANCH   1   8
BRANCH   4  10
ATOM     10  S   UNL     1       6.094   5.666  18.207  0.00  0.00    +0.000 S 
BRANCH  10  11
ATOM     11  C   UNL     1       4.288   5.792  18.405  0.00  0.00    +0.000 C 
BRANCH  11  12
ATOM     12  C   UNL     1       3.746   4.746  19.347  0.00  0.00    +0.000 A 
ATOM     13  C   UNL     1       4.348   3.485  19.430  0.00  0.00    +0.000 A 
ATOM     14  C   UNL     1       3.838   2.560  20.328  0.00  0.00    +0.000 A 
ATOM     15  N   UNL     1       2.781   2.798  21.133  0.00  0.00    +0.000 NA
ATOM     16  C   UNL     1       2.204   4.014  21.028  0.00  0.00    +0.000 A 
ATOM     17  C   UNL     1       2.641   5.006  20.162  0.00  0.00    +0.000 A 
ENDBRANCH  11  12
ENDBRANCH  10  11
ENDBRANCH   4  10
TORSDOF 4
ENDMDL
MODEL 7
REMARK VINA RESULT:      -6.1      1.969      2.462
REMARK  Name = 
REMARK  4 active torsions:
REMARK  status: ('A' for Active; 'I' for Inactive)
REMARK    1  A    between atoms: N_2  and  C_4
REMARK    2  A    between atoms: C_7  and  S_8
REMARK    3  A    between atoms: S_8  and  C_9
REMARK    4  A    between atoms: C_9  and  C_10
REMARK                            x       y       z     vdW  Elec       q    Type
REMARK                         _______ _______ _______ _____ _____    ______ ____
ROOT
ATOM      1  C   UNL     1       6.418   5.174  17.448  0.00  0.00    +0.000 A 
ATOM      2  C   UNL     1       5.673   6.028  16.634  0.00  0.00    +0.000 A 
ATOM      3  C   UNL     1       4.498   6.584  17.144  0.00  0.00    +0.000 A 
ATOM      4  C   UNL     1       4.112   6.281  18.449  0.00  0.00    +0.000 A 
ATOM      5  N   UNL     1       4.830   5.452  19.242  0.00  0.00    +0.000 NA
ATOM      6  C   UNL     1       5.964   4.910  18.729  0.00  0.00    +0.000 A 
ENDROOT
BRANCH   1   8
ATOM      7  O   UNL     1       7.847   4.540  15.751  0.00  0.00    +0.000 OA
ATOM      8  N   UNL     1       7.649   4.560  16.974  0.00  0.00    +0.000 N 
ATOM      9  O   UNL     1       8.427   4.100  17.820  0.00  0.00    +0.000 OA
ENDBRANCH   1   8
BRANCH   4  10
ATOM     10  S   UNL     1       2.598   6.965  19.096  0.00  0.00    +0.000 S 
BRANCH  10  11
ATOM     11  C   UNL     1       1.388   5.891  18.260  0.00  0.00    +0.000 C 
BRANCH  11  12
ATOM     12  C   UNL     1       1.582   4.437  18.611  0.00  0.00    +0.000 A 
ATOM     13  C   UNL     1       1.270   3.968  19.892  0.00  0.00    +0.000 A 
ATOM     14  C   UNL     1       1.436   2.619  20.168  0.00  0.00    +0.000 A 
ATOM     15  N   UNL     1       1.889   1.719  19.271  0.00  0.00    +0.000 NA
ATOM     16  C   UNL     1       2.199   2.192  18.045  0.00  0.00    +0.000 A 
ATOM     17  C   UNL     1       2.067   3.522  17.672  0.00  0.00    +0.000 A 
ENDBRANCH  11  12
ENDBRANCH  10  11
ENDBRANCH   4  10
TORSDOF 4
ENDMDL
MODEL 8
REMARK VINA RESULT:      -6.1      1.114      1.777
REMARK  Name = 
REMARK  4 active torsions:
REMARK  status: ('A' for Active; 'I' for Inactive)
REMARK    1  A    between atoms: N_2  and  C_4
REMARK    2  A    between atoms: C_7  and  S_8
REMARK    3  A    between atoms: S_8  and  C_9
REMARK    4  A    between atoms: C_9  and  C_10
REMARK                            x       y       z     vdW  Elec       q    Type
REMARK                         _______ _______ _______ _____ _____    ______ ____
ROOT
ATOM      1  C   UNL     1       6.639   4.778  14.796  0.00  0.00    +0.000 A 
ATOM      2  C   UNL     1       5.549   3.992  15.171  0.00  0.00    +0.000 A 
ATOM      3  C   UNL     1       5.107   4.048  16.494  0.00  0.00    +0.000 A 
ATOM      4  C   UNL     1       5.754   4.893  17.393  0.00  0.00    +0.000 A 
ATOM      5  N   UNL     1       6.812   5.657  17.035  0.00  0.00    +0.000 NA
ATOM      6  C   UNL     1       7.239   5.584  15.748  0.00  0.00    +0.000 A 
ENDROOT
BRANCH   1   8
ATOM      7  O   UNL     1       6.715   3.890  12.667  0.00  0.00    +0.000 OA
ATOM      8  N   UNL     1       7.150   4.761  13.433  0.00  0.00    +0.000 N 
ATOM      9  O   UNL     1       7.984   5.622  13.119  0.00  0.00    +0.000 OA
ENDBRANCH   1   8
BRANCH   4  10
ATOM     10  S   UNL     1       5.213   4.948  19.090  0.00  0.00    +0.000 S 
BRANCH  10  11
ATOM     11  C   UNL     1       4.675   3.221  19.303  0.00  0.00    +0.000 C 
BRANCH  11  12
ATOM     12  C   UNL     1       3.190   3.114  19.543  0.00  0.00    +0.000 A 
ATOM     13  C   UNL     1       2.334   2.688  18.522  0.00  0.00    +0.000 A 
ATOM     14  C   UNL     1       0.978   2.576  18.790  0.00  0.00    +0.000 A 
ATOM     15  N   UNL     1       0.423   2.862  19.986  0.00  0.00    +0.000 NA
ATOM     16  C   UNL     1       1.262   3.286  20.955  0.00  0.00    +0.000 A 
ATOM     17  C   UNL     1       2.631   3.429  20.785  0.00  0.00    +0.000 A 
ENDBRANCH  11  12
ENDBRANCH  10  11
ENDBRANCH   4  10
TORSDOF 4
ENDMDL
MODEL 9
REMARK VINA RESULT:      -6.1      2.594      3.533
REMARK  Name = 
REMARK  4 active torsions:
REMARK  status: ('A' for Active; 'I' for Inactive)
REMARK    1  A    between atoms: N_2  and  C_4
REMARK    2  A    between atoms: C_7  and  S_8
REMARK    3  A    between atoms: S_8  and  C_9
REMARK    4  A    between atoms: C_9  and  C_10
REMARK                            x       y       z     vdW  Elec       q    Type
REMARK                         _______ _______ _______ _____ _____    ______ ____
ROOT
ATOM      1  C   UNL     1       6.642   5.843  17.882  0.00  0.00    +0.000 A 
ATOM      2  C   UNL     1       6.275   5.290  19.109  0.00  0.00    +0.000 A 
ATOM      3  C   UNL     1       5.306   4.284  19.128  0.00  0.00    +0.000 A 
ATOM      4  C   UNL     1       4.749   3.853  17.926  0.00  0.00    +0.000 A 
ATOM      5  N   UNL     1       5.101   4.387  16.732  0.00  0.00    +0.000 NA
ATOM      6  C   UNL     1       6.035   5.372  16.730  0.00  0.00    +0.000 A 
ENDROOT
BRANCH   1   8
ATOM      7  O   UNL     1       8.332   7.117  18.801  0.00  0.00    +0.000 OA
ATOM      8  N   UNL     1       7.642   6.897  17.796  0.00  0.00    +0.000 N 
ATOM      9  O   UNL     1       7.747   7.506  16.723  0.00  0.00    +0.000 OA
ENDBRANCH   1   8
BRANCH   4  10
ATOM     10  S   UNL     1       3.492   2.590  17.945  0.00  0.00    +0.000 S 
BRANCH  10  11
ATOM     11  C   UNL     1       2.008   3.621  17.721  0.00  0.00    +0.000 C 
BRANCH  11  12
ATOM     12  C   UNL     1       2.013   4.827  18.627  0.00  0.00    +0.000 A 
ATOM     13  C   UNL     1       2.324   6.094  18.121  0.00  0.00    +0.000 A 
ATOM     14  C   UNL     1       2.290   7.182  18.981  0.00  0.00    +0.000 A 
ATOM     15  N   UNL     1       1.979   7.095  20.291  0.00  0.00    +0.000 NA
ATOM     16  C   UNL     1       1.697   5.863  20.764  0.00  0.00    +0.000 A 
ATOM     17  C   UNL     1       1.702   4.715  19.985  0.00  0.00    +0.000 A 
ENDBRANCH  11  12
ENDBRANCH  10  11
ENDBRANCH   4  10
TORSDOF 4
ENDMDL
