MODEL 1
REMARK VINA RESULT:      -8.0      0.000      0.000
REMARK  Name = 
REMARK  6 active torsions:
REMARK  status: ('A' for Active; 'I' for Inactive)
REMARK    1  A    between atoms: C_1  and  S_2
REMARK    2  A    between atoms: S_2  and  C_5
REMARK    3  A    between atoms: N_8  and  C_9
REMARK    4  A    between atoms: C_18  and  N_19
REMARK    5  A    between atoms: N_19  and  C_20
REMARK    6  A    between atoms: C_23  and  N_24
REMARK                            x       y       z     vdW  Elec       q    Type
REMARK                         _______ _______ _______ _____ _____    ______ ____
ROOT
ATOM      1  C   UNL     1       0.617   9.341  20.442  0.00  0.00    +0.000 A 
ATOM      2  N   UNL     1       1.497   8.476  19.914  0.00  0.00    +0.000 NA
ATOM      3  C   UNL     1       1.668   8.566  18.592  0.00  0.00    +0.000 A 
ATOM      4  N   UNL     1       2.575   7.704  17.928  0.00  0.00    +0.000 N 
ATOM      5  C   UNL     1       0.961   9.487  17.837  0.00  0.00    +0.000 A 
ATOM      6  C   UNL     1       0.077  10.340  18.486  0.00  0.00    +0.000 A 
ATOM      7  N   UNL     1      -0.107  10.279  19.807  0.00  0.00    +0.000 NA
ATOM      8  H   UNL     1       3.299   8.238  17.462  0.00  0.00    +0.000 HD
ENDROOT
BRANCH   4   9
ATOM      9  C   UNL     1       3.019   6.460  18.428  0.00  0.00    +0.000 A 
ATOM     10  C   UNL     1       4.351   6.299  18.848  0.00  0.00    +0.000 A 
ATOM     11  C   UNL     1       4.809   5.075  19.335  0.00  0.00    +0.000 A 
ATOM     12  C   UNL     1       3.936   4.002  19.413  0.00  0.00    +0.000 A 
ATOM     13  F   UNL     1       4.396   2.828  19.869  0.00  0.00    +0.000 F 
ATOM     14  C   UNL     1       2.605   4.147  19.028  0.00  0.00    +0.000 A 
ATOM     15 CL   UNL     1       1.516   2.815  19.132  0.00  0.00    +0.000 Cl
ATOM     16  C   UNL     1       2.140   5.377  18.547  0.00  0.00    +0.000 A 
ENDBRANCH   4   9
BRANCH   1  18
ATOM     17  C   UNL     1      -0.453  10.743  22.621  0.00  0.00    +0.000 C 
ATOM     18  S   UNL     1       0.403   9.248  22.208  0.00  0.00    +0.000 S 
ATOM     19  O   UNL     1       1.712   9.326  22.831  0.00  0.00    +0.000 OA
ATOM     20  O   UNL     1      -0.509   8.150  22.505  0.00  0.00    +0.000 OA
ENDBRANCH   1  18
BRANCH   6  21
ATOM     21  N   UNL     1      -0.706  11.203  17.705  0.00  0.00    +0.000 N 
ATOM     22  H   UNL     1      -0.551  12.160  18.015  0.00  0.00    +0.000 HD
BRANCH  21  23
ATOM     23  C   UNL     1      -2.144  10.907  17.621  0.00  0.00    +0.000 C 
ATOM     24  C   UNL     1      -2.859  11.870  18.586  0.00  0.00    +0.000 C 
ATOM     25  C   UNL     1      -4.374  11.718  18.538  0.00  0.00    +0.000 C 
ATOM     26  C   UNL     1      -4.897  11.915  17.114  0.00  0.00    +0.000 C 
ATOM     27  C   UNL     1      -4.210  10.945  16.145  0.00  0.00    +0.000 C 
ATOM     28  C   UNL     1      -2.684  11.088  16.194  0.00  0.00    +0.000 C 
BRANCH  26  29
ATOM     29  N   UNL     1      -6.345  11.735  17.106  0.00  0.00    +0.000 NA
ATOM     30  H   UNL     1      -6.582  10.747  17.018  0.00  0.00    +0.000 HD
ATOM     31  H   UNL     1      -6.750  12.198  16.293  0.00  0.00    +0.000 HD
ENDBRANCH  26  29
ENDBRANCH  21  23
ENDBRANCH   6  21
TORSDOF 5
ENDMDL
MODEL 2
REMARK VINA RESULT:      -7.8      1.102      1.441
REMARK  Name = 
REMARK  6 active torsions:
REMARK  status: ('A' for Active; 'I' for Inactive)
REMARK    1  A    between atoms: C_1  and  S_2
REMARK    2  A    between atoms: S_2  and  C_5
REMARK    3  A    between atoms: N_8  and  C_9
REMARK    4  A    between atoms: C_18  and  N_19
REMARK    5  A    between atoms: N_19  and  C_20
REMARK    6  A    between atoms: C_23  and  N_24
REMARK                            x       y       z     vdW  Elec       q    Type
REMARK                         _______ _______ _______ _____ _____    ______ ____
ROOT
ATOM      1  C   UNL     1       0.544   9.445  20.406  0.00  0.00    +0.000 A 
ATOM      2  N   UNL     1       1.452   8.642  19.830  0.00  0.00    +0.000 NA
ATOM      3  C   UNL     1       1.603   8.798  18.512  0.00  0.00    +0.000 A 
ATOM      4  N   UNL     1       2.535   8.004  17.799  0.00  0.00    +0.000 N 
ATOM      5  C   UNL     1       0.849   9.722  17.806  0.00  0.00    +0.000 A 
ATOM      6  C   UNL     1      -0.060  10.507  18.503  0.00  0.00    +0.000 A 
ATOM      7  N   UNL     1      -0.225  10.380  19.822  0.00  0.00    +0.000 NA
ATOM      8  H   UNL     1       3.231   8.588  17.351  0.00  0.00    +0.000 HD
ENDROOT
BRANCH   4   9
ATOM      9  C   UNL     1       3.036   6.758  18.238  0.00  0.00    +0.000 A 
ATOM     10  C   UNL     1       2.183   5.646  18.339  0.00  0.00    +0.000 A 
ATOM     11  C   UNL     1       2.658   4.412  18.780  0.00  0.00    +0.000 A 
ATOM     12  C   UNL     1       3.996   4.277  19.115  0.00  0.00    +0.000 A 
ATOM     13  F   UNL     1       4.434   3.087  19.552  0.00  0.00    +0.000 F 
ATOM     14  C   UNL     1       4.865   5.358  18.996  0.00  0.00    +0.000 A 
ATOM     15 CL   UNL     1       6.530   5.189  19.408  0.00  0.00    +0.000 Cl
ATOM     16  C   UNL     1       4.392   6.597  18.546  0.00  0.00    +0.000 A 
ENDBRANCH   4   9
BRANCH   1  18
ATOM     17  C   UNL     1      -0.502  10.733  22.666  0.00  0.00    +0.000 C 
ATOM     18  S   UNL     1       0.356   9.265  22.168  0.00  0.00    +0.000 S 
ATOM     19  O   UNL     1       1.674   9.320  22.775  0.00  0.00    +0.000 OA
ATOM     20  O   UNL     1      -0.546   8.149  22.424  0.00  0.00    +0.000 OA
ENDBRANCH   1  18
BRANCH   6  21
ATOM     21  N   UNL     1      -0.887  11.372  17.770  0.00  0.00    +0.000 N 
ATOM     22  H   UNL     1      -0.754  12.322  18.108  0.00  0.00    +0.000 HD
BRANCH  21  23
ATOM     23  C   UNL     1      -2.318  11.034  17.708  0.00  0.00    +0.000 C 
ATOM     24  C   UNL     1      -3.045  11.978  18.683  0.00  0.00    +0.000 C 
ATOM     25  C   UNL     1      -4.556  11.783  18.658  0.00  0.00    +0.000 C 
ATOM     26  C   UNL     1      -5.105  11.961  17.241  0.00  0.00    +0.000 C 
ATOM     27  C   UNL     1      -4.406  11.010  16.264  0.00  0.00    +0.000 C 
ATOM     28  C   UNL     1      -2.884  11.197  16.289  0.00  0.00    +0.000 C 
BRANCH  26  29
ATOM     29  N   UNL     1      -6.548  11.740  17.256  0.00  0.00    +0.000 NA
ATOM     30  H   UNL     1      -7.046  12.627  17.198  0.00  0.00    +0.000 HD
ATOM     31  H   UNL     1      -6.827  11.315  18.141  0.00  0.00    +0.000 HD
ENDBRANCH  26  29
ENDBRANCH  21  23
ENDBRANCH   6  21
TORSDOF 5
ENDMDL
MODEL 3
REMARK VINA RESULT:      -7.7      3.124      4.173
REMARK  Name = 
REMARK  6 active torsions:
REMARK  status: ('A' for Active; 'I' for Inactive)
REMARK    1  A    between atoms: C_1  and  S_2
REMARK    2  A    between atoms: S_2  and  C_5
REMARK    3  A    between atoms: N_8  and  C_9
REMARK    4  A    between atoms: C_18  and  N_19
REMARK    5  A    between atoms: N_19  and  C_20
REMARK    6  A    between atoms: C_23  and  N_24
REMARK                            x       y       z     vdW  Elec       q    Type
REMARK                         _______ _______ _______ _____ _____    ______ ____
ROOT
ATOM      1  C   UNL     1       0.815   9.554  20.654  0.00  0.00    +0.000 A 
ATOM      2  N   UNL     1       1.352   8.422  20.174  0.00  0.00    +0.000 NA
ATOM      3  C   UNL     1       1.903   8.517  18.960  0.00  0.00    +0.000 A 
ATOM      4  N   UNL     1       2.502   7.384  18.356  0.00  0.00    +0.000 N 
ATOM      5  C   UNL     1       1.893   9.710  18.258  0.00  0.00    +0.000 A 
ATOM      6  C   UNL     1       1.314  10.825  18.851  0.00  0.00    +0.000 A 
ATOM      7  N   UNL     1       0.765  10.762  20.066  0.00  0.00    +0.000 NA
ATOM      8  H   UNL     1       3.482   7.557  18.165  0.00  0.00    +0.000 HD
ENDROOT
BRANCH   4   9
ATOM      9  C   UNL     1       2.219   6.042  18.697  0.00  0.00    +0.000 A 
ATOM     10  C   UNL     1       1.753   5.145  17.720  0.00  0.00    +0.000 A 
ATOM     11  C   UNL     1       1.459   3.821  18.041  0.00  0.00    +0.000 A 
ATOM     12  C   UNL     1       1.637   3.379  19.343  0.00  0.00    +0.000 A 
ATOM     13  F   UNL     1       1.335   2.106  19.638  0.00  0.00    +0.000 F 
ATOM     14  C   UNL     1       2.124   4.244  20.320  0.00  0.00    +0.000 A 
ATOM     15 CL   UNL     1       2.351   3.693  21.937  0.00  0.00    +0.000 Cl
ATOM     16  C   UNL     1       2.428   5.572  19.998  0.00  0.00    +0.000 A 
ENDBRANCH   4   9
BRANCH   1  18
ATOM     17  C   UNL     1      -0.909  10.893  22.413  0.00  0.00    +0.000 C 
ATOM     18  S   UNL     1       0.103   9.445  22.283  0.00  0.00    +0.000 S 
ATOM     19  O   UNL     1       1.171   9.588  23.257  0.00  0.00    +0.000 OA
ATOM     20  O   UNL     1      -0.799   8.301  22.316  0.00  0.00    +0.000 OA
ENDBRANCH   1  18
BRANCH   6  21
ATOM     21  N   UNL     1       1.222  12.005  18.097  0.00  0.00    +0.000 N 
ATOM     22  H   UNL     1       1.717  11.874  17.218  0.00  0.00    +0.000 HD
BRANCH  21  23
ATOM     23  C   UNL     1       1.643  13.251  18.755  0.00  0.00    +0.000 C 
ATOM     24  C   UNL     1       2.876  13.768  17.990  0.00  0.00    +0.000 C 
ATOM     25  C   UNL     1       3.370  15.105  18.526  0.00  0.00    +0.000 C 
ATOM     26  C   UNL     1       2.254  16.151  18.497  0.00  0.00    +0.000 C 
ATOM     27  C   UNL     1       1.028  15.659  19.275  0.00  0.00    +0.000 C 
ATOM     28  C   UNL     1       0.529  14.309  18.744  0.00  0.00    +0.000 C 
BRANCH  26  29
ATOM     29  N   UNL     1       2.760  17.407  19.043  0.00  0.00    +0.000 NA
ATOM     30  H   UNL     1       3.319  17.899  18.347  0.00  0.00    +0.000 HD
ATOM     31  H   UNL     1       3.384  17.220  19.828  0.00  0.00    +0.000 HD
ENDBRANCH  26  29
ENDBRANCH  21  23
ENDBRANCH   6  21
TORSDOF 5
ENDMDL
MODEL 4
REMARK VINA RESULT:      -7.6      4.806      8.296
REMARK  Name = 
REMARK  6 active torsions:
REMARK  status: ('A' for Active; 'I' for Inactive)
REMARK    1  A    between atoms: C_1  and  S_2
REMARK    2  A    between atoms: S_2  and  C_5
REMARK    3  A    between atoms: N_8  and  C_9
REMARK    4  A    between atoms: C_18  and  N_19
REMARK    5  A    between atoms: N_19  and  C_20
REMARK    6  A    between atoms: C_23  and  N_24
REMARK                            x       y       z     vdW  Elec       q    Type
REMARK                         _______ _______ _______ _____ _____    ______ ____
ROOT
ATOM      1  C   UNL     1       0.990   9.480  20.360  0.00  0.00    +0.000 A 
ATOM      2  N   UNL     1       1.015  10.713  19.833  0.00  0.00    +0.000 NA
ATOM      3  C   UNL     1       1.502  10.798  18.592  0.00  0.00    +0.000 A 
ATOM      4  N   UNL     1       1.574  12.052  17.935  0.00  0.00    +0.000 N 
ATOM      5  C   UNL     1       1.961   9.676  17.921  0.00  0.00    +0.000 A 
ATOM      6  C   UNL     1       1.884   8.444  18.559  0.00  0.00    +0.000 A 
ATOM      7  N   UNL     1       1.392   8.329  19.795  0.00  0.00    +0.000 NA
ATOM      8  H   UNL     1       1.025  12.041  17.084  0.00  0.00    +0.000 HD
ENDROOT
BRANCH   4   9
ATOM      9  C   UNL     1       1.586  13.305  18.587  0.00  0.00    +0.000 A 
ATOM     10  C   UNL     1       2.788  13.830  19.094  0.00  0.00    +0.000 A 
ATOM     11  C   UNL     1       2.816  15.060  19.748  0.00  0.00    +0.000 A 
ATOM     12  C   UNL     1       1.642  15.782  19.895  0.00  0.00    +0.000 A 
ATOM     13  F   UNL     1       1.684  16.956  20.541  0.00  0.00    +0.000 F 
ATOM     14  C   UNL     1       0.445  15.293  19.377  0.00  0.00    +0.000 A 
ATOM     15 CL   UNL     1      -1.014  16.193  19.554  0.00  0.00    +0.000 Cl
ATOM     16  C   UNL     1       0.416  14.062  18.712  0.00  0.00    +0.000 A 
ENDBRANCH   4   9
BRANCH   1  18
ATOM     17  C   UNL     1      -0.615  10.846  22.208  0.00  0.00    +0.000 C 
ATOM     18  S   UNL     1       0.315   9.352  22.003  0.00  0.00    +0.000 S 
ATOM     19  O   UNL     1       1.413   9.406  22.952  0.00  0.00    +0.000 OA
ATOM     20  O   UNL     1      -0.646   8.257  22.024  0.00  0.00    +0.000 OA
ENDBRANCH   1  18
BRANCH   6  21
ATOM     21  N   UNL     1       2.437   7.328  17.913  0.00  0.00    +0.000 N 
ATOM     22  H   UNL     1       1.720   6.887  17.342  0.00  0.00    +0.000 HD
BRANCH  21  23
ATOM     23  C   UNL     1       3.114   6.334  18.761  0.00  0.00    +0.000 C 
ATOM     24  C   UNL     1       2.306   5.028  18.655  0.00  0.00    +0.000 C 
ATOM     25  C   UNL     1       2.948   3.886  19.432  0.00  0.00    +0.000 C 
ATOM     26  C   UNL     1       4.388   3.655  18.972  0.00  0.00    +0.000 C 
ATOM     27  C   UNL     1       5.211   4.942  19.095  0.00  0.00    +0.000 C 
ATOM     28  C   UNL     1       4.566   6.098  18.319  0.00  0.00    +0.000 C 
BRANCH  26  29
ATOM     29  N   UNL     1       4.974   2.574  19.758  0.00  0.00    +0.000 NA
ATOM     30  H   UNL     1       4.744   1.669  19.349  0.00  0.00    +0.000 HD
ATOM     31  H   UNL     1       4.576   2.570  20.697  0.00  0.00    +0.000 HD
ENDBRANCH  26  29
ENDBRANCH  21  23
ENDBRANCH   6  21
TORSDOF 5
ENDMDL
MODEL 5
REMARK VINA RESULT:      -7.6      4.759      8.334
REMARK  Name = 
REMARK  6 active torsions:
REMARK  status: ('A' for Active; 'I' for Inactive)
REMARK    1  A    between atoms: C_1  and  S_2
REMARK    2  A    between atoms: S_2  and  C_5
REMARK    3  A    between atoms: N_8  and  C_9
REMARK    4  A    between atoms: C_18  and  N_19
REMARK    5  A    between atoms: N_19  and  C_20
REMARK    6  A    between atoms: C_23  and  N_24
REMARK                            x       y       z     vdW  Elec       q    Type
REMARK                         _______ _______ _______ _____ _____    ______ ____
ROOT
ATOM      1  C   UNL     1       0.972   9.481  20.370  0.00  0.00    +0.000 A 
ATOM      2  N   UNL     1       0.974  10.717  19.846  0.00  0.00    +0.000 NA
ATOM      3  C   UNL     1       1.457  10.813  18.604  0.00  0.00    +0.000 A 
ATOM      4  N   UNL     1       1.505  12.069  17.950  0.00  0.00    +0.000 N 
ATOM      5  C   UNL     1       1.932   9.701  17.929  0.00  0.00    +0.000 A 
ATOM      6  C   UNL     1       1.878   8.466  18.564  0.00  0.00    +0.000 A 
ATOM      7  N   UNL     1       1.392   8.339  19.800  0.00  0.00    +0.000 NA
ATOM      8  H   UNL     1       0.954  12.051  17.101  0.00  0.00    +0.000 HD
ENDROOT
BRANCH   4   9
ATOM      9  C   UNL     1       1.497  13.321  18.606  0.00  0.00    +0.000 A 
ATOM     10  C   UNL     1       0.296  14.032  18.763  0.00  0.00    +0.000 A 
ATOM     11  C   UNL     1       0.271  15.273  19.398  0.00  0.00    +0.000 A 
ATOM     12  C   UNL     1       1.450  15.810  19.890  0.00  0.00    +0.000 A 
ATOM     13  F   UNL     1       1.412  17.012  20.485  0.00  0.00    +0.000 F 
ATOM     14  C   UNL     1       2.648  15.110  19.770  0.00  0.00    +0.000 A 
ATOM     15 CL   UNL     1       4.113  15.775  20.388  0.00  0.00    +0.000 Cl
ATOM     16  C   UNL     1       2.674  13.860  19.140  0.00  0.00    +0.000 A 
ENDBRANCH   4   9
BRANCH   1  18
ATOM     17  C   UNL     1      -0.650  10.815  22.227  0.00  0.00    +0.000 C 
ATOM     18  S   UNL     1       0.304   9.338  22.015  0.00  0.00    +0.000 S 
ATOM     19  O   UNL     1       1.403   9.408  22.961  0.00  0.00    +0.000 OA
ATOM     20  O   UNL     1      -0.638   8.227  22.035  0.00  0.00    +0.000 OA
ENDBRANCH   1  18
BRANCH   6  21
ATOM     21  N   UNL     1       2.449   7.361  17.913  0.00  0.00    +0.000 N 
ATOM     22  H   UNL     1       1.742   6.921  17.329  0.00  0.00    +0.000 HD
BRANCH  21  23
ATOM     23  C   UNL     1       3.123   6.364  18.759  0.00  0.00    +0.000 C 
ATOM     24  C   UNL     1       2.313   5.059  18.648  0.00  0.00    +0.000 C 
ATOM     25  C   UNL     1       2.953   3.914  19.423  0.00  0.00    +0.000 C 
ATOM     26  C   UNL     1       4.393   3.682  18.964  0.00  0.00    +0.000 C 
ATOM     27  C   UNL     1       5.218   4.969  19.091  0.00  0.00    +0.000 C 
ATOM     28  C   UNL     1       4.575   6.127  18.318  0.00  0.00    +0.000 C 
BRANCH  26  29
ATOM     29  N   UNL     1       4.977   2.598  19.748  0.00  0.00    +0.000 NA
ATOM     30  H   UNL     1       4.254   2.106  20.270  0.00  0.00    +0.000 HD
ATOM     31  H   UNL     1       5.621   2.977  20.442  0.00  0.00    +0.000 HD
ENDBRANCH  26  29
ENDBRANCH  21  23
ENDBRANCH   6  21
TORSDOF 5
ENDMDL
MODEL 6
REMARK VINA RESULT:      -7.5      4.599      8.624
REMARK  Name = 
REMARK  6 active torsions:
REMARK  status: ('A' for Active; 'I' for Inactive)
REMARK    1  A    between atoms: C_1  and  S_2
REMARK    2  A    between atoms: S_2  and  C_5
REMARK    3  A    between atoms: N_8  and  C_9
REMARK    4  A    between atoms: C_18  and  N_19
REMARK    5  A    between atoms: N_19  and  C_20
REMARK    6  A    between atoms: C_23  and  N_24
REMARK                            x       y       z     vdW  Elec       q    Type
REMARK                         _______ _______ _______ _____ _____    ______ ____
ROOT
ATOM      1  C   UNL     1       2.832   4.701  19.234  0.00  0.00    +0.000 A 
ATOM      2  N   UNL     1       2.256   5.912  19.271  0.00  0.00    +0.000 NA
ATOM      3  C   UNL     1       2.880   6.866  18.573  0.00  0.00    +0.000 A 
ATOM      4  N   UNL     1       2.361   8.183  18.540  0.00  0.00    +0.000 N 
ATOM      5  C   UNL     1       4.050   6.601  17.881  0.00  0.00    +0.000 A 
ATOM      6  C   UNL     1       4.558   5.308  17.906  0.00  0.00    +0.000 A 
ATOM      7  N   UNL     1       3.950   4.333  18.586  0.00  0.00    +0.000 NA
ATOM      8  H   UNL     1       2.143   8.457  17.589  0.00  0.00    +0.000 HD
ENDROOT
BRANCH   4   9
ATOM      9  C   UNL     1       1.483   8.731  19.503  0.00  0.00    +0.000 A 
ATOM     10  C   UNL     1       1.539   8.300  20.839  0.00  0.00    +0.000 A 
ATOM     11  C   UNL     1       0.675   8.821  21.800  0.00  0.00    +0.000 A 
ATOM     12  C   UNL     1      -0.249   9.787  21.434  0.00  0.00    +0.000 A 
ATOM     13  F   UNL     1      -1.084  10.267  22.367  0.00  0.00    +0.000 F 
ATOM     14  C   UNL     1      -0.303  10.248  20.121  0.00  0.00    +0.000 A 
ATOM     15 CL   UNL     1      -1.448  11.454  19.666  0.00  0.00    +0.000 Cl
ATOM     16  C   UNL     1       0.569   9.732  19.156  0.00  0.00    +0.000 A 
ENDBRANCH   4   9
BRANCH   1  18
ATOM     17  C   UNL     1       1.689   2.159  18.925  0.00  0.00    +0.000 C 
ATOM     18  S   UNL     1       1.991   3.416  20.137  0.00  0.00    +0.000 S 
ATOM     19  O   UNL     1       0.695   3.922  20.550  0.00  0.00    +0.000 OA
ATOM     20  O   UNL     1       2.922   2.847  21.104  0.00  0.00    +0.000 OA
ENDBRANCH   1  18
BRANCH   6  21
ATOM     21  N   UNL     1       5.792   5.069  17.283  0.00  0.00    +0.000 N 
ATOM     22  H   UNL     1       6.490   5.694  17.680  0.00  0.00    +0.000 HD
BRANCH  21  23
ATOM     23  C   UNL     1       5.819   5.123  15.812  0.00  0.00    +0.000 C 
ATOM     24  C   UNL     1       7.297   5.068  15.387  0.00  0.00    +0.000 C 
ATOM     25  C   UNL     1       7.463   5.039  13.873  0.00  0.00    +0.000 C 
ATOM     26  C   UNL     1       6.694   3.867  13.263  0.00  0.00    +0.000 C 
ATOM     27  C   UNL     1       5.214   3.923  13.658  0.00  0.00    +0.000 C 
ATOM     28  C   UNL     1       5.040   3.958  15.182  0.00  0.00    +0.000 C 
BRANCH  26  29
ATOM     29  N   UNL     1       6.856   3.891  11.812  0.00  0.00    +0.000 NA
ATOM     30  H   UNL     1       7.556   4.582  11.542  0.00  0.00    +0.000 HD
ATOM     31  H   UNL     1       5.985   4.182  11.369  0.00  0.00    +0.000 HD
ENDBRANCH  26  29
ENDBRANCH  21  23
ENDBRANCH   6  21
TORSDOF 5
ENDMDL
MODEL 7
REMARK VINA RESULT:      -7.5      2.982      3.950
REMARK  Name = 
REMARK  6 active torsions:
REMARK  status: ('A' for Active; 'I' for Inactive)
REMARK    1  A    between atoms: C_1  and  S_2
REMARK    2  A    between atoms: S_2  and  C_5
REMARK    3  A    between atoms: N_8  and  C_9
REMARK    4  A    between atoms: C_18  and  N_19
REMARK    5  A    between atoms: N_19  and  C_20
REMARK    6  A    between atoms: C_23  and  N_24
REMARK                            x       y       z     vdW  Elec       q    Type
REMARK                         _______ _______ _______ _____ _____    ______ ____
ROOT
ATOM      1  C   UNL     1       0.736   9.607  20.862  0.00  0.00    +0.000 A 
ATOM      2  N   UNL     1       1.330   8.490  20.416  0.00  0.00    +0.000 NA
ATOM      3  C   UNL     1       1.845   8.566  19.185  0.00  0.00    +0.000 A 
ATOM      4  N   UNL     1       2.498   7.447  18.613  0.00  0.00    +0.000 N 
ATOM      5  C   UNL     1       1.745   9.726  18.434  0.00  0.00    +0.000 A 
ATOM      6  C   UNL     1       1.112  10.827  18.996  0.00  0.00    +0.000 A 
ATOM      7  N   UNL     1       0.597  10.783  20.227  0.00  0.00    +0.000 NA
ATOM      8  H   UNL     1       3.460   7.671  18.389  0.00  0.00    +0.000 HD
ENDROOT
BRANCH   4   9
ATOM      9  C   UNL     1       2.306   6.106  19.016  0.00  0.00    +0.000 A 
ATOM     10  C   UNL     1       1.959   5.808  20.345  0.00  0.00    +0.000 A 
ATOM     11  C   UNL     1       1.776   4.491  20.763  0.00  0.00    +0.000 A 
ATOM     12  C   UNL     1       1.930   3.459  19.852  0.00  0.00    +0.000 A 
ATOM     13  F   UNL     1       1.765   2.196  20.273  0.00  0.00    +0.000 F 
ATOM     14  C   UNL     1       2.246   3.733  18.523  0.00  0.00    +0.000 A 
ATOM     15 CL   UNL     1       2.431   2.450  17.387  0.00  0.00    +0.000 Cl
ATOM     16  C   UNL     1       2.422   5.056  18.099  0.00  0.00    +0.000 A 
ENDBRANCH   4   9
BRANCH   1  18
ATOM     17  C   UNL     1      -0.889  11.006  22.669  0.00  0.00    +0.000 C 
ATOM     18  S   UNL     1       0.071   9.525  22.513  0.00  0.00    +0.000 S 
ATOM     19  O   UNL     1       1.172   9.637  23.454  0.00  0.00    +0.000 OA
ATOM     20  O   UNL     1      -0.866   8.412  22.578  0.00  0.00    +0.000 OA
ENDBRANCH   1  18
BRANCH   6  21
ATOM     21  N   UNL     1       0.929  11.966  18.196  0.00  0.00    +0.000 N 
ATOM     22  H   UNL     1       1.411  11.828  17.310  0.00  0.00    +0.000 HD
BRANCH  21  23
ATOM     23  C   UNL     1       1.289  13.263  18.790  0.00  0.00    +0.000 C 
ATOM     24  C   UNL     1       2.572  13.740  18.087  0.00  0.00    +0.000 C 
ATOM     25  C   UNL     1       3.013  15.119  18.559  0.00  0.00    +0.000 C 
ATOM     26  C   UNL     1       1.894  16.144  18.366  0.00  0.00    +0.000 C 
ATOM     27  C   UNL     1       0.616  15.694  19.083  0.00  0.00    +0.000 C 
ATOM     28  C   UNL     1       0.170  14.302  18.616  0.00  0.00    +0.000 C 
BRANCH  26  29
ATOM     29  N   UNL     1       2.346  17.443  18.856  0.00  0.00    +0.000 NA
ATOM     30  H   UNL     1       2.886  17.334  19.713  0.00  0.00    +0.000 HD
ATOM     31  H   UNL     1       1.543  18.023  19.098  0.00  0.00    +0.000 HD
ENDBRANCH  26  29
ENDBRANCH  21  23
ENDBRANCH   6  21
TORSDOF 5
ENDMDL
MODEL 8
REMARK VINA RESULT:      -7.5      4.821      8.354
REMARK  Name = 
REMARK  6 active torsions:
REMARK  status: ('A' for Active; 'I' for Inactive)
REMARK    1  A    between atoms: C_1  and  S_2
REMARK    2  A    between atoms: S_2  and  C_5
REMARK    3  A    between atoms: N_8  and  C_9
REMARK    4  A    between atoms: C_18  and  N_19
REMARK    5  A    between atoms: N_19  and  C_20
REMARK    6  A    between atoms: C_23  and  N_24
REMARK                            x       y       z     vdW  Elec       q    Type
REMARK                         _______ _______ _______ _____ _____    ______ ____
ROOT
ATOM      1  C   UNL     1       1.046   9.371  20.375  0.00  0.00    +0.000 A 
ATOM      2  N   UNL     1       1.143  10.566  19.772  0.00  0.00    +0.000 NA
ATOM      3  C   UNL     1       1.652  10.548  18.537  0.00  0.00    +0.000 A 
ATOM      4  N   UNL     1       1.799  11.752  17.805  0.00  0.00    +0.000 N 
ATOM      5  C   UNL     1       2.060   9.363  17.946  0.00  0.00    +0.000 A 
ATOM      6  C   UNL     1       1.910   8.180  18.658  0.00  0.00    +0.000 A 
ATOM      7  N   UNL     1       1.396   8.168  19.890  0.00  0.00    +0.000 NA
ATOM      8  H   UNL     1       1.262  11.715  16.947  0.00  0.00    +0.000 HD
ENDROOT
BRANCH   4   9
ATOM      9  C   UNL     1       1.868  13.041  18.378  0.00  0.00    +0.000 A 
ATOM     10  C   UNL     1       3.110  13.597  18.729  0.00  0.00    +0.000 A 
ATOM     11  C   UNL     1       3.195  14.864  19.304  0.00  0.00    +0.000 A 
ATOM     12  C   UNL     1       2.037  15.591  19.526  0.00  0.00    +0.000 A 
ATOM     13  F   UNL     1       2.135  16.802  20.095  0.00  0.00    +0.000 F 
ATOM     14  C   UNL     1       0.798  15.071  19.161  0.00  0.00    +0.000 A 
ATOM     15 CL   UNL     1      -0.643  15.978  19.431  0.00  0.00    +0.000 Cl
ATOM     16  C   UNL     1       0.710  13.803  18.575  0.00  0.00    +0.000 A 
ENDBRANCH   4   9
BRANCH   1  18
ATOM     17  C   UNL     1      -0.517  10.929  22.104  0.00  0.00    +0.000 C 
ATOM     18  S   UNL     1       0.343   9.383  22.011  0.00  0.00    +0.000 S 
ATOM     19  O   UNL     1       1.428   9.446  22.974  0.00  0.00    +0.000 OA
ATOM     20  O   UNL     1      -0.670   8.338  22.085  0.00  0.00    +0.000 OA
ENDBRANCH   1  18
BRANCH   6  21
ATOM     21  N   UNL     1       2.413   6.998  18.092  0.00  0.00    +0.000 N 
ATOM     22  H   UNL     1       1.846   6.214  18.407  0.00  0.00    +0.000 HD
BRANCH  21  23
ATOM     23  C   UNL     1       3.845   6.721  18.290  0.00  0.00    +0.000 C 
ATOM     24  C   UNL     1       3.944   5.360  19.002  0.00  0.00    +0.000 C 
ATOM     25  C   UNL     1       5.388   4.915  19.200  0.00  0.00    +0.000 C 
ATOM     26  C   UNL     1       6.131   4.867  17.864  0.00  0.00    +0.000 C 
ATOM     27  C   UNL     1       6.060   6.224  17.154  0.00  0.00    +0.000 C 
ATOM     28  C   UNL     1       4.609   6.680  16.958  0.00  0.00    +0.000 C 
BRANCH  26  29
ATOM     29  N   UNL     1       7.514   4.464  18.100  0.00  0.00    +0.000 NA
ATOM     30  H   UNL     1       8.129   4.865  17.393  0.00  0.00    +0.000 HD
ATOM     31  H   UNL     1       7.603   3.452  18.012  0.00  0.00    +0.000 HD
ENDBRANCH  26  29
ENDBRANCH  21  23
ENDBRANCH   6  21
TORSDOF 5
ENDMDL
MODEL 9
REMARK VINA RESULT:      -7.4      4.706      8.154
REMARK  Name = 
REMARK  6 active torsions:
REMARK  status: ('A' for Active; 'I' for Inactive)
REMARK    1  A    between atoms: C_1  and  S_2
REMARK    2  A    between atoms: S_2  and  C_5
REMARK    3  A    between atoms: N_8  and  C_9
REMARK    4  A    between atoms: C_18  and  N_19
REMARK    5  A    between atoms: N_19  and  C_20
REMARK    6  A    between atoms: C_23  and  N_24
REMARK                            x       y       z     vdW  Elec       q    Type
REMARK                         _______ _______ _______ _____ _____    ______ ____
ROOT
ATOM      1  C   UNL     1       0.972   9.419  20.506  0.00  0.00    +0.000 A 
ATOM      2  N   UNL     1       0.890  10.608  19.888  0.00  0.00    +0.000 NA
ATOM      3  C   UNL     1       1.449  10.665  18.676  0.00  0.00    +0.000 A 
ATOM      4  N   UNL     1       1.420  11.870  17.931  0.00  0.00    +0.000 N 
ATOM      5  C   UNL     1       2.080   9.563  18.123  0.00  0.00    +0.000 A 
ATOM      6  C   UNL     1       2.103   8.378  18.848  0.00  0.00    +0.000 A 
ATOM      7  N   UNL     1       1.543   8.289  20.057  0.00  0.00    +0.000 NA
ATOM      8  H   UNL     1       0.937  11.734  17.052  0.00  0.00    +0.000 HD
ENDROOT
BRANCH   4   9
ATOM      9  C   UNL     1       1.241  13.157  18.485  0.00  0.00    +0.000 A 
ATOM     10  C   UNL     1      -0.042  13.724  18.562  0.00  0.00    +0.000 A 
ATOM     11  C   UNL     1      -0.236  14.997  19.096  0.00  0.00    +0.000 A 
ATOM     12  C   UNL     1       0.854  15.713  19.566  0.00  0.00    +0.000 A 
ATOM     13  F   UNL     1       0.653  16.942  20.062  0.00  0.00    +0.000 F 
ATOM     14  C   UNL     1       2.131  15.159  19.524  0.00  0.00    +0.000 A 
ATOM     15 CL   UNL     1       3.487  16.045  20.114  0.00  0.00    +0.000 Cl
ATOM     16  C   UNL     1       2.327  13.877  18.996  0.00  0.00    +0.000 A 
ENDBRANCH   4   9
BRANCH   1  18
ATOM     17  C   UNL     1      -0.748  10.815  22.225  0.00  0.00    +0.000 C 
ATOM     18  S   UNL     1       0.204   9.325  22.110  0.00  0.00    +0.000 S 
ATOM     19  O   UNL     1       1.244   9.411  23.120  0.00  0.00    +0.000 OA
ATOM     20  O   UNL     1      -0.748   8.222  22.102  0.00  0.00    +0.000 OA
ENDBRANCH   1  18
BRANCH   6  21
ATOM     21  N   UNL     1       2.825   7.295  18.324  0.00  0.00    +0.000 N 
ATOM     22  H   UNL     1       2.743   7.302  17.310  0.00  0.00    +0.000 HD
BRANCH  21  23
ATOM     23  C   UNL     1       2.514   5.962  18.865  0.00  0.00    +0.000 C 
ATOM     24  C   UNL     1       1.762   5.194  17.763  0.00  0.00    +0.000 C 
ATOM     25  C   UNL     1       1.447   3.761  18.169  0.00  0.00    +0.000 C 
ATOM     26  C   UNL     1       2.722   3.011  18.559  0.00  0.00    +0.000 C 
ATOM     27  C   UNL     1       3.469   3.753  19.673  0.00  0.00    +0.000 C 
ATOM     28  C   UNL     1       3.784   5.199  19.272  0.00  0.00    +0.000 C 
BRANCH  26  29
ATOM     29  N   UNL     1       2.373   1.653  18.967  0.00  0.00    +0.000 NA
ATOM     30  H   UNL     1       3.167   1.027  18.839  0.00  0.00    +0.000 HD
ATOM     31  H   UNL     1       1.626   1.291  18.375  0.00  0.00    +0.000 HD
ENDBRANCH  26  29
ENDBRANCH  21  23
ENDBRANCH   6  21
TORSDOF 5
ENDMDL
