MODEL 1
REMARK VINA RESULT:      -8.2      0.000      0.000
REMARK  Name = 
REMARK  7 active torsions:
REMARK  status: ('A' for Active; 'I' for Inactive)
REMARK    1  A    between atoms: C_1  and  C_2
REMARK    2  A    between atoms: C_7  and  C_8
REMARK    3  A    between atoms: C_10  and  S_11
REMARK    4  A    between atoms: S_11  and  C_14
REMARK    5  A    between atoms: C_21  and  N_22
REMARK    6  A    between atoms: N_22  and  C_23
REMARK    7  A    between atoms: C_23  and  C_24
REMARK                            x       y       z     vdW  Elec       q    Type
REMARK                         _______ _______ _______ _____ _____    ______ ____
ROOT
ATOM      1  C   UNL     1       2.689   6.641  18.971  0.00  0.00    +0.000 A 
ATOM      2  N   UNL     1       4.004   6.595  18.911  0.00  0.00    +0.000 NA
ATOM      3  C   UNL     1       4.259   5.466  18.157  0.00  0.00    +0.000 A 
ATOM      4  C   UNL     1       3.076   4.860  17.793  0.00  0.00    +0.000 A 
ATOM      5  O   UNL     1       2.059   5.613  18.320  0.00  0.00    +0.000 OA
ENDROOT
BRANCH   1  12
ATOM      6  C   UNL     1       1.954   9.144  17.559  0.00  0.00    +0.000 C 
ATOM      7  C   UNL     1       1.514   8.853  18.970  0.00  0.00    +0.000 A 
ATOM      8  C   UNL     1       0.751   9.818  19.650  0.00  0.00    +0.000 A 
ATOM      9  C   UNL     1       0.301   9.587  20.949  0.00  0.00    +0.000 A 
ATOM     10  C   UNL     1       0.597   8.385  21.583  0.00  0.00    +0.000 A 
ATOM     11  C   UNL     1       1.356   7.417  20.922  0.00  0.00    +0.000 A 
ATOM     12  C   UNL     1       1.838   7.639  19.619  0.00  0.00    +0.000 A 
ENDBRANCH   1  12
BRANCH   3  13
ATOM     13  S   UNL     1       5.850   4.984  17.720  0.00  0.00    +0.000 S 
ATOM     14  O   UNL     1       6.243   3.993  18.706  0.00  0.00    +0.000 OA
ATOM     15  O   UNL     1       5.772   4.661  16.309  0.00  0.00    +0.000 OA
BRANCH  13  16
ATOM     16  C   UNL     1       6.875   6.422  17.919  0.00  0.00    +0.000 A 
ATOM     17  C   UNL     1       6.620   7.563  17.150  0.00  0.00    +0.000 A 
ATOM     18  C   UNL     1       7.395   8.711  17.341  0.00  0.00    +0.000 A 
ATOM     19  C   UNL     1       8.407   8.714  18.302  0.00  0.00    +0.000 A 
ATOM     20 BR   UNL     1       9.443  10.275  18.564  0.00  0.00    +0.000 Br
ATOM     21  C   UNL     1       8.653   7.582  19.078  0.00  0.00    +0.000 A 
ATOM     22  C   UNL     1       7.883   6.431  18.891  0.00  0.00    +0.000 A 
ENDBRANCH  13  16
ENDBRANCH   3  13
BRANCH   4  23
ATOM     23  N   UNL     1       2.744   3.744  17.105  0.00  0.00    +0.000 N 
ATOM     24  H   UNL     1       2.081   3.833  16.334  0.00  0.00    +0.000 HD
BRANCH  23  25
ATOM     25  C   UNL     1       2.758   2.435  17.735  0.00  0.00    +0.000 C 
BRANCH  25  26
ATOM     26  C   UNL     1       2.486   2.532  19.211  0.00  0.00    +0.000 A 
ATOM     27  C   UNL     1       1.203   2.776  19.715  0.00  0.00    +0.000 A 
ATOM     28  C   UNL     1       0.997   2.820  21.092  0.00  0.00    +0.000 A 
ATOM     29  C   UNL     1       2.082   2.613  21.925  0.00  0.00    +0.000 A 
ATOM     30  N   UNL     1       3.334   2.379  21.481  0.00  0.00    +0.000 NA
ATOM     31  C   UNL     1       3.508   2.351  20.138  0.00  0.00    +0.000 A 
ENDBRANCH  25  26
ENDBRANCH  23  25
ENDBRANCH   4  23
TORSDOF 6
ENDMDL
MODEL 2
REMARK VINA RESULT:      -8.1      3.192      3.919
REMARK  Name = 
REMARK  7 active torsions:
REMARK  status: ('A' for Active; 'I' for Inactive)
REMARK    1  A    between atoms: C_1  and  C_2
REMARK    2  A    between atoms: C_7  and  C_8
REMARK    3  A    between atoms: C_10  and  S_11
REMARK    4  A    between atoms: S_11  and  C_14
REMARK    5  A    between atoms: C_21  and  N_22
REMARK    6  A    between atoms: N_22  and  C_23
REMARK    7  A    between atoms: C_23  and  C_24
REMARK                            x       y       z     vdW  Elec       q    Type
REMARK                         _______ _______ _______ _____ _____    ______ ____
ROOT
ATOM      1  C   UNL     1       3.978   6.835  18.290  0.00  0.00    +0.000 A 
ATOM      2  N   UNL     1       5.026   7.020  17.512  0.00  0.00    +0.000 NA
ATOM      3  C   UNL     1       5.700   5.816  17.578  0.00  0.00    +0.000 A 
ATOM      4  C   UNL     1       5.033   4.942  18.408  0.00  0.00    +0.000 A 
ATOM      5  O   UNL     1       3.923   5.597  18.874  0.00  0.00    +0.000 OA
ENDROOT
BRANCH   1  12
ATOM      6  C   UNL     1       2.297   6.457  20.705  0.00  0.00    +0.000 C 
ATOM      7  C   UNL     1       2.053   7.567  19.716  0.00  0.00    +0.000 A 
ATOM      8  C   UNL     1       0.970   8.436  19.932  0.00  0.00    +0.000 A 
ATOM      9  C   UNL     1       0.716   9.491  19.058  0.00  0.00    +0.000 A 
ATOM     10  C   UNL     1       1.545   9.699  17.961  0.00  0.00    +0.000 A 
ATOM     11  C   UNL     1       2.624   8.843  17.730  0.00  0.00    +0.000 A 
ATOM     12  C   UNL     1       2.886   7.760  18.588  0.00  0.00    +0.000 A 
ENDBRANCH   1  12
BRANCH   3  13
ATOM     13  S   UNL     1       7.127   5.505  16.672  0.00  0.00    +0.000 S 
ATOM     14  O   UNL     1       7.705   6.808  16.391  0.00  0.00    +0.000 OA
ATOM     15  O   UNL     1       7.848   4.505  17.436  0.00  0.00    +0.000 OA
BRANCH  13  16
ATOM     16  C   UNL     1       6.594   4.776  15.142  0.00  0.00    +0.000 A 
ATOM     17  C   UNL     1       7.440   4.812  14.028  0.00  0.00    +0.000 A 
ATOM     18  C   UNL     1       7.041   4.195  12.838  0.00  0.00    +0.000 A 
ATOM     19  C   UNL     1       5.810   3.542  12.774  0.00  0.00    +0.000 A 
ATOM     20 BR   UNL     1       5.282   2.699  11.165  0.00  0.00    +0.000 Br
ATOM     21  C   UNL     1       4.971   3.495  13.887  0.00  0.00    +0.000 A 
ATOM     22  C   UNL     1       5.364   4.110  15.079  0.00  0.00    +0.000 A 
ENDBRANCH  13  16
ENDBRANCH   3  13
BRANCH   4  23
ATOM     23  N   UNL     1       5.253   3.681  18.847  0.00  0.00    +0.000 N 
ATOM     24  H   UNL     1       6.217   3.350  18.892  0.00  0.00    +0.000 HD
BRANCH  23  25
ATOM     25  C   UNL     1       4.267   2.631  18.660  0.00  0.00    +0.000 C 
BRANCH  25  26
ATOM     26  C   UNL     1       3.162   2.727  19.678  0.00  0.00    +0.000 A 
ATOM     27  C   UNL     1       1.830   2.940  19.309  0.00  0.00    +0.000 A 
ATOM     28  C   UNL     1       0.839   2.984  20.286  0.00  0.00    +0.000 A 
ATOM     29  C   UNL     1       1.211   2.808  21.608  0.00  0.00    +0.000 A 
ATOM     30  N   UNL     1       2.484   2.605  22.006  0.00  0.00    +0.000 NA
ATOM     31  C   UNL     1       3.429   2.576  21.036  0.00  0.00    +0.000 A 
ENDBRANCH  25  26
ENDBRANCH  23  25
ENDBRANCH   4  23
TORSDOF 6
ENDMDL
MODEL 3
REMARK VINA RESULT:      -8.0      2.531      3.238
REMARK  Name = 
REMARK  7 active torsions:
REMARK  status: ('A' for Active; 'I' for Inactive)
REMARK    1  A    between atoms: C_1  and  C_2
REMARK    2  A    between atoms: C_7  and  C_8
REMARK    3  A    between atoms: C_10  and  S_11
REMARK    4  A    between atoms: S_11  and  C_14
REMARK    5  A    between atoms: C_21  and  N_22
REMARK    6  A    between atoms: N_22  and  C_23
REMARK    7  A    between atoms: C_23  and  C_24
REMARK                            x       y       z     vdW  Elec       q    Type
REMARK                         _______ _______ _______ _____ _____    ______ ____
ROOT
ATOM      1  C   UNL     1       2.915   7.041  18.446  0.00  0.00    +0.000 A 
ATOM      2  N   UNL     1       4.220   6.920  18.580  0.00  0.00    +0.000 NA
ATOM      3  C   UNL     1       4.483   5.651  18.104  0.00  0.00    +0.000 A 
ATOM      4  C   UNL     1       3.315   5.042  17.702  0.00  0.00    +0.000 A 
ATOM      5  O   UNL     1       2.298   5.933  17.926  0.00  0.00    +0.000 OA
ENDROOT
BRANCH   1  12
ATOM      6  C   UNL     1       1.558   7.236  21.077  0.00  0.00    +0.000 C 
ATOM      7  C   UNL     1       1.382   8.272  19.998  0.00  0.00    +0.000 A 
ATOM      8  C   UNL     1       0.519   9.355  20.238  0.00  0.00    +0.000 A 
ATOM      9  C   UNL     1       0.339  10.351  19.280  0.00  0.00    +0.000 A 
ATOM     10  C   UNL     1       1.026  10.285  18.073  0.00  0.00    +0.000 A 
ATOM     11  C   UNL     1       1.885   9.214  17.816  0.00  0.00    +0.000 A 
ATOM     12  C   UNL     1       2.065   8.188  18.761  0.00  0.00    +0.000 A 
ENDBRANCH   1  12
BRANCH   3  13
ATOM     13  S   UNL     1       6.077   5.015  17.997  0.00  0.00    +0.000 S 
ATOM     14  O   UNL     1       6.957   6.093  18.413  0.00  0.00    +0.000 OA
ATOM     15  O   UNL     1       6.029   3.755  18.712  0.00  0.00    +0.000 OA
BRANCH  13  16
ATOM     16  C   UNL     1       6.362   4.681  16.275  0.00  0.00    +0.000 A 
ATOM     17  C   UNL     1       5.719   3.596  15.666  0.00  0.00    +0.000 A 
ATOM     18  C   UNL     1       5.905   3.363  14.300  0.00  0.00    +0.000 A 
ATOM     19  C   UNL     1       6.718   4.216  13.554  0.00  0.00    +0.000 A 
ATOM     20 BR   UNL     1       6.954   3.901  11.704  0.00  0.00    +0.000 Br
ATOM     21  C   UNL     1       7.348   5.304  14.156  0.00  0.00    +0.000 A 
ATOM     22  C   UNL     1       7.168   5.543  15.521  0.00  0.00    +0.000 A 
ENDBRANCH  13  16
ENDBRANCH   3  13
BRANCH   4  23
ATOM     23  N   UNL     1       2.991   3.826  17.205  0.00  0.00    +0.000 N 
ATOM     24  H   UNL     1       2.222   3.769  16.536  0.00  0.00    +0.000 HD
BRANCH  23  25
ATOM     25  C   UNL     1       3.209   2.611  17.972  0.00  0.00    +0.000 C 
BRANCH  25  26
ATOM     26  C   UNL     1       2.604   2.713  19.346  0.00  0.00    +0.000 A 
ATOM     27  C   UNL     1       1.241   2.964  19.540  0.00  0.00    +0.000 A 
ATOM     28  C   UNL     1       0.722   3.012  20.831  0.00  0.00    +0.000 A 
ATOM     29  C   UNL     1       1.584   2.803  21.893  0.00  0.00    +0.000 A 
ATOM     30  N   UNL     1       2.904   2.563  21.750  0.00  0.00    +0.000 NA
ATOM     31  C   UNL     1       3.383   2.531  20.484  0.00  0.00    +0.000 A 
ENDBRANCH  25  26
ENDBRANCH  23  25
ENDBRANCH   4  23
TORSDOF 6
ENDMDL
MODEL 4
REMARK VINA RESULT:      -7.7      3.067      3.934
REMARK  Name = 
REMARK  7 active torsions:
REMARK  status: ('A' for Active; 'I' for Inactive)
REMARK    1  A    between atoms: C_1  and  C_2
REMARK    2  A    between atoms: C_7  and  C_8
REMARK    3  A    between atoms: C_10  and  S_11
REMARK    4  A    between atoms: S_11  and  C_14
REMARK    5  A    between atoms: C_21  and  N_22
REMARK    6  A    between atoms: N_22  and  C_23
REMARK    7  A    between atoms: C_23  and  C_24
REMARK                            x       y       z     vdW  Elec       q    Type
REMARK                         _______ _______ _______ _____ _____    ______ ____
ROOT
ATOM      1  C   UNL     1       3.854   6.975  18.479  0.00  0.00    +0.000 A 
ATOM      2  N   UNL     1       4.890   7.081  17.673  0.00  0.00    +0.000 NA
ATOM      3  C   UNL     1       5.616   5.933  17.918  0.00  0.00    +0.000 A 
ATOM      4  C   UNL     1       4.991   5.171  18.881  0.00  0.00    +0.000 A 
ATOM      5  O   UNL     1       3.854   5.842  19.250  0.00  0.00    +0.000 OA
ENDROOT
BRANCH   1  12
ATOM      6  C   UNL     1       2.069   6.766  20.840  0.00  0.00    +0.000 C 
ATOM      7  C   UNL     1       1.841   7.771  19.741  0.00  0.00    +0.000 A 
ATOM      8  C   UNL     1       0.725   8.621  19.826  0.00  0.00    +0.000 A 
ATOM      9  C   UNL     1       0.483   9.582  18.846  0.00  0.00    +0.000 A 
ATOM     10  C   UNL     1       1.358   9.716  17.774  0.00  0.00    +0.000 A 
ATOM     11  C   UNL     1       2.471   8.878  17.673  0.00  0.00    +0.000 A 
ATOM     12  C   UNL     1       2.722   7.888  18.640  0.00  0.00    +0.000 A 
ENDBRANCH   1  12
BRANCH   3  13
ATOM     13  S   UNL     1       7.054   5.546  17.059  0.00  0.00    +0.000 S 
ATOM     14  O   UNL     1       7.709   6.817  16.801  0.00  0.00    +0.000 OA
ATOM     15  O   UNL     1       7.694   4.508  17.844  0.00  0.00    +0.000 OA
BRANCH  13  16
ATOM     16  C   UNL     1       6.533   4.849  15.511  0.00  0.00    +0.000 A 
ATOM     17  C   UNL     1       7.354   4.975  14.385  0.00  0.00    +0.000 A 
ATOM     18  C   UNL     1       6.967   4.384  13.178  0.00  0.00    +0.000 A 
ATOM     19  C   UNL     1       5.773   3.666  13.108  0.00  0.00    +0.000 A 
ATOM     20 BR   UNL     1       5.262   2.858  11.476  0.00  0.00    +0.000 Br
ATOM     21  C   UNL     1       4.959   3.528  14.233  0.00  0.00    +0.000 A 
ATOM     22  C   UNL     1       5.340   4.117  15.442  0.00  0.00    +0.000 A 
ENDBRANCH  13  16
ENDBRANCH   3  13
BRANCH   4  23
ATOM     23  N   UNL     1       5.268   4.005  19.509  0.00  0.00    +0.000 N 
ATOM     24  H   UNL     1       6.180   3.905  19.955  0.00  0.00    +0.000 HD
BRANCH  23  25
ATOM     25  C   UNL     1       4.669   2.753  19.079  0.00  0.00    +0.000 C 
BRANCH  25  26
ATOM     26  C   UNL     1       3.178   2.760  19.277  0.00  0.00    +0.000 A 
ATOM     27  C   UNL     1       2.598   2.873  20.545  0.00  0.00    +0.000 A 
ATOM     28  C   UNL     1       1.212   2.913  20.673  0.00  0.00    +0.000 A 
ATOM     29  C   UNL     1       0.445   2.841  19.523  0.00  0.00    +0.000 A 
ATOM     30  N   UNL     1       0.964   2.727  18.283  0.00  0.00    +0.000 NA
ATOM     31  C   UNL     1       2.314   2.682  18.189  0.00  0.00    +0.000 A 
ENDBRANCH  25  26
ENDBRANCH  23  25
ENDBRANCH   4  23
TORSDOF 6
ENDMDL
MODEL 5
REMARK VINA RESULT:      -7.6      6.488     10.217
REMARK  Name = 
REMARK  7 active torsions:
REMARK  status: ('A' for Active; 'I' for Inactive)
REMARK    1  A    between atoms: C_1  and  C_2
REMARK    2  A    between atoms: C_7  and  C_8
REMARK    3  A    between atoms: C_10  and  S_11
REMARK    4  A    between atoms: S_11  and  C_14
REMARK    5  A    between atoms: C_21  and  N_22
REMARK    6  A    between atoms: N_22  and  C_23
REMARK    7  A    between atoms: C_23  and  C_24
REMARK                            x       y       z     vdW  Elec       q    Type
REMARK                         _______ _______ _______ _____ _____    ______ ____
ROOT
ATOM      1  C   UNL     1       0.788  10.390  19.191  0.00  0.00    +0.000 A 
ATOM      2  N   UNL     1       1.034  11.356  20.052  0.00  0.00    +0.000 NA
ATOM      3  C   UNL     1       0.046  12.285  19.794  0.00  0.00    +0.000 A 
ATOM      4  C   UNL     1      -0.764  11.846  18.770  0.00  0.00    +0.000 A 
ATOM      5  O   UNL     1      -0.286  10.625  18.373  0.00  0.00    +0.000 OA
ENDROOT
BRANCH   1  12
ATOM      6  C   UNL     1       0.789   8.349  21.344  0.00  0.00    +0.000 C 
ATOM      7  C   UNL     1       1.534   8.157  20.049  0.00  0.00    +0.000 A 
ATOM      8  C   UNL     1       2.279   6.980  19.868  0.00  0.00    +0.000 A 
ATOM      9  C   UNL     1       2.968   6.746  18.678  0.00  0.00    +0.000 A 
ATOM     10  C   UNL     1       2.913   7.679  17.649  0.00  0.00    +0.000 A 
ATOM     11  C   UNL     1       2.178   8.856  17.813  0.00  0.00    +0.000 A 
ATOM     12  C   UNL     1       1.494   9.121  19.013  0.00  0.00    +0.000 A 
ENDBRANCH   1  12
BRANCH   3  13
ATOM     13  S   UNL     1      -0.124  13.732  20.707  0.00  0.00    +0.000 S 
ATOM     14  O   UNL     1       0.978  13.730  21.653  0.00  0.00    +0.000 OA
ATOM     15  O   UNL     1      -0.276  14.784  19.721  0.00  0.00    +0.000 OA
BRANCH  13  16
ATOM     16  C   UNL     1      -1.648  13.573  21.607  0.00  0.00    +0.000 A 
ATOM     17  C   UNL     1      -2.622  14.572  21.499  0.00  0.00    +0.000 A 
ATOM     18  C   UNL     1      -3.840  14.423  22.168  0.00  0.00    +0.000 A 
ATOM     19  C   UNL     1      -4.080  13.278  22.928  0.00  0.00    +0.000 A 
ATOM     20 BR   UNL     1      -5.736  13.077  23.819  0.00  0.00    +0.000 Br
ATOM     21  C   UNL     1      -3.116  12.275  23.026  0.00  0.00    +0.000 A 
ATOM     22  C   UNL     1      -1.895  12.418  22.360  0.00  0.00    +0.000 A 
ENDBRANCH  13  16
ENDBRANCH   3  13
BRANCH   4  23
ATOM     23  N   UNL     1      -1.829  12.354  18.107  0.00  0.00    +0.000 N 
ATOM     24  H   UNL     1      -2.188  13.263  18.398  0.00  0.00    +0.000 HD
BRANCH  23  25
ATOM     25  C   UNL     1      -2.820  11.487  17.491  0.00  0.00    +0.000 C 
BRANCH  25  26
ATOM     26  C   UNL     1      -4.209  11.812  17.970  0.00  0.00    +0.000 A 
ATOM     27  C   UNL     1      -4.489  12.061  19.318  0.00  0.00    +0.000 A 
ATOM     28  C   UNL     1      -5.784  12.394  19.706  0.00  0.00    +0.000 A 
ATOM     29  C   UNL     1      -6.762  12.472  18.730  0.00  0.00    +0.000 A 
ATOM     30  N   UNL     1      -6.535  12.236  17.421  0.00  0.00    +0.000 NA
ATOM     31  C   UNL     1      -5.269  11.905  17.073  0.00  0.00    +0.000 A 
ENDBRANCH  25  26
ENDBRANCH  23  25
ENDBRANCH   4  23
TORSDOF 6
ENDMDL
MODEL 6
REMARK VINA RESULT:      -7.6      6.020      9.774
REMARK  Name = 
REMARK  7 active torsions:
REMARK  status: ('A' for Active; 'I' for Inactive)
REMARK    1  A    between atoms: C_1  and  C_2
REMARK    2  A    between atoms: C_7  and  C_8
REMARK    3  A    between atoms: C_10  and  S_11
REMARK    4  A    between atoms: S_11  and  C_14
REMARK    5  A    between atoms: C_21  and  N_22
REMARK    6  A    between atoms: N_22  and  C_23
REMARK    7  A    between atoms: C_23  and  C_24
REMARK                            x       y       z     vdW  Elec       q    Type
REMARK                         _______ _______ _______ _____ _____    ______ ____
ROOT
ATOM      1  C   UNL     1       1.205   9.845  18.966  0.00  0.00    +0.000 A 
ATOM      2  N   UNL     1       1.442  10.846  19.790  0.00  0.00    +0.000 NA
ATOM      3  C   UNL     1       0.453  11.761  19.488  0.00  0.00    +0.000 A 
ATOM      4  C   UNL     1      -0.349  11.278  18.477  0.00  0.00    +0.000 A 
ATOM      5  O   UNL     1       0.135  10.044  18.133  0.00  0.00    +0.000 OA
ENDROOT
BRANCH   1  12
ATOM      6  C   UNL     1       1.079   7.831  21.142  0.00  0.00    +0.000 C 
ATOM      7  C   UNL     1       1.895   7.622  19.892  0.00  0.00    +0.000 A 
ATOM      8  C   UNL     1       2.646   6.441  19.768  0.00  0.00    +0.000 A 
ATOM      9  C   UNL     1       3.399   6.190  18.623  0.00  0.00    +0.000 A 
ATOM     10  C   UNL     1       3.405   7.111  17.581  0.00  0.00    +0.000 A 
ATOM     11  C   UNL     1       2.666   8.291  17.689  0.00  0.00    +0.000 A 
ATOM     12  C   UNL     1       1.916   8.572  18.845  0.00  0.00    +0.000 A 
ENDBRANCH   1  12
BRANCH   3  13
ATOM     13  S   UNL     1       0.272  13.243  20.341  0.00  0.00    +0.000 S 
ATOM     14  O   UNL     1       1.495  13.404  21.108  0.00  0.00    +0.000 OA
ATOM     15  O   UNL     1      -0.126  14.209  19.336  0.00  0.00    +0.000 OA
BRANCH  13  16
ATOM     16  C   UNL     1      -1.081  13.003  21.467  0.00  0.00    +0.000 A 
ATOM     17  C   UNL     1      -1.137  11.839  22.242  0.00  0.00    +0.000 A 
ATOM     18  C   UNL     1      -2.175  11.673  23.164  0.00  0.00    +0.000 A 
ATOM     19  C   UNL     1      -3.139  12.671  23.312  0.00  0.00    +0.000 A 
ATOM     20 BR   UNL     1      -4.532  12.445  24.571  0.00  0.00    +0.000 Br
ATOM     21  C   UNL     1      -3.077  13.837  22.550  0.00  0.00    +0.000 A 
ATOM     22  C   UNL     1      -2.042  14.009  21.626  0.00  0.00    +0.000 A 
ENDBRANCH  13  16
ENDBRANCH   3  13
BRANCH   4  23
ATOM     23  N   UNL     1      -1.411  11.755  17.787  0.00  0.00    +0.000 N 
ATOM     24  H   UNL     1      -1.620  12.751  17.855  0.00  0.00    +0.000 HD
BRANCH  23  25
ATOM     25  C   UNL     1      -2.564  10.918  17.500  0.00  0.00    +0.000 C 
BRANCH  25  26
ATOM     26  C   UNL     1      -3.846  11.583  17.924  0.00  0.00    +0.000 A 
ATOM     27  C   UNL     1      -4.055  12.022  19.236  0.00  0.00    +0.000 A 
ATOM     28  C   UNL     1      -5.244  12.666  19.569  0.00  0.00    +0.000 A 
ATOM     29  C   UNL     1      -6.189  12.854  18.576  0.00  0.00    +0.000 A 
ATOM     30  N   UNL     1      -6.028  12.443  17.301  0.00  0.00    +0.000 NA
ATOM     31  C   UNL     1      -4.867  11.812  17.007  0.00  0.00    +0.000 A 
ENDBRANCH  25  26
ENDBRANCH  23  25
ENDBRANCH   4  23
TORSDOF 6
ENDMDL
MODEL 7
REMARK VINA RESULT:      -7.6      2.393      2.933
REMARK  Name = 
REMARK  7 active torsions:
REMARK  status: ('A' for Active; 'I' for Inactive)
REMARK    1  A    between atoms: C_1  and  C_2
REMARK    2  A    between atoms: C_7  and  C_8
REMARK    3  A    between atoms: C_10  and  S_11
REMARK    4  A    between atoms: S_11  and  C_14
REMARK    5  A    between atoms: C_21  and  N_22
REMARK    6  A    between atoms: N_22  and  C_23
REMARK    7  A    between atoms: C_23  and  C_24
REMARK                            x       y       z     vdW  Elec       q    Type
REMARK                         _______ _______ _______ _____ _____    ______ ____
ROOT
ATOM      1  C   UNL     1       2.723   6.736  19.163  0.00  0.00    +0.000 A 
ATOM      2  N   UNL     1       4.021   6.573  19.324  0.00  0.00    +0.000 NA
ATOM      3  C   UNL     1       4.310   5.461  18.558  0.00  0.00    +0.000 A 
ATOM      4  C   UNL     1       3.164   4.982  17.963  0.00  0.00    +0.000 A 
ATOM      5  O   UNL     1       2.135   5.798  18.354  0.00  0.00    +0.000 OA
ENDROOT
BRANCH   1  12
ATOM      6  C   UNL     1       2.076   9.160  17.579  0.00  0.00    +0.000 C 
ATOM      7  C   UNL     1       1.573   8.954  18.984  0.00  0.00    +0.000 A 
ATOM      8  C   UNL     1       0.792   9.962  19.575  0.00  0.00    +0.000 A 
ATOM      9  C   UNL     1       0.285   9.810  20.864  0.00  0.00    +0.000 A 
ATOM     10  C   UNL     1       0.541   8.644  21.577  0.00  0.00    +0.000 A 
ATOM     11  C   UNL     1       1.317   7.633  21.007  0.00  0.00    +0.000 A 
ATOM     12  C   UNL     1       1.856   7.776  19.715  0.00  0.00    +0.000 A 
ENDBRANCH   1  12
BRANCH   3  13
ATOM     13  S   UNL     1       5.909   4.858  18.370  0.00  0.00    +0.000 S 
ATOM     14  O   UNL     1       6.783   5.898  18.885  0.00  0.00    +0.000 OA
ATOM     15  O   UNL     1       5.882   3.531  18.954  0.00  0.00    +0.000 OA
BRANCH  13  16
ATOM     16  C   UNL     1       6.177   4.704  16.620  0.00  0.00    +0.000 A 
ATOM     17  C   UNL     1       6.951   5.661  15.953  0.00  0.00    +0.000 A 
ATOM     18  C   UNL     1       7.203   5.513  14.586  0.00  0.00    +0.000 A 
ATOM     19  C   UNL     1       6.691   4.411  13.900  0.00  0.00    +0.000 A 
ATOM     20 BR   UNL     1       7.047   4.211  12.053  0.00  0.00    +0.000 Br
ATOM     21  C   UNL     1       5.930   3.451  14.566  0.00  0.00    +0.000 A 
ATOM     22  C   UNL     1       5.674   3.593  15.933  0.00  0.00    +0.000 A 
ENDBRANCH  13  16
ENDBRANCH   3  13
BRANCH   4  23
ATOM     23  N   UNL     1       2.867   3.932  17.163  0.00  0.00    +0.000 N 
ATOM     24  H   UNL     1       2.316   4.108  16.322  0.00  0.00    +0.000 HD
BRANCH  23  25
ATOM     25  C   UNL     1       2.732   2.588  17.697  0.00  0.00    +0.000 C 
BRANCH  25  26
ATOM     26  C   UNL     1       2.304   2.610  19.140  0.00  0.00    +0.000 A 
ATOM     27  C   UNL     1       3.212   2.415  20.186  0.00  0.00    +0.000 A 
ATOM     28  C   UNL     1       2.773   2.482  21.506  0.00  0.00    +0.000 A 
ATOM     29  C   UNL     1       1.435   2.747  21.740  0.00  0.00    +0.000 A 
ATOM     30  N   UNL     1       0.527   2.937  20.760  0.00  0.00    +0.000 NA
ATOM     31  C   UNL     1       0.979   2.857  19.487  0.00  0.00    +0.000 A 
ENDBRANCH  25  26
ENDBRANCH  23  25
ENDBRANCH   4  23
TORSDOF 6
ENDMDL
MODEL 8
REMARK VINA RESULT:      -7.6      0.783      1.597
REMARK  Name = 
REMARK  7 active torsions:
REMARK  status: ('A' for Active; 'I' for Inactive)
REMARK    1  A    between atoms: C_1  and  C_2
REMARK    2  A    between atoms: C_7  and  C_8
REMARK    3  A    between atoms: C_10  and  S_11
REMARK    4  A    between atoms: S_11  and  C_14
REMARK    5  A    between atoms: C_21  and  N_22
REMARK    6  A    between atoms: N_22  and  C_23
REMARK    7  A    between atoms: C_23  and  C_24
REMARK                            x       y       z     vdW  Elec       q    Type
REMARK                         _______ _______ _______ _____ _____    ______ ____
ROOT
ATOM      1  C   UNL     1       2.792   6.936  18.322  0.00  0.00    +0.000 A 
ATOM      2  N   UNL     1       4.109   6.918  18.329  0.00  0.00    +0.000 NA
ATOM      3  C   UNL     1       4.424   5.681  17.802  0.00  0.00    +0.000 A 
ATOM      4  C   UNL     1       3.273   4.986  17.501  0.00  0.00    +0.000 A 
ATOM      5  O   UNL     1       2.216   5.790  17.840  0.00  0.00    +0.000 OA
ENDROOT
BRANCH   1  12
ATOM      6  C   UNL     1       1.728   7.015  21.091  0.00  0.00    +0.000 C 
ATOM      7  C   UNL     1       1.345   8.033  20.048  0.00  0.00    +0.000 A 
ATOM      8  C   UNL     1       0.427   9.039  20.394  0.00  0.00    +0.000 A 
ATOM      9  C   UNL     1       0.057  10.016  19.472  0.00  0.00    +0.000 A 
ATOM     10  C   UNL     1       0.607  10.009  18.195  0.00  0.00    +0.000 A 
ATOM     11  C   UNL     1       1.518   9.015  17.833  0.00  0.00    +0.000 A 
ATOM     12  C   UNL     1       1.889   8.007  18.742  0.00  0.00    +0.000 A 
ENDBRANCH   1  12
BRANCH   3  13
ATOM     13  S   UNL     1       6.044   5.176  17.530  0.00  0.00    +0.000 S 
ATOM     14  O   UNL     1       6.310   4.158  18.531  0.00  0.00    +0.000 OA
ATOM     15  O   UNL     1       6.114   4.882  16.111  0.00  0.00    +0.000 OA
BRANCH  13  16
ATOM     16  C   UNL     1       7.066   6.589  17.869  0.00  0.00    +0.000 A 
ATOM     17  C   UNL     1       6.910   7.753  17.109  0.00  0.00    +0.000 A 
ATOM     18  C   UNL     1       7.680   8.882  17.407  0.00  0.00    +0.000 A 
ATOM     19  C   UNL     1       8.590   8.841  18.465  0.00  0.00    +0.000 A 
ATOM     20 BR   UNL     1       9.618  10.376  18.871  0.00  0.00    +0.000 Br
ATOM     21  C   UNL     1       8.738   7.686  19.231  0.00  0.00    +0.000 A 
ATOM     22  C   UNL     1       7.971   6.554  18.937  0.00  0.00    +0.000 A 
ENDBRANCH  13  16
ENDBRANCH   3  13
BRANCH   4  23
ATOM     23  N   UNL     1       2.998   3.755  17.011  0.00  0.00    +0.000 N 
ATOM     24  H   UNL     1       2.232   3.663  16.343  0.00  0.00    +0.000 HD
BRANCH  23  25
ATOM     25  C   UNL     1       3.267   2.555  17.785  0.00  0.00    +0.000 C 
BRANCH  25  26
ATOM     26  C   UNL     1       2.625   2.622  19.144  0.00  0.00    +0.000 A 
ATOM     27  C   UNL     1       3.380   2.613  20.322  0.00  0.00    +0.000 A 
ATOM     28  C   UNL     1       2.741   2.716  21.555  0.00  0.00    +0.000 A 
ATOM     29  C   UNL     1       1.362   2.828  21.573  0.00  0.00    +0.000 A 
ATOM     30  N   UNL     1       0.598   2.836  20.461  0.00  0.00    +0.000 NA
ATOM     31  C   UNL     1       1.244   2.726  19.277  0.00  0.00    +0.000 A 
ENDBRANCH  25  26
ENDBRANCH  23  25
ENDBRANCH   4  23
TORSDOF 6
ENDMDL
MODEL 9
REMARK VINA RESULT:      -7.6      2.625      3.363
REMARK  Name = 
REMARK  7 active torsions:
REMARK  status: ('A' for Active; 'I' for Inactive)
REMARK    1  A    between atoms: C_1  and  C_2
REMARK    2  A    between atoms: C_7  and  C_8
REMARK    3  A    between atoms: C_10  and  S_11
REMARK    4  A    between atoms: S_11  and  C_14
REMARK    5  A    between atoms: C_21  and  N_22
REMARK    6  A    between atoms: N_22  and  C_23
REMARK    7  A    between atoms: C_23  and  C_24
REMARK                            x       y       z     vdW  Elec       q    Type
REMARK                         _______ _______ _______ _____ _____    ______ ____
ROOT
ATOM      1  C   UNL     1       2.884   7.037  18.437  0.00  0.00    +0.000 A 
ATOM      2  N   UNL     1       4.192   6.913  18.543  0.00  0.00    +0.000 NA
ATOM      3  C   UNL     1       4.446   5.659  18.026  0.00  0.00    +0.000 A 
ATOM      4  C   UNL     1       3.270   5.060  17.630  0.00  0.00    +0.000 A 
ATOM      5  O   UNL     1       2.258   5.944  17.897  0.00  0.00    +0.000 OA
ENDROOT
BRANCH   1  12
ATOM      6  C   UNL     1       1.599   7.170  21.107  0.00  0.00    +0.000 C 
ATOM      7  C   UNL     1       1.390   8.229  20.056  0.00  0.00    +0.000 A 
ATOM      8  C   UNL     1       0.532   9.304  20.343  0.00  0.00    +0.000 A 
ATOM      9  C   UNL     1       0.323  10.320  19.412  0.00  0.00    +0.000 A 
ATOM     10  C   UNL     1       0.977  10.283  18.185  0.00  0.00    +0.000 A 
ATOM     11  C   UNL     1       1.832   9.220  17.883  0.00  0.00    +0.000 A 
ATOM     12  C   UNL     1       2.040   8.175  18.800  0.00  0.00    +0.000 A 
ENDBRANCH   1  12
BRANCH   3  13
ATOM     13  S   UNL     1       6.038   5.027  17.871  0.00  0.00    +0.000 S 
ATOM     14  O   UNL     1       6.926   6.098  18.288  0.00  0.00    +0.000 OA
ATOM     15  O   UNL     1       6.007   3.754  18.564  0.00  0.00    +0.000 OA
BRANCH  13  16
ATOM     16  C   UNL     1       6.284   4.726  16.138  0.00  0.00    +0.000 A 
ATOM     17  C   UNL     1       7.128   5.566  15.403  0.00  0.00    +0.000 A 
ATOM     18  C   UNL     1       7.360   5.300  14.050  0.00  0.00    +0.000 A 
ATOM     19  C   UNL     1       6.759   4.195  13.447  0.00  0.00    +0.000 A 
ATOM     20 BR   UNL     1       7.088   3.834  11.620  0.00  0.00    +0.000 Br
ATOM     21  C   UNL     1       5.928   3.349  14.180  0.00  0.00    +0.000 A 
ATOM     22  C   UNL     1       5.690   3.610  15.533  0.00  0.00    +0.000 A 
ENDBRANCH  13  16
ENDBRANCH   3  13
BRANCH   4  23
ATOM     23  N   UNL     1       2.937   3.858  17.105  0.00  0.00    +0.000 N 
ATOM     24  H   UNL     1       2.170   3.822  16.433  0.00  0.00    +0.000 HD
BRANCH  23  25
ATOM     25  C   UNL     1       3.143   2.625  17.846  0.00  0.00    +0.000 C 
BRANCH  25  26
ATOM     26  C   UNL     1       2.524   2.697  19.216  0.00  0.00    +0.000 A 
ATOM     27  C   UNL     1       3.289   2.590  20.382  0.00  0.00    +0.000 A 
ATOM     28  C   UNL     1       2.674   2.701  21.627  0.00  0.00    +0.000 A 
ATOM     29  C   UNL     1       1.308   2.920  21.667  0.00  0.00    +0.000 A 
ATOM     30  N   UNL     1       0.534   3.025  20.567  0.00  0.00    +0.000 NA
ATOM     31  C   UNL     1       1.156   2.904  19.371  0.00  0.00    +0.000 A 
ENDBRANCH  25  26
ENDBRANCH  23  25
ENDBRANCH   4  23
TORSDOF 6
ENDMDL
