MODEL 1
REMARK VINA RESULT:      -8.5      0.000      0.000
REMARK  Name = 
REMARK  3 active torsions:
REMARK  status: ('A' for Active; 'I' for Inactive)
REMARK    1  A    between atoms: C_1  and  C_2
REMARK    2  A    between atoms: C_3  and  C_4
REMARK    3  A    between atoms: C_9  and  C_10
REMARK                            x       y       z     vdW  Elec       q    Type
REMARK                         _______ _______ _______ _____ _____    ______ ____
ROOT
ATOM      1  C   UNL     1       1.484   7.212  20.853  0.00  0.00    +0.000 C 
ATOM      2  C   UNL     1       1.803   7.778  19.513  0.00  0.00    +0.000 A 
ATOM      3  C   UNL     1       2.483   7.220  18.433  0.00  0.00    +0.000 A 
ATOM      4  C   UNL     1       2.466   8.236  17.460  0.00  0.00    +0.000 A 
ATOM      5  N   UNL     1       1.878   9.354  17.877  0.00  0.00    +0.000 NA
ATOM      6  N   UNL     1       1.469   9.072  19.148  0.00  0.00    +0.000 N 
ATOM      7  C   UNL     1       0.807  10.076  19.907  0.00  0.00    +0.000 A 
ATOM      8  N   UNL     1       0.183   9.851  21.017  0.00  0.00    +0.000 NA
ATOM      9  N   UNL     1      -0.255  10.985  21.612  0.00  0.00    +0.000 N 
ATOM     10  C   UNL     1      -1.121  11.079  22.667  0.00  0.00    +0.000 A 
ATOM     11  C   UNL     1      -1.200  12.403  23.038  0.00  0.00    +0.000 A 
ATOM     12  C   UNL     1      -0.349  13.140  22.179  0.00  0.00    +0.000 A 
ATOM     13  C   UNL     1       0.149  12.241  21.263  0.00  0.00    +0.000 A 
ATOM     14  C   UNL     1       0.983  12.391  20.118  0.00  0.00    +0.000 A 
ATOM     15  O   UNL     1       1.708  13.358  19.904  0.00  0.00    +0.000 OA
ATOM     16  N   UNL     1       0.935  11.303  19.293  0.00  0.00    +0.000 N 
ATOM     17  H   UNL     1       0.137  11.418  18.681  0.00  0.00    +0.000 HD
ENDROOT
BRANCH   3  18
ATOM     18  C   UNL     1       2.982   5.856  18.324  0.00  0.00    +0.000 C 
ATOM     19  O   UNL     1       2.275   4.906  18.641  0.00  0.00    +0.000 OA
ATOM     20  N   UNL     1       4.253   5.669  17.766  0.00  0.00    +0.000 N 
ATOM     21  C   UNL     1       4.612   4.299  17.410  0.00  0.00    +0.000 C 
ATOM     22  C   UNL     1       5.599   4.281  16.242  0.00  0.00    +0.000 C 
ATOM     23  C   UNL     1       6.845   5.139  16.513  0.00  0.00    +0.000 C 
ATOM     24  C   UNL     1       7.770   4.473  17.534  0.00  0.00    +0.000 C 
ATOM     25  C   UNL     1       6.420   6.551  16.943  0.00  0.00    +0.000 C 
ATOM     26  F   UNL     1       7.516   7.258  17.326  0.00  0.00    +0.000 F 
ATOM     27  C   UNL     1       5.394   6.540  18.077  0.00  0.00    +0.000 C 
ENDBRANCH   3  18
TORSDOF 1
ENDMDL
MODEL 2
REMARK VINA RESULT:      -8.3      2.996      8.340
REMARK  Name = 
REMARK  3 active torsions:
REMARK  status: ('A' for Active; 'I' for Inactive)
REMARK    1  A    between atoms: C_1  and  C_2
REMARK    2  A    between atoms: C_3  and  C_4
REMARK    3  A    between atoms: C_9  and  C_10
REMARK                            x       y       z     vdW  Elec       q    Type
REMARK                         _______ _______ _______ _____ _____    ______ ____
ROOT
ATOM      1  C   UNL     1       2.597   9.367  18.005  0.00  0.00    +0.000 C 
ATOM      2  C   UNL     1       2.138   8.483  19.112  0.00  0.00    +0.000 A 
ATOM      3  C   UNL     1       1.322   8.755  20.207  0.00  0.00    +0.000 A 
ATOM      4  C   UNL     1       1.256   7.529  20.894  0.00  0.00    +0.000 A 
ATOM      5  N   UNL     1       1.988   6.571  20.331  0.00  0.00    +0.000 NA
ATOM      6  N   UNL     1       2.535   7.162  19.230  0.00  0.00    +0.000 N 
ATOM      7  C   UNL     1       3.407   6.409  18.395  0.00  0.00    +0.000 A 
ATOM      8  N   UNL     1       3.793   6.790  17.221  0.00  0.00    +0.000 NA
ATOM      9  N   UNL     1       4.717   5.963  16.679  0.00  0.00    +0.000 N 
ATOM     10  C   UNL     1       5.162   5.962  15.385  0.00  0.00    +0.000 A 
ATOM     11  C   UNL     1       6.188   5.049  15.288  0.00  0.00    +0.000 A 
ATOM     12  C   UNL     1       6.375   4.475  16.569  0.00  0.00    +0.000 A 
ATOM     13  C   UNL     1       5.394   5.005  17.377  0.00  0.00    +0.000 A 
ATOM     14  C   UNL     1       5.021   4.760  18.729  0.00  0.00    +0.000 A 
ATOM     15  O   UNL     1       5.744   4.231  19.568  0.00  0.00    +0.000 OA
ATOM     16  N   UNL     1       3.774   5.237  19.020  0.00  0.00    +0.000 N 
ATOM     17  H   UNL     1       3.105   4.528  18.747  0.00  0.00    +0.000 HD
ENDROOT
BRANCH   3  18
ATOM     18  C   UNL     1       0.619  10.000  20.488  0.00  0.00    +0.000 C 
ATOM     19  O   UNL     1       0.877  10.648  21.496  0.00  0.00    +0.000 OA
ATOM     20  N   UNL     1      -0.289  10.467  19.529  0.00  0.00    +0.000 N 
ATOM     21  C   UNL     1      -0.765  11.838  19.696  0.00  0.00    +0.000 C 
ATOM     22  C   UNL     1      -1.121  12.459  18.346  0.00  0.00    +0.000 C 
ATOM     23  C   UNL     1      -2.124  11.607  17.553  0.00  0.00    +0.000 C 
ATOM     24  C   UNL     1      -3.527  11.688  18.159  0.00  0.00    +0.000 C 
ATOM     25  C   UNL     1      -1.613  10.161  17.455  0.00  0.00    +0.000 C 
ATOM     26  F   UNL     1      -2.570   9.380  16.887  0.00  0.00    +0.000 F 
ATOM     27  C   UNL     1      -1.216   9.580  18.812  0.00  0.00    +0.000 C 
ENDBRANCH   3  18
TORSDOF 1
ENDMDL
MODEL 3
REMARK VINA RESULT:      -7.9      1.628      2.327
REMARK  Name = 
REMARK  3 active torsions:
REMARK  status: ('A' for Active; 'I' for Inactive)
REMARK    1  A    between atoms: C_1  and  C_2
REMARK    2  A    between atoms: C_3  and  C_4
REMARK    3  A    between atoms: C_9  and  C_10
REMARK                            x       y       z     vdW  Elec       q    Type
REMARK                         _______ _______ _______ _____ _____    ______ ____
ROOT
ATOM      1  C   UNL     1       2.048   8.401  17.872  0.00  0.00    +0.000 C 
ATOM      2  C   UNL     1       2.031   7.497  19.055  0.00  0.00    +0.000 A 
ATOM      3  C   UNL     1       2.283   6.131  19.153  0.00  0.00    +0.000 A 
ATOM      4  C   UNL     1       2.109   5.851  20.521  0.00  0.00    +0.000 A 
ATOM      5  N   UNL     1       1.739   6.914  21.232  0.00  0.00    +0.000 NA
ATOM      6  N   UNL     1       1.689   7.931  20.325  0.00  0.00    +0.000 N 
ATOM      7  C   UNL     1       1.299   9.230  20.754  0.00  0.00    +0.000 A 
ATOM      8  N   UNL     1       1.437  10.300  20.040  0.00  0.00    +0.000 NA
ATOM      9  N   UNL     1       0.878  11.390  20.616  0.00  0.00    +0.000 N 
ATOM     10  C   UNL     1       1.032  12.694  20.232  0.00  0.00    +0.000 A 
ATOM     11  C   UNL     1       0.195  13.468  21.004  0.00  0.00    +0.000 A 
ATOM     12  C   UNL     1      -0.494  12.604  21.888  0.00  0.00    +0.000 A 
ATOM     13  C   UNL     1       0.016  11.343  21.674  0.00  0.00    +0.000 A 
ATOM     14  C   UNL     1      -0.217  10.087  22.304  0.00  0.00    +0.000 A 
ATOM     15  O   UNL     1      -1.202   9.820  22.985  0.00  0.00    +0.000 OA
ATOM     16  N   UNL     1       0.759   9.174  22.020  0.00  0.00    +0.000 N 
ATOM     17  H   UNL     1       1.515   9.321  22.677  0.00  0.00    +0.000 HD
ENDROOT
BRANCH   3  18
ATOM     18  C   UNL     1       2.734   5.245  18.089  0.00  0.00    +0.000 C 
ATOM     19  O   UNL     1       1.962   4.439  17.579  0.00  0.00    +0.000 OA
ATOM     20  N   UNL     1       4.041   5.407  17.614  0.00  0.00    +0.000 N 
ATOM     21  C   UNL     1       4.375   4.711  16.374  0.00  0.00    +0.000 C 
ATOM     22  C   UNL     1       5.463   5.460  15.605  0.00  0.00    +0.000 C 
ATOM     23  C   UNL     1       6.712   5.722  16.459  0.00  0.00    +0.000 C 
ATOM     24  C   UNL     1       7.513   4.438  16.686  0.00  0.00    +0.000 C 
ATOM     25  C   UNL     1       6.308   6.399  17.777  0.00  0.00    +0.000 C 
ATOM     26  F   UNL     1       7.393   6.490  18.591  0.00  0.00    +0.000 F 
ATOM     27  C   UNL     1       5.184   5.658  18.503  0.00  0.00    +0.000 C 
ENDBRANCH   3  18
TORSDOF 1
ENDMDL
MODEL 4
REMARK VINA RESULT:      -7.8      2.408      3.142
REMARK  Name = 
REMARK  3 active torsions:
REMARK  status: ('A' for Active; 'I' for Inactive)
REMARK    1  A    between atoms: C_1  and  C_2
REMARK    2  A    between atoms: C_3  and  C_4
REMARK    3  A    between atoms: C_9  and  C_10
REMARK                            x       y       z     vdW  Elec       q    Type
REMARK                         _______ _______ _______ _____ _____    ______ ____
ROOT
ATOM      1  C   UNL     1       2.107   7.438  20.944  0.00  0.00    +0.000 C 
ATOM      2  C   UNL     1       2.055   7.972  19.555  0.00  0.00    +0.000 A 
ATOM      3  C   UNL     1       2.710   7.552  18.400  0.00  0.00    +0.000 A 
ATOM      4  C   UNL     1       2.262   8.447  17.411  0.00  0.00    +0.000 A 
ATOM      5  N   UNL     1       1.437   9.380  17.882  0.00  0.00    +0.000 NA
ATOM      6  N   UNL     1       1.311   9.087  19.208  0.00  0.00    +0.000 N 
ATOM      7  C   UNL     1       0.498   9.915  20.031  0.00  0.00    +0.000 A 
ATOM      8  N   UNL     1       0.129   9.603  21.231  0.00  0.00    +0.000 NA
ATOM      9  N   UNL     1      -0.534  10.607  21.852  0.00  0.00    +0.000 N 
ATOM     10  C   UNL     1      -1.233  10.528  23.026  0.00  0.00    +0.000 A 
ATOM     11  C   UNL     1      -1.642  11.799  23.365  0.00  0.00    +0.000 A 
ATOM     12  C   UNL     1      -1.172  12.682  22.363  0.00  0.00    +0.000 A 
ATOM     13  C   UNL     1      -0.567  11.897  21.407  0.00  0.00    +0.000 A 
ATOM     14  C   UNL     1       0.018  12.193  20.143  0.00  0.00    +0.000 A 
ATOM     15  O   UNL     1       0.393  13.308  19.791  0.00  0.00    +0.000 OA
ATOM     16  N   UNL     1       0.175  11.079  19.368  0.00  0.00    +0.000 N 
ATOM     17  H   UNL     1      -0.699  10.917  18.884  0.00  0.00    +0.000 HD
ENDROOT
BRANCH   3  18
ATOM     18  C   UNL     1       3.565   6.382  18.255  0.00  0.00    +0.000 C 
ATOM     19  O   UNL     1       4.688   6.486  17.773  0.00  0.00    +0.000 OA
ATOM     20  N   UNL     1       3.097   5.163  18.762  0.00  0.00    +0.000 N 
ATOM     21  C   UNL     1       4.072   4.080  18.858  0.00  0.00    +0.000 C 
ATOM     22  C   UNL     1       3.713   3.125  19.997  0.00  0.00    +0.000 C 
ATOM     23  C   UNL     1       2.279   2.585  19.881  0.00  0.00    +0.000 C 
ATOM     24  C   UNL     1       2.158   1.562  18.750  0.00  0.00    +0.000 C 
ATOM     25  C   UNL     1       1.296   3.754  19.720  0.00  0.00    +0.000 C 
ATOM     26  F   UNL     1       0.052   3.268  19.467  0.00  0.00    +0.000 F 
ATOM     27  C   UNL     1       1.704   4.722  18.609  0.00  0.00    +0.000 C 
ENDBRANCH   3  18
TORSDOF 1
ENDMDL
MODEL 5
REMARK VINA RESULT:      -7.7      1.355      2.380
REMARK  Name = 
REMARK  3 active torsions:
REMARK  status: ('A' for Active; 'I' for Inactive)
REMARK    1  A    between atoms: C_1  and  C_2
REMARK    2  A    between atoms: C_3  and  C_4
REMARK    3  A    between atoms: C_9  and  C_10
REMARK                            x       y       z     vdW  Elec       q    Type
REMARK                         _______ _______ _______ _____ _____    ______ ____
ROOT
ATOM      1  C   UNL     1       2.324   8.284  17.409  0.00  0.00    +0.000 C 
ATOM      2  C   UNL     1       2.089   7.736  18.774  0.00  0.00    +0.000 A 
ATOM      3  C   UNL     1       2.209   6.436  19.259  0.00  0.00    +0.000 A 
ATOM      4  C   UNL     1       1.851   6.545  20.615  0.00  0.00    +0.000 A 
ATOM      5  N   UNL     1       1.491   7.778  20.966  0.00  0.00    +0.000 NA
ATOM      6  N   UNL     1       1.637   8.514  19.827  0.00  0.00    +0.000 N 
ATOM      7  C   UNL     1       1.311   9.898  19.845  0.00  0.00    +0.000 A 
ATOM      8  N   UNL     1       1.624  10.727  18.902  0.00  0.00    +0.000 NA
ATOM      9  N   UNL     1       1.096  11.959  19.091  0.00  0.00    +0.000 N 
ATOM     10  C   UNL     1       1.406  13.102  18.405  0.00  0.00    +0.000 A 
ATOM     11  C   UNL     1       0.552  14.097  18.825  0.00  0.00    +0.000 A 
ATOM     12  C   UNL     1      -0.309  13.539  19.801  0.00  0.00    +0.000 A 
ATOM     13  C   UNL     1       0.114  12.243  19.996  0.00  0.00    +0.000 A 
ATOM     14  C   UNL     1      -0.299  11.218  20.894  0.00  0.00    +0.000 A 
ATOM     15  O   UNL     1      -1.377  11.194  21.479  0.00  0.00    +0.000 OA
ATOM     16  N   UNL     1       0.622  10.213  20.995  0.00  0.00    +0.000 N 
ATOM     17  H   UNL     1       1.305  10.494  21.687  0.00  0.00    +0.000 HD
ENDROOT
BRANCH   3  18
ATOM     18  C   UNL     1       2.706   5.274  18.535  0.00  0.00    +0.000 C 
ATOM     19  O   UNL     1       2.020   4.262  18.433  0.00  0.00    +0.000 OA
ATOM     20  N   UNL     1       3.945   5.385  17.891  0.00  0.00    +0.000 N 
ATOM     21  C   UNL     1       4.288   4.322  16.951  0.00  0.00    +0.000 C 
ATOM     22  C   UNL     1       5.209   4.847  15.849  0.00  0.00    +0.000 C 
ATOM     23  C   UNL     1       6.465   5.531  16.410  0.00  0.00    +0.000 C 
ATOM     24  C   UNL     1       7.447   4.509  16.987  0.00  0.00    +0.000 C 
ATOM     25  C   UNL     1       6.060   6.597  17.439  0.00  0.00    +0.000 C 
ATOM     26  F   UNL     1       7.173   7.092  18.041  0.00  0.00    +0.000 F 
ATOM     27  C   UNL     1       5.099   6.061  18.500  0.00  0.00    +0.000 C 
ENDBRANCH   3  18
TORSDOF 1
ENDMDL
MODEL 6
REMARK VINA RESULT:      -7.5      1.270      1.359
REMARK  Name = 
REMARK  3 active torsions:
REMARK  status: ('A' for Active; 'I' for Inactive)
REMARK    1  A    between atoms: C_1  and  C_2
REMARK    2  A    between atoms: C_3  and  C_4
REMARK    3  A    between atoms: C_9  and  C_10
REMARK                            x       y       z     vdW  Elec       q    Type
REMARK                         _______ _______ _______ _____ _____    ______ ____
ROOT
ATOM      1  C   UNL     1       1.157   8.265  21.237  0.00  0.00    +0.000 C 
ATOM      2  C   UNL     1       1.476   8.443  19.793  0.00  0.00    +0.000 A 
ATOM      3  C   UNL     1       2.245   7.662  18.935  0.00  0.00    +0.000 A 
ATOM      4  C   UNL     1       2.176   8.342  17.704  0.00  0.00    +0.000 A 
ATOM      5  N   UNL     1       1.474   9.471  17.767  0.00  0.00    +0.000 NA
ATOM      6  N   UNL     1       1.042   9.535  19.060  0.00  0.00    +0.000 N 
ATOM      7  C   UNL     1       0.265  10.648  19.482  0.00  0.00    +0.000 A 
ATOM      8  N   UNL     1      -0.379  10.698  20.602  0.00  0.00    +0.000 NA
ATOM      9  N   UNL     1      -0.940  11.909  20.831  0.00  0.00    +0.000 N 
ATOM     10  C   UNL     1      -1.852  12.223  21.802  0.00  0.00    +0.000 A 
ATOM     11  C   UNL     1      -2.062  13.583  21.765  0.00  0.00    +0.000 A 
ATOM     12  C   UNL     1      -1.248  14.116  20.736  0.00  0.00    +0.000 A 
ATOM     13  C   UNL     1      -0.636  13.041  20.132  0.00  0.00    +0.000 A 
ATOM     14  C   UNL     1       0.225  12.930  19.003  0.00  0.00    +0.000 A 
ATOM     15  O   UNL     1       0.870  13.857  18.522  0.00  0.00    +0.000 OA
ATOM     16  N   UNL     1       0.307  11.648  18.535  0.00  0.00    +0.000 N 
ATOM     17  H   UNL     1      -0.473  11.502  17.908  0.00  0.00    +0.000 HD
ENDROOT
BRANCH   3  18
ATOM     18  C   UNL     1       2.867   6.381  19.237  0.00  0.00    +0.000 C 
ATOM     19  O   UNL     1       2.585   5.778  20.267  0.00  0.00    +0.000 OA
ATOM     20  N   UNL     1       3.724   5.828  18.277  0.00  0.00    +0.000 N 
ATOM     21  C   UNL     1       4.110   4.433  18.475  0.00  0.00    +0.000 C 
ATOM     22  C   UNL     1       4.399   3.754  17.136  0.00  0.00    +0.000 C 
ATOM     23  C   UNL     1       5.443   4.515  16.304  0.00  0.00    +0.000 C 
ATOM     24  C   UNL     1       6.848   4.355  16.889  0.00  0.00    +0.000 C 
ATOM     25  C   UNL     1       5.029   5.989  16.175  0.00  0.00    +0.000 C 
ATOM     26  F   UNL     1       6.025   6.688  15.571  0.00  0.00    +0.000 F 
ATOM     27  C   UNL     1       4.695   6.631  17.522  0.00  0.00    +0.000 C 
ENDBRANCH   3  18
TORSDOF 1
ENDMDL
MODEL 7
REMARK VINA RESULT:      -7.5      3.144      7.596
REMARK  Name = 
REMARK  3 active torsions:
REMARK  status: ('A' for Active; 'I' for Inactive)
REMARK    1  A    between atoms: C_1  and  C_2
REMARK    2  A    between atoms: C_3  and  C_4
REMARK    3  A    between atoms: C_9  and  C_10
REMARK                            x       y       z     vdW  Elec       q    Type
REMARK                         _______ _______ _______ _____ _____    ______ ____
ROOT
ATOM      1  C   UNL     1       0.589   8.667  21.224  0.00  0.00    +0.000 C 
ATOM      2  C   UNL     1       1.135   8.964  19.871  0.00  0.00    +0.000 A 
ATOM      3  C   UNL     1       1.074  10.127  19.106  0.00  0.00    +0.000 A 
ATOM      4  C   UNL     1       1.765   9.794  17.927  0.00  0.00    +0.000 A 
ATOM      5  N   UNL     1       2.192   8.533  17.906  0.00  0.00    +0.000 NA
ATOM      6  N   UNL     1       1.801   8.020  19.108  0.00  0.00    +0.000 N 
ATOM      7  C   UNL     1       2.087   6.660  19.411  0.00  0.00    +0.000 A 
ATOM      8  N   UNL     1       1.968   6.141  20.590  0.00  0.00    +0.000 NA
ATOM      9  N   UNL     1       2.178   4.804  20.598  0.00  0.00    +0.000 N 
ATOM     10  C   UNL     1       2.337   4.002  21.696  0.00  0.00    +0.000 A 
ATOM     11  C   UNL     1       2.398   2.696  21.265  0.00  0.00    +0.000 A 
ATOM     12  C   UNL     1       2.269   2.703  19.855  0.00  0.00    +0.000 A 
ATOM     13  C   UNL     1       2.219   4.026  19.477  0.00  0.00    +0.000 A 
ATOM     14  C   UNL     1       2.171   4.666  18.206  0.00  0.00    +0.000 A 
ATOM     15  O   UNL     1       1.830   4.120  17.161  0.00  0.00    +0.000 OA
ATOM     16  N   UNL     1       2.495   5.992  18.278  0.00  0.00    +0.000 N 
ATOM     17  H   UNL     1       3.504   6.062  18.234  0.00  0.00    +0.000 HD
ENDROOT
BRANCH   3  18
ATOM     18  C   UNL     1       0.518  11.411  19.509  0.00  0.00    +0.000 C 
ATOM     19  O   UNL     1      -0.630  11.488  19.934  0.00  0.00    +0.000 OA
ATOM     20  N   UNL     1       1.362  12.528  19.476  0.00  0.00    +0.000 N 
ATOM     21  C   UNL     1       0.874  13.733  20.141  0.00  0.00    +0.000 C 
ATOM     22  C   UNL     1       2.039  14.577  20.660  0.00  0.00    +0.000 C 
ATOM     23  C   UNL     1       3.057  14.913  19.560  0.00  0.00    +0.000 C 
ATOM     24  C   UNL     1       2.503  15.957  18.587  0.00  0.00    +0.000 C 
ATOM     25  C   UNL     1       3.495  13.625  18.847  0.00  0.00    +0.000 C 
ATOM     26  F   UNL     1       4.276  13.940  17.780  0.00  0.00    +0.000 F 
ATOM     27  C   UNL     1       2.312  12.774  18.383  0.00  0.00    +0.000 C 
ENDBRANCH   3  18
TORSDOF 1
ENDMDL
MODEL 8
REMARK VINA RESULT:      -7.5      2.611      3.206
REMARK  Name = 
REMARK  3 active torsions:
REMARK  status: ('A' for Active; 'I' for Inactive)
REMARK    1  A    between atoms: C_1  and  C_2
REMARK    2  A    between atoms: C_3  and  C_4
REMARK    3  A    between atoms: C_9  and  C_10
REMARK                            x       y       z     vdW  Elec       q    Type
REMARK                         _______ _______ _______ _____ _____    ______ ____
ROOT
ATOM      1  C   UNL     1       0.526   8.767  21.006  0.00  0.00    +0.000 C 
ATOM      2  C   UNL     1       1.392   8.483  19.828  0.00  0.00    +0.000 A 
ATOM      3  C   UNL     1       2.061   7.319  19.457  0.00  0.00    +0.000 A 
ATOM      4  C   UNL     1       2.711   7.668  18.259  0.00  0.00    +0.000 A 
ATOM      5  N   UNL     1       2.523   8.939  17.910  0.00  0.00    +0.000 NA
ATOM      6  N   UNL     1       1.709   9.443  18.882  0.00  0.00    +0.000 N 
ATOM      7  C   UNL     1       1.319  10.810  18.825  0.00  0.00    +0.000 A 
ATOM      8  N   UNL     1       0.382  11.326  19.551  0.00  0.00    +0.000 NA
ATOM      9  N   UNL     1       0.284  12.668  19.405  0.00  0.00    +0.000 N 
ATOM     10  C   UNL     1      -0.725  13.474  19.858  0.00  0.00    +0.000 A 
ATOM     11  C   UNL     1      -0.371  14.781  19.609  0.00  0.00    +0.000 A 
ATOM     12  C   UNL     1       0.899  14.770  18.983  0.00  0.00    +0.000 A 
ATOM     13  C   UNL     1       1.230  13.446  18.801  0.00  0.00    +0.000 A 
ATOM     14  C   UNL     1       2.330  12.804  18.166  0.00  0.00    +0.000 A 
ATOM     15  O   UNL     1       3.407  13.342  17.923  0.00  0.00    +0.000 OA
ATOM     16  N   UNL     1       2.082  11.487  17.899  0.00  0.00    +0.000 N 
ATOM     17  H   UNL     1       1.593  11.442  17.014  0.00  0.00    +0.000 HD
ENDROOT
BRANCH   3  18
ATOM     18  C   UNL     1       1.991   6.021  20.115  0.00  0.00    +0.000 C 
ATOM     19  O   UNL     1       1.715   5.940  21.307  0.00  0.00    +0.000 OA
ATOM     20  N   UNL     1       2.160   4.878  19.324  0.00  0.00    +0.000 N 
ATOM     21  C   UNL     1       1.811   3.601  19.941  0.00  0.00    +0.000 C 
ATOM     22  C   UNL     1       1.354   2.594  18.885  0.00  0.00    +0.000 C 
ATOM     23  C   UNL     1       2.385   2.413  17.761  0.00  0.00    +0.000 C 
ATOM     24  C   UNL     1       3.603   1.622  18.242  0.00  0.00    +0.000 C 
ATOM     25  C   UNL     1       2.770   3.784  17.184  0.00  0.00    +0.000 C 
ATOM     26  F   UNL     1       3.789   3.633  16.298  0.00  0.00    +0.000 F 
ATOM     27  C   UNL     1       3.174   4.788  18.263  0.00  0.00    +0.000 C 
ENDBRANCH   3  18
TORSDOF 1
ENDMDL
MODEL 9
REMARK VINA RESULT:      -7.4      2.991      4.027
REMARK  Name = 
REMARK  3 active torsions:
REMARK  status: ('A' for Active; 'I' for Inactive)
REMARK    1  A    between atoms: C_1  and  C_2
REMARK    2  A    between atoms: C_3  and  C_4
REMARK    3  A    between atoms: C_9  and  C_10
REMARK                            x       y       z     vdW  Elec       q    Type
REMARK                         _______ _______ _______ _____ _____    ______ ____
ROOT
ATOM      1  C   UNL     1       0.877   9.955  18.423  0.00  0.00    +0.000 C 
ATOM      2  C   UNL     1       1.135   9.305  19.738  0.00  0.00    +0.000 A 
ATOM      3  C   UNL     1       1.737   8.087  20.041  0.00  0.00    +0.000 A 
ATOM      4  C   UNL     1       1.687   8.024  21.446  0.00  0.00    +0.000 A 
ATOM      5  N   UNL     1       1.076   9.070  21.997  0.00  0.00    +0.000 NA
ATOM      6  N   UNL     1       0.733   9.861  20.940  0.00  0.00    +0.000 N 
ATOM      7  C   UNL     1       0.032  11.076  21.178  0.00  0.00    +0.000 A 
ATOM      8  N   UNL     1      -0.137  11.999  20.287  0.00  0.00    +0.000 NA
ATOM      9  N   UNL     1      -0.942  13.000  20.716  0.00  0.00    +0.000 N 
ATOM     10  C   UNL     1      -1.146  14.210  20.110  0.00  0.00    +0.000 A 
ATOM     11  C   UNL     1      -2.130  14.875  20.806  0.00  0.00    +0.000 A 
ATOM     12  C   UNL     1      -2.541  14.039  21.873  0.00  0.00    +0.000 A 
ATOM     13  C   UNL     1      -1.727  12.930  21.831  0.00  0.00    +0.000 A 
ATOM     14  C   UNL     1      -1.603  11.791  22.677  0.00  0.00    +0.000 A 
ATOM     15  O   UNL     1      -2.462  11.412  23.468  0.00  0.00    +0.000 OA
ATOM     16  N   UNL     1      -0.432  11.116  22.474  0.00  0.00    +0.000 N 
ATOM     17  H   UNL     1       0.280  11.564  23.035  0.00  0.00    +0.000 HD
ENDROOT
BRANCH   3  18
ATOM     18  C   UNL     1       2.368   7.165  19.107  0.00  0.00    +0.000 C 
ATOM     19  O   UNL     1       2.846   7.574  18.054  0.00  0.00    +0.000 OA
ATOM     20  N   UNL     1       2.487   5.824  19.492  0.00  0.00    +0.000 N 
ATOM     21  C   UNL     1       3.362   4.987  18.675  0.00  0.00    +0.000 C 
ATOM     22  C   UNL     1       3.966   3.856  19.508  0.00  0.00    +0.000 C 
ATOM     23  C   UNL     1       2.897   3.020  20.227  0.00  0.00    +0.000 C 
ATOM     24  C   UNL     1       2.134   2.127  19.247  0.00  0.00    +0.000 C 
ATOM     25  C   UNL     1       1.964   3.945  21.023  0.00  0.00    +0.000 C 
ATOM     26  F   UNL     1       0.934   3.220  21.533  0.00  0.00    +0.000 F 
ATOM     27  C   UNL     1       1.413   5.096  20.181  0.00  0.00    +0.000 C 
ENDBRANCH   3  18
TORSDOF 1
ENDMDL
