MODEL 1
REMARK VINA RESULT:      -6.1      0.000      0.000
REMARK  Name = 
REMARK  19 active torsions:
REMARK  status: ('A' for Active; 'I' for Inactive)
REMARK    1  A    between atoms: C_1  and  C_2
REMARK    2  A    between atoms: C_2  and  C_3
REMARK    3  A    between atoms: C_2  and  N_4
REMARK    4  A    between atoms: N_4  and  C_5
REMARK    5  A    between atoms: C_5  and  C_6
REMARK    6  A    between atoms: C_6  and  O_7
REMARK    7  A    between atoms: C_6  and  C_8
REMARK    8  A    between atoms: C_8  and  O_9
REMARK    9  A    between atoms: O_9  and  C_10
REMARK   10  A    between atoms: C_11  and  C_12
REMARK   11  A    between atoms: C_12  and  C_13
REMARK   12  A    between atoms: C_12  and  C_14
REMARK   13  A    between atoms: C_12  and  C_15
REMARK   14  A    between atoms: C_17  and  S_18
REMARK   15  A    between atoms: S_18  and  C_21
REMARK   16  A    between atoms: C_29  and  C_30
REMARK   17  A    between atoms: C_30  and  C_31
REMARK   18  A    between atoms: C_30  and  C_32
REMARK   19  A    between atoms: C_30  and  C_33
REMARK                            x       y       z     vdW  Elec       q    Type
REMARK                         _______ _______ _______ _____ _____    ______ ____
ROOT
ATOM      1  C   UNL     1      -1.421  11.904  19.046  0.00  0.00    +0.000 A 
ATOM      2  C   UNL     1      -1.035  12.756  20.140  0.00  0.00    +0.000 A 
ATOM      3  C   UNL     1      -2.071  13.182  21.011  0.00  0.00    +0.000 A 
ATOM      4  C   UNL     1      -3.412  12.940  20.749  0.00  0.00    +0.000 A 
ATOM      5  C   UNL     1      -3.778  12.255  19.595  0.00  0.00    +0.000 A 
ATOM      6  C   UNL     1      -2.818  11.684  18.727  0.00  0.00    +0.000 A 
ENDROOT
BRANCH   2   7
ATOM      7  C   UNL     1       0.369  13.348  20.476  0.00  0.00    +0.000 C 
ATOM      8  C   UNL     1       1.473  12.376  20.896  0.00  0.00    +0.000 C 
ATOM      9  C   UNL     1       1.001  14.037  19.236  0.00  0.00    +0.000 C 
ATOM     10  C   UNL     1       0.205  14.406  21.596  0.00  0.00    +0.000 C 
ENDBRANCH   2   7
BRANCH   6  11
ATOM     11  C   UNL     1      -3.391  10.972  17.455  0.00  0.00    +0.000 C 
ATOM     12  C   UNL     1      -4.868  11.383  17.271  0.00  0.00    +0.000 C 
ATOM     13  C   UNL     1      -2.618  11.283  16.159  0.00  0.00    +0.000 C 
ATOM     14  C   UNL     1      -3.388   9.410  17.539  0.00  0.00    +0.000 C 
ENDBRANCH   6  11
BRANCH   4  15
ATOM     15  S   UNL     1      -4.670  13.645  21.812  0.00  0.00    +0.000 S 
ATOM     16  O   UNL     1      -5.502  14.485  20.975  0.00  0.00    +0.000 OA
ATOM     17  O   UNL     1      -5.257  12.565  22.581  0.00  0.00    +0.000 OA
BRANCH  15  18
ATOM     18  C   UNL     1      -3.827  14.693  22.984  0.00  0.00    +0.000 A 
ATOM     19  C   UNL     1      -3.518  16.015  22.644  0.00  0.00    +0.000 A 
ATOM     20  C   UNL     1      -2.905  16.847  23.585  0.00  0.00    +0.000 A 
ATOM     21  C   UNL     1      -2.606  16.352  24.858  0.00  0.00    +0.000 A 
ATOM     22 CL   UNL     1      -1.866  17.382  26.021  0.00  0.00    +0.000 Cl
ATOM     23  C   UNL     1      -2.915  15.032  25.198  0.00  0.00    +0.000 A 
ATOM     24  C   UNL     1      -3.527  14.197  24.261  0.00  0.00    +0.000 A 
ENDBRANCH  15  18
ENDBRANCH   4  15
BRANCH   1  25
ATOM     25  O   UNL     1      -0.472  11.367  18.199  0.00  0.00    +0.000 OA
BRANCH  25  26
ATOM     26  C   UNL     1      -0.039  10.025  18.541  0.00  0.00    +0.000 C 
BRANCH  26  27
ATOM     27  C   UNL     1       1.514   9.909  18.385  0.00  0.00    +0.000 C 
BRANCH  27  28
ATOM     28  O   UNL     1       2.037  10.916  17.504  0.00  0.00    +0.000 OA
ATOM     29  H   UNL     1       2.315  11.681  18.037  0.00  0.00    +0.000 HD
ENDBRANCH  27  28
BRANCH  27  30
ATOM     30  C   UNL     1       1.940   8.498  17.873  0.00  0.00    +0.000 C 
BRANCH  30  31
ATOM     31  N   UNL     1       2.356   7.612  18.976  0.00  0.00    +0.000 NA
ATOM     32  H   UNL     1       2.866   8.179  19.658  0.00  0.00    +0.000 HD
BRANCH  31  34
ATOM     33  C   UNL     1       2.256   5.343  18.051  0.00  0.00    +0.000 C 
ATOM     34  C   UNL     1       3.174   6.469  18.541  0.00  0.00    +0.000 C 
ATOM     35  C   UNL     1       4.147   6.836  17.414  0.00  0.00    +0.000 C 
ENDBRANCH  31  34
ENDBRANCH  30  31
ENDBRANCH  27  30
ENDBRANCH  26  27
ENDBRANCH  25  26
ENDBRANCH   1  25
TORSDOF 11
ENDMDL
MODEL 2
REMARK VINA RESULT:      -5.8      1.236      3.478
REMARK  Name = 
REMARK  19 active torsions:
REMARK  status: ('A' for Active; 'I' for Inactive)
REMARK    1  A    between atoms: C_1  and  C_2
REMARK    2  A    between atoms: C_2  and  C_3
REMARK    3  A    between atoms: C_2  and  N_4
REMARK    4  A    between atoms: N_4  and  C_5
REMARK    5  A    between atoms: C_5  and  C_6
REMARK    6  A    between atoms: C_6  and  O_7
REMARK    7  A    between atoms: C_6  and  C_8
REMARK    8  A    between atoms: C_8  and  O_9
REMARK    9  A    between atoms: O_9  and  C_10
REMARK   10  A    between atoms: C_11  and  C_12
REMARK   11  A    between atoms: C_12  and  C_13
REMARK   12  A    between atoms: C_12  and  C_14
REMARK   13  A    between atoms: C_12  and  C_15
REMARK   14  A    between atoms: C_17  and  S_18
REMARK   15  A    between atoms: S_18  and  C_21
REMARK   16  A    between atoms: C_29  and  C_30
REMARK   17  A    between atoms: C_30  and  C_31
REMARK   18  A    between atoms: C_30  and  C_32
REMARK   19  A    between atoms: C_30  and  C_33
REMARK                            x       y       z     vdW  Elec       q    Type
REMARK                         _______ _______ _______ _____ _____    ______ ____
ROOT
ATOM      1  C   UNL     1      -1.828  11.871  19.303  0.00  0.00    +0.000 A 
ATOM      2  C   UNL     1      -3.098  11.726  18.641  0.00  0.00    +0.000 A 
ATOM      3  C   UNL     1      -4.227  12.268  19.308  0.00  0.00    +0.000 A 
ATOM      4  C   UNL     1      -4.162  12.768  20.600  0.00  0.00    +0.000 A 
ATOM      5  C   UNL     1      -2.953  12.748  21.288  0.00  0.00    +0.000 A 
ATOM      6  C   UNL     1      -1.746  12.342  20.671  0.00  0.00    +0.000 A 
ENDROOT
BRANCH   2   7
ATOM      7  C   UNL     1      -3.433  10.986  17.310  0.00  0.00    +0.000 C 
ATOM      8  C   UNL     1      -2.475  11.165  16.131  0.00  0.00    +0.000 C 
ATOM      9  C   UNL     1      -3.421   9.445  17.503  0.00  0.00    +0.000 C 
ATOM     10  C   UNL     1      -4.850  11.412  16.849  0.00  0.00    +0.000 C 
ENDBRANCH   2   7
BRANCH   6  11
ATOM     11  C   UNL     1      -0.478  12.346  21.590  0.00  0.00    +0.000 C 
ATOM     12  C   UNL     1      -0.736  13.273  22.798  0.00  0.00    +0.000 C 
ATOM     13  C   UNL     1      -0.069  10.953  22.104  0.00  0.00    +0.000 C 
ATOM     14  C   UNL     1       0.812  12.896  20.897  0.00  0.00    +0.000 C 
ENDBRANCH   6  11
BRANCH   4  15
ATOM     15  S   UNL     1      -5.660  13.289  21.432  0.00  0.00    +0.000 S 
ATOM     16  O   UNL     1      -6.539  13.824  20.414  0.00  0.00    +0.000 OA
ATOM     17  O   UNL     1      -6.098  12.198  22.281  0.00  0.00    +0.000 OA
BRANCH  15  18
ATOM     18  C   UNL     1      -5.205  14.622  22.527  0.00  0.00    +0.000 A 
ATOM     19  C   UNL     1      -5.616  15.930  22.245  0.00  0.00    +0.000 A 
ATOM     20  C   UNL     1      -5.302  16.961  23.134  0.00  0.00    +0.000 A 
ATOM     21  C   UNL     1      -4.579  16.679  24.297  0.00  0.00    +0.000 A 
ATOM     22 CL   UNL     1      -4.206  17.947  25.399  0.00  0.00    +0.000 Cl
ATOM     23  C   UNL     1      -4.168  15.373  24.579  0.00  0.00    +0.000 A 
ATOM     24  C   UNL     1      -4.480  14.339  23.694  0.00  0.00    +0.000 A 
ENDBRANCH  15  18
ENDBRANCH   4  15
BRANCH   1  25
ATOM     25  O   UNL     1      -0.661  11.455  18.691  0.00  0.00    +0.000 OA
BRANCH  25  26
ATOM     26  C   UNL     1      -0.345  10.050  18.871  0.00  0.00    +0.000 C 
BRANCH  26  27
ATOM     27  C   UNL     1       1.203   9.835  18.778  0.00  0.00    +0.000 C 
BRANCH  27  28
ATOM     28  O   UNL     1       1.659   9.836  17.416  0.00  0.00    +0.000 OA
ATOM     29  H   UNL     1       1.881   8.924  17.162  0.00  0.00    +0.000 HD
ENDBRANCH  27  28
BRANCH  27  30
ATOM     30  C   UNL     1       1.645   8.511  19.474  0.00  0.00    +0.000 C 
BRANCH  30  31
ATOM     31  N   UNL     1       2.402   7.634  18.561  0.00  0.00    +0.000 NA
ATOM     32  H   UNL     1       1.949   7.670  17.644  0.00  0.00    +0.000 HD
BRANCH  31  34
ATOM     33  C   UNL     1       1.975   5.300  17.944  0.00  0.00    +0.000 C 
ATOM     34  C   UNL     1       2.509   6.243  19.029  0.00  0.00    +0.000 C 
ATOM     35  C   UNL     1       3.951   5.843  19.362  0.00  0.00    +0.000 C 
ENDBRANCH  31  34
ENDBRANCH  30  31
ENDBRANCH  27  30
ENDBRANCH  26  27
ENDBRANCH  25  26
ENDBRANCH   1  25
TORSDOF 11
ENDMDL
MODEL 3
REMARK VINA RESULT:      -5.8      0.437      1.226
REMARK  Name = 
REMARK  19 active torsions:
REMARK  status: ('A' for Active; 'I' for Inactive)
REMARK    1  A    between atoms: C_1  and  C_2
REMARK    2  A    between atoms: C_2  and  C_3
REMARK    3  A    between atoms: C_2  and  N_4
REMARK    4  A    between atoms: N_4  and  C_5
REMARK    5  A    between atoms: C_5  and  C_6
REMARK    6  A    between atoms: C_6  and  O_7
REMARK    7  A    between atoms: C_6  and  C_8
REMARK    8  A    between atoms: C_8  and  O_9
REMARK    9  A    between atoms: O_9  and  C_10
REMARK   10  A    between atoms: C_11  and  C_12
REMARK   11  A    between atoms: C_12  and  C_13
REMARK   12  A    between atoms: C_12  and  C_14
REMARK   13  A    between atoms: C_12  and  C_15
REMARK   14  A    between atoms: C_17  and  S_18
REMARK   15  A    between atoms: S_18  and  C_21
REMARK   16  A    between atoms: C_29  and  C_30
REMARK   17  A    between atoms: C_30  and  C_31
REMARK   18  A    between atoms: C_30  and  C_32
REMARK   19  A    between atoms: C_30  and  C_33
REMARK                            x       y       z     vdW  Elec       q    Type
REMARK                         _______ _______ _______ _____ _____    ______ ____
ROOT
ATOM      1  C   UNL     1      -1.458  11.869  19.110  0.00  0.00    +0.000 A 
ATOM      2  C   UNL     1      -1.081  12.726  20.203  0.00  0.00    +0.000 A 
ATOM      3  C   UNL     1      -2.126  13.169  21.054  0.00  0.00    +0.000 A 
ATOM      4  C   UNL     1      -3.465  12.936  20.774  0.00  0.00    +0.000 A 
ATOM      5  C   UNL     1      -3.819  12.244  19.621  0.00  0.00    +0.000 A 
ATOM      6  C   UNL     1      -2.851  11.658  18.772  0.00  0.00    +0.000 A 
ENDROOT
BRANCH   2   7
ATOM      7  C   UNL     1       0.323  13.309  20.555  0.00  0.00    +0.000 C 
ATOM      8  C   UNL     1       1.437  12.324  20.912  0.00  0.00    +0.000 C 
ATOM      9  C   UNL     1       0.938  14.066  19.347  0.00  0.00    +0.000 C 
ATOM     10  C   UNL     1       0.165  14.305  21.731  0.00  0.00    +0.000 C 
ENDBRANCH   2   7
BRANCH   6  11
ATOM     11  C   UNL     1      -3.411  10.940  17.497  0.00  0.00    +0.000 C 
ATOM     12  C   UNL     1      -2.573  11.367  16.271  0.00  0.00    +0.000 C 
ATOM     13  C   UNL     1      -3.415   9.403  17.591  0.00  0.00    +0.000 C 
ATOM     14  C   UNL     1      -4.891  11.309  17.153  0.00  0.00    +0.000 C 
ENDBRANCH   6  11
BRANCH   4  15
ATOM     15  S   UNL     1      -4.732  13.661  21.812  0.00  0.00    +0.000 S 
ATOM     16  O   UNL     1      -5.498  14.558  20.972  0.00  0.00    +0.000 OA
ATOM     17  O   UNL     1      -5.391  12.584  22.525  0.00  0.00    +0.000 OA
BRANCH  15  18
ATOM     18  C   UNL     1      -3.893  14.639  23.045  0.00  0.00    +0.000 A 
ATOM     19  C   UNL     1      -3.633  14.097  24.308  0.00  0.00    +0.000 A 
ATOM     20  C   UNL     1      -2.928  14.849  25.253  0.00  0.00    +0.000 A 
ATOM     21  C   UNL     1      -2.489  16.136  24.928  0.00  0.00    +0.000 A 
ATOM     22 CL   UNL     1      -1.609  17.054  26.086  0.00  0.00    +0.000 Cl
ATOM     23  C   UNL     1      -2.749  16.677  23.666  0.00  0.00    +0.000 A 
ATOM     24  C   UNL     1      -3.453  15.930  22.719  0.00  0.00    +0.000 A 
ENDBRANCH  15  18
ENDBRANCH   4  15
BRANCH   1  25
ATOM     25  O   UNL     1      -0.500  11.317  18.282  0.00  0.00    +0.000 OA
BRANCH  25  26
ATOM     26  C   UNL     1      -0.094   9.968  18.634  0.00  0.00    +0.000 C 
BRANCH  26  27
ATOM     27  C   UNL     1       1.446   9.799  18.412  0.00  0.00    +0.000 C 
BRANCH  27  28
ATOM     28  O   UNL     1       1.964  10.787  17.506  0.00  0.00    +0.000 OA
ATOM     29  H   UNL     1       1.573  11.649  17.730  0.00  0.00    +0.000 HD
ENDBRANCH  27  28
BRANCH  27  30
ATOM     30  C   UNL     1       1.801   8.374  17.885  0.00  0.00    +0.000 C 
BRANCH  30  31
ATOM     31  N   UNL     1       3.191   8.295  17.400  0.00  0.00    +0.000 NA
ATOM     32  H   UNL     1       3.179   8.446  16.388  0.00  0.00    +0.000 HD
BRANCH  31  34
ATOM     33  C   UNL     1       2.804   5.963  18.051  0.00  0.00    +0.000 C 
ATOM     34  C   UNL     1       3.860   7.025  17.723  0.00  0.00    +0.000 C 
ATOM     35  C   UNL     1       4.735   6.511  16.574  0.00  0.00    +0.000 C 
ENDBRANCH  31  34
ENDBRANCH  30  31
ENDBRANCH  27  30
ENDBRANCH  26  27
ENDBRANCH  25  26
ENDBRANCH   1  25
TORSDOF 11
ENDMDL
MODEL 4
REMARK VINA RESULT:      -5.8      0.485      1.026
REMARK  Name = 
REMARK  19 active torsions:
REMARK  status: ('A' for Active; 'I' for Inactive)
REMARK    1  A    between atoms: C_1  and  C_2
REMARK    2  A    between atoms: C_2  and  C_3
REMARK    3  A    between atoms: C_2  and  N_4
REMARK    4  A    between atoms: N_4  and  C_5
REMARK    5  A    between atoms: C_5  and  C_6
REMARK    6  A    between atoms: C_6  and  O_7
REMARK    7  A    between atoms: C_6  and  C_8
REMARK    8  A    between atoms: C_8  and  O_9
REMARK    9  A    between atoms: O_9  and  C_10
REMARK   10  A    between atoms: C_11  and  C_12
REMARK   11  A    between atoms: C_12  and  C_13
REMARK   12  A    between atoms: C_12  and  C_14
REMARK   13  A    between atoms: C_12  and  C_15
REMARK   14  A    between atoms: C_17  and  S_18
REMARK   15  A    between atoms: S_18  and  C_21
REMARK   16  A    between atoms: C_29  and  C_30
REMARK   17  A    between atoms: C_30  and  C_31
REMARK   18  A    between atoms: C_30  and  C_32
REMARK   19  A    between atoms: C_30  and  C_33
REMARK                            x       y       z     vdW  Elec       q    Type
REMARK                         _______ _______ _______ _____ _____    ______ ____
ROOT
ATOM      1  C   UNL     1      -1.494  11.844  19.006  0.00  0.00    +0.000 A 
ATOM      2  C   UNL     1      -1.090  12.674  20.110  0.00  0.00    +0.000 A 
ATOM      3  C   UNL     1      -2.119  13.121  20.980  0.00  0.00    +0.000 A 
ATOM      4  C   UNL     1      -3.464  12.918  20.709  0.00  0.00    +0.000 A 
ATOM      5  C   UNL     1      -3.843  12.254  19.548  0.00  0.00    +0.000 A 
ATOM      6  C   UNL     1      -2.894  11.665  18.679  0.00  0.00    +0.000 A 
ENDROOT
BRANCH   2   7
ATOM      7  C   UNL     1       0.328  13.224  20.458  0.00  0.00    +0.000 C 
ATOM      8  C   UNL     1       1.404  12.218  20.870  0.00  0.00    +0.000 C 
ATOM      9  C   UNL     1       0.983  13.912  19.229  0.00  0.00    +0.000 C 
ATOM     10  C   UNL     1       0.188  14.272  21.591  0.00  0.00    +0.000 C 
ENDBRANCH   2   7
BRANCH   6  11
ATOM     11  C   UNL     1      -3.480  10.981  17.397  0.00  0.00    +0.000 C 
ATOM     12  C   UNL     1      -3.514   9.451  17.614  0.00  0.00    +0.000 C 
ATOM     13  C   UNL     1      -4.892  11.465  17.015  0.00  0.00    +0.000 C 
ATOM     14  C   UNL     1      -2.631  11.210  16.104  0.00  0.00    +0.000 C 
ENDBRANCH   6  11
BRANCH   4  15
ATOM     15  S   UNL     1      -4.708  13.648  21.772  0.00  0.00    +0.000 S 
ATOM     16  O   UNL     1      -5.509  14.521  20.940  0.00  0.00    +0.000 OA
ATOM     17  O   UNL     1      -5.331  12.577  22.525  0.00  0.00    +0.000 OA
BRANCH  15  18
ATOM     18  C   UNL     1      -3.842  14.658  22.961  0.00  0.00    +0.000 A 
ATOM     19  C   UNL     1      -3.488  15.972  22.636  0.00  0.00    +0.000 A 
ATOM     20  C   UNL     1      -2.857  16.775  23.590  0.00  0.00    +0.000 A 
ATOM     21  C   UNL     1      -2.585  16.260  24.861  0.00  0.00    +0.000 A 
ATOM     22 CL   UNL     1      -1.823  17.254  26.040  0.00  0.00    +0.000 Cl
ATOM     23  C   UNL     1      -2.939  14.947  25.186  0.00  0.00    +0.000 A 
ATOM     24  C   UNL     1      -3.569  14.141  24.236  0.00  0.00    +0.000 A 
ENDBRANCH  15  18
ENDBRANCH   4  15
BRANCH   1  25
ATOM     25  O   UNL     1      -0.555  11.288  18.159  0.00  0.00    +0.000 OA
BRANCH  25  26
ATOM     26  C   UNL     1      -0.157   9.934  18.495  0.00  0.00    +0.000 C 
BRANCH  26  27
ATOM     27  C   UNL     1       1.405   9.821  18.493  0.00  0.00    +0.000 C 
BRANCH  27  28
ATOM     28  O   UNL     1       1.982  10.455  17.340  0.00  0.00    +0.000 OA
ATOM     29  H   UNL     1       1.930   9.838  16.589  0.00  0.00    +0.000 HD
ENDBRANCH  27  28
BRANCH  27  30
ATOM     30  C   UNL     1       1.877   8.336  18.561  0.00  0.00    +0.000 C 
BRANCH  30  31
ATOM     31  N   UNL     1       3.128   8.119  17.812  0.00  0.00    +0.000 NA
ATOM     32  H   UNL     1       3.021   8.553  16.891  0.00  0.00    +0.000 HD
BRANCH  31  34
ATOM     33  C   UNL     1       4.840   6.596  16.939  0.00  0.00    +0.000 C 
ATOM     34  C   UNL     1       3.498   6.702  17.674  0.00  0.00    +0.000 C 
ATOM     35  C   UNL     1       3.621   5.991  19.027  0.00  0.00    +0.000 C 
ENDBRANCH  31  34
ENDBRANCH  30  31
ENDBRANCH  27  30
ENDBRANCH  26  27
ENDBRANCH  25  26
ENDBRANCH   1  25
TORSDOF 11
ENDMDL
MODEL 5
REMARK VINA RESULT:      -5.8      1.912      2.748
REMARK  Name = 
REMARK  19 active torsions:
REMARK  status: ('A' for Active; 'I' for Inactive)
REMARK    1  A    between atoms: C_1  and  C_2
REMARK    2  A    between atoms: C_2  and  C_3
REMARK    3  A    between atoms: C_2  and  N_4
REMARK    4  A    between atoms: N_4  and  C_5
REMARK    5  A    between atoms: C_5  and  C_6
REMARK    6  A    between atoms: C_6  and  O_7
REMARK    7  A    between atoms: C_6  and  C_8
REMARK    8  A    between atoms: C_8  and  O_9
REMARK    9  A    between atoms: O_9  and  C_10
REMARK   10  A    between atoms: C_11  and  C_12
REMARK   11  A    between atoms: C_12  and  C_13
REMARK   12  A    between atoms: C_12  and  C_14
REMARK   13  A    between atoms: C_12  and  C_15
REMARK   14  A    between atoms: C_17  and  S_18
REMARK   15  A    between atoms: S_18  and  C_21
REMARK   16  A    between atoms: C_29  and  C_30
REMARK   17  A    between atoms: C_30  and  C_31
REMARK   18  A    between atoms: C_30  and  C_32
REMARK   19  A    between atoms: C_30  and  C_33
REMARK                            x       y       z     vdW  Elec       q    Type
REMARK                         _______ _______ _______ _____ _____    ______ ____
ROOT
ATOM      1  C   UNL     1      -3.777  12.342  19.579  0.00  0.00    +0.000 A 
ATOM      2  C   UNL     1      -2.846  12.773  20.589  0.00  0.00    +0.000 A 
ATOM      3  C   UNL     1      -3.371  12.976  21.892  0.00  0.00    +0.000 A 
ATOM      4  C   UNL     1      -4.731  12.930  22.164  0.00  0.00    +0.000 A 
ATOM      5  C   UNL     1      -5.632  12.674  21.135  0.00  0.00    +0.000 A 
ATOM      6  C   UNL     1      -5.204  12.338  19.830  0.00  0.00    +0.000 A 
ENDROOT
BRANCH   2   7
ATOM      7  C   UNL     1      -1.333  13.122  20.446  0.00  0.00    +0.000 C 
ATOM      8  C   UNL     1      -0.810  13.480  19.054  0.00  0.00    +0.000 C 
ATOM      9  C   UNL     1      -0.967  14.391  21.263  0.00  0.00    +0.000 C 
ATOM     10  C   UNL     1      -0.497  11.933  20.984  0.00  0.00    +0.000 C 
ENDBRANCH   2   7
BRANCH   6  11
ATOM     11  C   UNL     1      -6.343  12.111  18.778  0.00  0.00    +0.000 C 
ATOM     12  C   UNL     1      -7.660  12.702  19.327  0.00  0.00    +0.000 C 
ATOM     13  C   UNL     1      -6.054  12.725  17.395  0.00  0.00    +0.000 C 
ATOM     14  C   UNL     1      -6.643  10.606  18.476  0.00  0.00    +0.000 C 
ENDBRANCH   6  11
BRANCH   4  15
ATOM     15  S   UNL     1      -5.329  13.353  23.798  0.00  0.00    +0.000 S 
ATOM     16  O   UNL     1      -6.700  13.791  23.641  0.00  0.00    +0.000 OA
ATOM     17  O   UNL     1      -5.008  12.253  24.686  0.00  0.00    +0.000 OA
BRANCH  15  18
ATOM     18  C   UNL     1      -4.363  14.745  24.356  0.00  0.00    +0.000 A 
ATOM     19  C   UNL     1      -4.882  16.041  24.257  0.00  0.00    +0.000 A 
ATOM     20  C   UNL     1      -4.143  17.122  24.744  0.00  0.00    +0.000 A 
ATOM     21  C   UNL     1      -2.892  16.900  25.328  0.00  0.00    +0.000 A 
ATOM     22 CL   UNL     1      -1.989  18.230  25.942  0.00  0.00    +0.000 Cl
ATOM     23  C   UNL     1      -2.373  15.606  25.428  0.00  0.00    +0.000 A 
ATOM     24  C   UNL     1      -3.108  14.523  24.942  0.00  0.00    +0.000 A 
ENDBRANCH  15  18
ENDBRANCH   4  15
BRANCH   1  25
ATOM     25  O   UNL     1      -3.342  12.032  18.305  0.00  0.00    +0.000 OA
BRANCH  25  26
ATOM     26  C   UNL     1      -2.977  10.642  18.107  0.00  0.00    +0.000 C 
BRANCH  26  27
ATOM     27  C   UNL     1      -1.773  10.543  17.112  0.00  0.00    +0.000 C 
BRANCH  27  28
ATOM     28  O   UNL     1      -2.193  10.099  15.811  0.00  0.00    +0.000 OA
ATOM     29  H   UNL     1      -3.166  10.085  15.787  0.00  0.00    +0.000 HD
ENDBRANCH  27  28
BRANCH  27  30
ATOM     30  C   UNL     1      -0.656   9.595  17.648  0.00  0.00    +0.000 C 
BRANCH  30  31
ATOM     31  N   UNL     1       0.580  10.329  17.979  0.00  0.00    +0.000 NA
ATOM     32  H   UNL     1       0.938  10.744  17.115  0.00  0.00    +0.000 HD
BRANCH  31  34
ATOM     33  C   UNL     1       1.071   8.945  19.942  0.00  0.00    +0.000 C 
ATOM     34  C   UNL     1       1.611   9.497  18.617  0.00  0.00    +0.000 C 
ATOM     35  C   UNL     1       2.046   8.320  17.736  0.00  0.00    +0.000 C 
ENDBRANCH  31  34
ENDBRANCH  30  31
ENDBRANCH  27  30
ENDBRANCH  26  27
ENDBRANCH  25  26
ENDBRANCH   1  25
TORSDOF 11
ENDMDL
MODEL 6
REMARK VINA RESULT:      -5.7      1.714      2.482
REMARK  Name = 
REMARK  19 active torsions:
REMARK  status: ('A' for Active; 'I' for Inactive)
REMARK    1  A    between atoms: C_1  and  C_2
REMARK    2  A    between atoms: C_2  and  C_3
REMARK    3  A    between atoms: C_2  and  N_4
REMARK    4  A    between atoms: N_4  and  C_5
REMARK    5  A    between atoms: C_5  and  C_6
REMARK    6  A    between atoms: C_6  and  O_7
REMARK    7  A    between atoms: C_6  and  C_8
REMARK    8  A    between atoms: C_8  and  O_9
REMARK    9  A    between atoms: O_9  and  C_10
REMARK   10  A    between atoms: C_11  and  C_12
REMARK   11  A    between atoms: C_12  and  C_13
REMARK   12  A    between atoms: C_12  and  C_14
REMARK   13  A    between atoms: C_12  and  C_15
REMARK   14  A    between atoms: C_17  and  S_18
REMARK   15  A    between atoms: S_18  and  C_21
REMARK   16  A    between atoms: C_29  and  C_30
REMARK   17  A    between atoms: C_30  and  C_31
REMARK   18  A    between atoms: C_30  and  C_32
REMARK   19  A    between atoms: C_30  and  C_33
REMARK                            x       y       z     vdW  Elec       q    Type
REMARK                         _______ _______ _______ _____ _____    ______ ____
ROOT
ATOM      1  C   UNL     1      -2.052  12.320  19.029  0.00  0.00    +0.000 A 
ATOM      2  C   UNL     1      -1.632  13.295  20.001  0.00  0.00    +0.000 A 
ATOM      3  C   UNL     1      -2.566  13.623  21.018  0.00  0.00    +0.000 A 
ATOM      4  C   UNL     1      -3.876  13.165  21.003  0.00  0.00    +0.000 A 
ATOM      5  C   UNL     1      -4.312  12.353  19.961  0.00  0.00    +0.000 A 
ATOM      6  C   UNL     1      -3.428  11.872  18.966  0.00  0.00    +0.000 A 
ENDROOT
BRANCH   2   7
ATOM      7  C   UNL     1      -0.305  14.113  20.062  0.00  0.00    +0.000 C 
ATOM      8  C   UNL     1       0.485  14.292  18.765  0.00  0.00    +0.000 C 
ATOM      9  C   UNL     1      -0.567  15.584  20.486  0.00  0.00    +0.000 C 
ATOM     10  C   UNL     1       0.631  13.459  21.111  0.00  0.00    +0.000 C 
ENDBRANCH   2   7
BRANCH   6  11
ATOM     11  C   UNL     1      -4.081  10.993  17.845  0.00  0.00    +0.000 C 
ATOM     12  C   UNL     1      -5.610  10.961  18.058  0.00  0.00    +0.000 C 
ATOM     13  C   UNL     1      -3.783  11.478  16.414  0.00  0.00    +0.000 C 
ATOM     14  C   UNL     1      -3.616   9.500  17.850  0.00  0.00    +0.000 C 
ENDBRANCH   6  11
BRANCH   4  15
ATOM     15  S   UNL     1      -5.039  13.748  22.234  0.00  0.00    +0.000 S 
ATOM     16  O   UNL     1      -5.989  14.595  21.544  0.00  0.00    +0.000 OA
ATOM     17  O   UNL     1      -5.496  12.599  22.991  0.00  0.00    +0.000 OA
BRANCH  15  18
ATOM     18  C   UNL     1      -4.117  14.765  23.374  0.00  0.00    +0.000 A 
ATOM     19  C   UNL     1      -3.531  14.189  24.506  0.00  0.00    +0.000 A 
ATOM     20  C   UNL     1      -2.766  14.980  25.368  0.00  0.00    +0.000 A 
ATOM     21  C   UNL     1      -2.593  16.340  25.091  0.00  0.00    +0.000 A 
ATOM     22 CL   UNL     1      -1.638  17.309  26.144  0.00  0.00    +0.000 Cl
ATOM     23  C   UNL     1      -3.179  16.915  23.960  0.00  0.00    +0.000 A 
ATOM     24  C   UNL     1      -3.944  16.128  23.097  0.00  0.00    +0.000 A 
ENDBRANCH  15  18
ENDBRANCH   4  15
BRANCH   1  25
ATOM     25  O   UNL     1      -1.180  11.872  18.056  0.00  0.00    +0.000 OA
BRANCH  25  26
ATOM     26  C   UNL     1      -0.677  10.527  18.261  0.00  0.00    +0.000 C 
BRANCH  26  27
ATOM     27  C   UNL     1       0.826  10.579  18.698  0.00  0.00    +0.000 C 
BRANCH  27  28
ATOM     28  O   UNL     1       1.708  10.285  17.603  0.00  0.00    +0.000 OA
ATOM     29  H   UNL     1       1.721   9.322  17.464  0.00  0.00    +0.000 HD
ENDBRANCH  27  28
BRANCH  27  30
ATOM     30  C   UNL     1       1.119   9.603  19.879  0.00  0.00    +0.000 C 
BRANCH  30  31
ATOM     31  N   UNL     1       1.059  10.283  21.186  0.00  0.00    +0.000 NA
ATOM     32  H   UNL     1       2.019  10.417  21.513  0.00  0.00    +0.000 HD
BRANCH  31  34
ATOM     33  C   UNL     1      -0.783  10.506  22.788  0.00  0.00    +0.000 C 
ATOM     34  C   UNL     1       0.268   9.561  22.193  0.00  0.00    +0.000 C 
ATOM     35  C   UNL     1      -0.447   8.334  21.613  0.00  0.00    +0.000 C 
ENDBRANCH  31  34
ENDBRANCH  30  31
ENDBRANCH  27  30
ENDBRANCH  26  27
ENDBRANCH  25  26
ENDBRANCH   1  25
TORSDOF 11
ENDMDL
MODEL 7
REMARK VINA RESULT:      -5.7      2.306      4.238
REMARK  Name = 
REMARK  19 active torsions:
REMARK  status: ('A' for Active; 'I' for Inactive)
REMARK    1  A    between atoms: C_1  and  C_2
REMARK    2  A    between atoms: C_2  and  C_3
REMARK    3  A    between atoms: C_2  and  N_4
REMARK    4  A    between atoms: N_4  and  C_5
REMARK    5  A    between atoms: C_5  and  C_6
REMARK    6  A    between atoms: C_6  and  O_7
REMARK    7  A    between atoms: C_6  and  C_8
REMARK    8  A    between atoms: C_8  and  O_9
REMARK    9  A    between atoms: O_9  and  C_10
REMARK   10  A    between atoms: C_11  and  C_12
REMARK   11  A    between atoms: C_12  and  C_13
REMARK   12  A    between atoms: C_12  and  C_14
REMARK   13  A    between atoms: C_12  and  C_15
REMARK   14  A    between atoms: C_17  and  S_18
REMARK   15  A    between atoms: S_18  and  C_21
REMARK   16  A    between atoms: C_29  and  C_30
REMARK   17  A    between atoms: C_30  and  C_31
REMARK   18  A    between atoms: C_30  and  C_32
REMARK   19  A    between atoms: C_30  and  C_33
REMARK                            x       y       z     vdW  Elec       q    Type
REMARK                         _______ _______ _______ _____ _____    ______ ____
ROOT
ATOM      1  C   UNL     1      -0.013  12.156  21.080  0.00  0.00    +0.000 A 
ATOM      2  C   UNL     1      -0.523  11.080  21.890  0.00  0.00    +0.000 A 
ATOM      3  C   UNL     1      -1.792  11.283  22.491  0.00  0.00    +0.000 A 
ATOM      4  C   UNL     1      -2.450  12.503  22.450  0.00  0.00    +0.000 A 
ATOM      5  C   UNL     1      -1.863  13.583  21.799  0.00  0.00    +0.000 A 
ATOM      6  C   UNL     1      -0.659  13.453  21.067  0.00  0.00    +0.000 A 
ENDROOT
BRANCH   2   7
ATOM      7  C   UNL     1       0.158   9.728  22.268  0.00  0.00    +0.000 C 
ATOM      8  C   UNL     1       1.654   9.577  21.987  0.00  0.00    +0.000 C 
ATOM      9  C   UNL     1       0.091   9.473  23.799  0.00  0.00    +0.000 C 
ATOM     10  C   UNL     1      -0.588   8.578  21.545  0.00  0.00    +0.000 C 
ENDBRANCH   2   7
BRANCH   6  11
ATOM     11  C   UNL     1      -0.112  14.769  20.419  0.00  0.00    +0.000 C 
ATOM     12  C   UNL     1       1.346  14.988  20.880  0.00  0.00    +0.000 C 
ATOM     13  C   UNL     1      -0.158  14.779  18.880  0.00  0.00    +0.000 C 
ATOM     14  C   UNL     1      -0.890  16.060  20.837  0.00  0.00    +0.000 C 
ENDBRANCH   6  11
BRANCH   4  15
ATOM     15  S   UNL     1      -3.973  12.727  23.366  0.00  0.00    +0.000 S 
ATOM     16  O   UNL     1      -5.052  12.672  22.402  0.00  0.00    +0.000 OA
ATOM     17  O   UNL     1      -3.950  11.815  24.493  0.00  0.00    +0.000 OA
BRANCH  15  18
ATOM     18  C   UNL     1      -3.926  14.372  24.053  0.00  0.00    +0.000 A 
ATOM     19  C   UNL     1      -2.859  14.757  24.871  0.00  0.00    +0.000 A 
ATOM     20  C   UNL     1      -2.800  16.064  25.363  0.00  0.00    +0.000 A 
ATOM     21  C   UNL     1      -3.808  16.976  25.034  0.00  0.00    +0.000 A 
ATOM     22 CL   UNL     1      -3.726  18.589  25.627  0.00  0.00    +0.000 Cl
ATOM     23  C   UNL     1      -4.874  16.591  24.215  0.00  0.00    +0.000 A 
ATOM     24  C   UNL     1      -4.937  15.287  23.721  0.00  0.00    +0.000 A 
ENDBRANCH  15  18
ENDBRANCH   4  15
BRANCH   1  25
ATOM     25  O   UNL     1       1.171  12.015  20.383  0.00  0.00    +0.000 OA
BRANCH  25  26
ATOM     26  C   UNL     1       1.020  11.872  18.947  0.00  0.00    +0.000 C 
BRANCH  26  27
ATOM     27  C   UNL     1       0.943  10.356  18.566  0.00  0.00    +0.000 C 
BRANCH  27  28
ATOM     28  O   UNL     1       1.763  10.051  17.427  0.00  0.00    +0.000 OA
ATOM     29  H   UNL     1       1.186   9.918  16.655  0.00  0.00    +0.000 HD
ENDBRANCH  27  28
BRANCH  27  30
ATOM     30  C   UNL     1      -0.524   9.904  18.286  0.00  0.00    +0.000 C 
BRANCH  30  31
ATOM     31  N   UNL     1      -1.142  10.678  17.194  0.00  0.00    +0.000 NA
ATOM     32  H   UNL     1      -1.411  11.590  17.571  0.00  0.00    +0.000 HD
BRANCH  31  34
ATOM     33  C   UNL     1      -3.322   9.659  17.664  0.00  0.00    +0.000 C 
ATOM     34  C   UNL     1      -2.300  10.012  16.577  0.00  0.00    +0.000 C 
ATOM     35  C   UNL     1      -2.987  10.886  15.521  0.00  0.00    +0.000 C 
ENDBRANCH  31  34
ENDBRANCH  30  31
ENDBRANCH  27  30
ENDBRANCH  26  27
ENDBRANCH  25  26
ENDBRANCH   1  25
TORSDOF 11
ENDMDL
MODEL 8
REMARK VINA RESULT:      -5.7      1.892      2.821
REMARK  Name = 
REMARK  19 active torsions:
REMARK  status: ('A' for Active; 'I' for Inactive)
REMARK    1  A    between atoms: C_1  and  C_2
REMARK    2  A    between atoms: C_2  and  C_3
REMARK    3  A    between atoms: C_2  and  N_4
REMARK    4  A    between atoms: N_4  and  C_5
REMARK    5  A    between atoms: C_5  and  C_6
REMARK    6  A    between atoms: C_6  and  O_7
REMARK    7  A    between atoms: C_6  and  C_8
REMARK    8  A    between atoms: C_8  and  O_9
REMARK    9  A    between atoms: O_9  and  C_10
REMARK   10  A    between atoms: C_11  and  C_12
REMARK   11  A    between atoms: C_12  and  C_13
REMARK   12  A    between atoms: C_12  and  C_14
REMARK   13  A    between atoms: C_12  and  C_15
REMARK   14  A    between atoms: C_17  and  S_18
REMARK   15  A    between atoms: S_18  and  C_21
REMARK   16  A    between atoms: C_29  and  C_30
REMARK   17  A    between atoms: C_30  and  C_31
REMARK   18  A    between atoms: C_30  and  C_32
REMARK   19  A    between atoms: C_30  and  C_33
REMARK                            x       y       z     vdW  Elec       q    Type
REMARK                         _______ _______ _______ _____ _____    ______ ____
ROOT
ATOM      1  C   UNL     1      -3.798  12.312  19.626  0.00  0.00    +0.000 A 
ATOM      2  C   UNL     1      -2.890  12.718  20.667  0.00  0.00    +0.000 A 
ATOM      3  C   UNL     1      -3.450  12.922  21.955  0.00  0.00    +0.000 A 
ATOM      4  C   UNL     1      -4.817  12.898  22.187  0.00  0.00    +0.000 A 
ATOM      5  C   UNL     1      -5.693  12.666  21.131  0.00  0.00    +0.000 A 
ATOM      6  C   UNL     1      -5.232  12.332  19.836  0.00  0.00    +0.000 A 
ENDROOT
BRANCH   2   7
ATOM      7  C   UNL     1      -1.367  13.040  20.571  0.00  0.00    +0.000 C 
ATOM      8  C   UNL     1      -0.380  11.880  20.705  0.00  0.00    +0.000 C 
ATOM      9  C   UNL     1      -1.000  13.616  19.176  0.00  0.00    +0.000 C 
ATOM     10  C   UNL     1      -1.016  14.099  21.647  0.00  0.00    +0.000 C 
ENDBRANCH   2   7
BRANCH   6  11
ATOM     11  C   UNL     1      -6.343  12.132  18.750  0.00  0.00    +0.000 C 
ATOM     12  C   UNL     1      -6.616  10.621  18.581  0.00  0.00    +0.000 C 
ATOM     13  C   UNL     1      -7.669  12.849  19.068  0.00  0.00    +0.000 C 
ATOM     14  C   UNL     1      -5.952  12.657  17.329  0.00  0.00    +0.000 C 
ENDBRANCH   6  11
BRANCH   4  15
ATOM     15  S   UNL     1      -5.456  13.321  23.806  0.00  0.00    +0.000 S 
ATOM     16  O   UNL     1      -6.817  13.775  23.614  0.00  0.00    +0.000 OA
ATOM     17  O   UNL     1      -5.171  12.213  24.698  0.00  0.00    +0.000 OA
BRANCH  15  18
ATOM     18  C   UNL     1      -4.490  14.700  24.397  0.00  0.00    +0.000 A 
ATOM     19  C   UNL     1      -3.251  14.475  25.006  0.00  0.00    +0.000 A 
ATOM     20  C   UNL     1      -2.475  15.562  25.419  0.00  0.00    +0.000 A 
ATOM     21  C   UNL     1      -2.944  16.864  25.222  0.00  0.00    +0.000 A 
ATOM     22 CL   UNL     1      -1.981  18.202  25.717  0.00  0.00    +0.000 Cl
ATOM     23  C   UNL     1      -4.182  17.089  24.613  0.00  0.00    +0.000 A 
ATOM     24  C   UNL     1      -4.961  16.006  24.199  0.00  0.00    +0.000 A 
ENDBRANCH  15  18
ENDBRANCH   4  15
BRANCH   1  25
ATOM     25  O   UNL     1      -3.332  12.003  18.364  0.00  0.00    +0.000 OA
BRANCH  25  26
ATOM     26  C   UNL     1      -2.928  10.620  18.184  0.00  0.00    +0.000 C 
BRANCH  26  27
ATOM     27  C   UNL     1      -1.698  10.545  17.219  0.00  0.00    +0.000 C 
BRANCH  27  28
ATOM     28  O   UNL     1      -2.080  10.109  15.904  0.00  0.00    +0.000 OA
ATOM     29  H   UNL     1      -2.364   9.180  15.955  0.00  0.00    +0.000 HD
ENDBRANCH  27  28
BRANCH  27  30
ATOM     30  C   UNL     1      -0.584   9.605  17.775  0.00  0.00    +0.000 C 
BRANCH  30  31
ATOM     31  N   UNL     1       0.744  10.244  17.746  0.00  0.00    +0.000 NA
ATOM     32  H   UNL     1       1.014  10.361  16.766  0.00  0.00    +0.000 HD
BRANCH  31  34
ATOM     33  C   UNL     1       1.172   8.922  19.766  0.00  0.00    +0.000 C 
ATOM     34  C   UNL     1       1.777   9.497  18.479  0.00  0.00    +0.000 C 
ATOM     35  C   UNL     1       2.369   8.346  17.657  0.00  0.00    +0.000 C 
ENDBRANCH  31  34
ENDBRANCH  30  31
ENDBRANCH  27  30
ENDBRANCH  26  27
ENDBRANCH  25  26
ENDBRANCH   1  25
TORSDOF 11
ENDMDL
MODEL 9
REMARK VINA RESULT:      -5.6      4.100      7.982
REMARK  Name = 
REMARK  19 active torsions:
REMARK  status: ('A' for Active; 'I' for Inactive)
REMARK    1  A    between atoms: C_1  and  C_2
REMARK    2  A    between atoms: C_2  and  C_3
REMARK    3  A    between atoms: C_2  and  N_4
REMARK    4  A    between atoms: N_4  and  C_5
REMARK    5  A    between atoms: C_5  and  C_6
REMARK    6  A    between atoms: C_6  and  O_7
REMARK    7  A    between atoms: C_6  and  C_8
REMARK    8  A    between atoms: C_8  and  O_9
REMARK    9  A    between atoms: O_9  and  C_10
REMARK   10  A    between atoms: C_11  and  C_12
REMARK   11  A    between atoms: C_12  and  C_13
REMARK   12  A    between atoms: C_12  and  C_14
REMARK   13  A    between atoms: C_12  and  C_15
REMARK   14  A    between atoms: C_17  and  S_18
REMARK   15  A    between atoms: S_18  and  C_21
REMARK   16  A    between atoms: C_29  and  C_30
REMARK   17  A    between atoms: C_30  and  C_31
REMARK   18  A    between atoms: C_30  and  C_32
REMARK   19  A    between atoms: C_30  and  C_33
REMARK                            x       y       z     vdW  Elec       q    Type
REMARK                         _______ _______ _______ _____ _____    ______ ____
ROOT
ATOM      1  C   UNL     1      -3.450  12.477  19.503  0.00  0.00    +0.000 A 
ATOM      2  C   UNL     1      -2.735  13.010  20.633  0.00  0.00    +0.000 A 
ATOM      3  C   UNL     1      -1.321  12.900  20.599  0.00  0.00    +0.000 A 
ATOM      4  C   UNL     1      -0.652  12.178  19.622  0.00  0.00    +0.000 A 
ATOM      5  C   UNL     1      -1.375  11.529  18.626  0.00  0.00    +0.000 A 
ATOM      6  C   UNL     1      -2.776  11.676  18.502  0.00  0.00    +0.000 A 
ENDROOT
BRANCH   2   7
ATOM      7  C   UNL     1      -3.298  13.639  21.945  0.00  0.00    +0.000 C 
ATOM      8  C   UNL     1      -2.326  14.397  22.850  0.00  0.00    +0.000 C 
ATOM      9  C   UNL     1      -4.365  14.725  21.636  0.00  0.00    +0.000 C 
ATOM     10  C   UNL     1      -3.965  12.520  22.784  0.00  0.00    +0.000 C 
ENDBRANCH   2   7
BRANCH   6  11
ATOM     11  C   UNL     1      -3.446  10.855  17.348  0.00  0.00    +0.000 C 
ATOM     12  C   UNL     1      -3.926   9.498  17.909  0.00  0.00    +0.000 C 
ATOM     13  C   UNL     1      -4.634  11.569  16.675  0.00  0.00    +0.000 C 
ATOM     14  C   UNL     1      -2.483  10.511  16.164  0.00  0.00    +0.000 C 
ENDBRANCH   6  11
BRANCH   4  15
ATOM     15  S   UNL     1       1.122  11.952  19.736  0.00  0.00    +0.000 S 
ATOM     16  O   UNL     1       1.702  12.614  18.586  0.00  0.00    +0.000 OA
ATOM     17  O   UNL     1       1.530  12.320  21.078  0.00  0.00    +0.000 OA
BRANCH  15  18
ATOM     18  C   UNL     1       1.430  10.202  19.581  0.00  0.00    +0.000 A 
ATOM     19  C   UNL     1       1.863   9.674  18.360  0.00  0.00    +0.000 A 
ATOM     20  C   UNL     1       2.154   8.311  18.259  0.00  0.00    +0.000 A 
ATOM     21  C   UNL     1       2.011   7.486  19.379  0.00  0.00    +0.000 A 
ATOM     22 CL   UNL     1       2.384   5.811  19.259  0.00  0.00    +0.000 Cl
ATOM     23  C   UNL     1       1.579   8.013  20.600  0.00  0.00    +0.000 A 
ATOM     24  C   UNL     1       1.287   9.375  20.705  0.00  0.00    +0.000 A 
ENDBRANCH  15  18
ENDBRANCH   4  15
BRANCH   1  25
ATOM     25  O   UNL     1      -4.821  12.619  19.405  0.00  0.00    +0.000 OA
BRANCH  25  26
ATOM     26  C   UNL     1      -5.590  11.659  20.175  0.00  0.00    +0.000 C 
BRANCH  26  27
ATOM     27  C   UNL     1      -7.120  11.937  19.999  0.00  0.00    +0.000 C 
BRANCH  27  28
ATOM     28  O   UNL     1      -7.622  11.391  18.769  0.00  0.00    +0.000 OA
ATOM     29  H   UNL     1      -8.367  10.799  18.972  0.00  0.00    +0.000 HD
ENDBRANCH  27  28
BRANCH  27  30
ATOM     30  C   UNL     1      -7.442  13.462  20.060  0.00  0.00    +0.000 C 
BRANCH  30  31
ATOM     31  N   UNL     1      -7.900  13.983  18.759  0.00  0.00    +0.000 NA
ATOM     32  H   UNL     1      -8.069  13.183  18.144  0.00  0.00    +0.000 HD
BRANCH  31  34
ATOM     33  C   UNL     1      -6.816  14.588  16.645  0.00  0.00    +0.000 C 
ATOM     34  C   UNL     1      -6.959  14.925  18.134  0.00  0.00    +0.000 C 
ATOM     35  C   UNL     1      -7.411  16.384  18.266  0.00  0.00    +0.000 C 
ENDBRANCH  31  34
ENDBRANCH  30  31
ENDBRANCH  27  30
ENDBRANCH  26  27
ENDBRANCH  25  26
ENDBRANCH   1  25
TORSDOF 11
ENDMDL
