MODEL 1
REMARK VINA RESULT:      -9.2      0.000      0.000
REMARK  Name = 
REMARK  8 active torsions:
REMARK  status: ('A' for Active; 'I' for Inactive)
REMARK    1  A    between atoms: C_1  and  C_2
REMARK    2  A    between atoms: C_2  and  C_3
REMARK    3  A    between atoms: C_2  and  C_4
REMARK    4  A    between atoms: C_2  and  C_5
REMARK    5  A    between atoms: C_8  and  C_9
REMARK    6  A    between atoms: N_11  and  C_12
REMARK    7  A    between atoms: C_16  and  C_17
REMARK    8  A    between atoms: C_17  and  C_18
REMARK                            x       y       z     vdW  Elec       q    Type
REMARK                         _______ _______ _______ _____ _____    ______ ____
ROOT
ATOM      1  C   UNL     1       1.673   5.068  20.422  0.00  0.00    +0.000 A 
ATOM      2  C   UNL     1       0.855   3.948  20.583  0.00  0.00    +0.000 A 
ATOM      3  C   UNL     1       1.338   2.663  20.330  0.00  0.00    +0.000 A 
ATOM      4  C   UNL     1       2.656   2.481  19.923  0.00  0.00    +0.000 A 
ATOM      5  C   UNL     1       3.500   3.585  19.758  0.00  0.00    +0.000 A 
ATOM      6  C   UNL     1       2.986   4.881  19.972  0.00  0.00    +0.000 A 
ENDROOT
BRANCH   1   9
ATOM      7  C   UNL     1       1.706   7.524  20.081  0.00  0.00    +0.000 C 
ATOM      8  O   UNL     1       2.537   7.556  19.176  0.00  0.00    +0.000 OA
ATOM      9  N   UNL     1       1.239   6.384  20.719  0.00  0.00    +0.000 N 
ATOM     10  H   UNL     1       0.408   6.471  21.289  0.00  0.00    +0.000 HD
BRANCH   7  14
ATOM     11  C   UNL     1      -0.234  11.164  21.363  0.00  0.00    +0.000 A 
ATOM     12  C   UNL     1       0.084  10.125  22.249  0.00  0.00    +0.000 A 
ATOM     13  C   UNL     1       0.726   8.968  21.808  0.00  0.00    +0.000 A 
ATOM     14  C   UNL     1       1.081   8.813  20.466  0.00  0.00    +0.000 A 
ATOM     15  C   UNL     1       0.774   9.827  19.559  0.00  0.00    +0.000 A 
ATOM     16  C   UNL     1       0.121  10.988  20.007  0.00  0.00    +0.000 A 
BRANCH  11  18
ATOM     17  C   UNL     1       0.015  13.649  22.010  0.00  0.00    +0.000 C 
ATOM     18  C   UNL     1      -0.944  12.445  21.840  0.00  0.00    +0.000 C 
ATOM     19  C   UNL     1      -1.619  12.206  23.207  0.00  0.00    +0.000 C 
ATOM     20  C   UNL     1      -2.018  12.862  20.813  0.00  0.00    +0.000 C 
ENDBRANCH  11  18
ENDBRANCH   7  14
ENDBRANCH   1   9
BRANCH   5  21
ATOM     21  C   UNL     1       4.947   3.382  19.372  0.00  0.00    +0.000 C 
BRANCH  21  22
ATOM     22  C   UNL     1       5.308   4.044  18.046  0.00  0.00    +0.000 A 
ATOM     23  N   UNL     1       4.676   3.620  16.995  0.00  0.00    +0.000 NA
ATOM     24  N   UNL     1       4.979   4.198  15.804  0.00  0.00    +0.000 N 
ATOM     25  C   UNL     1       5.894   5.192  15.603  0.00  0.00    +0.000 A 
ATOM     26  O   UNL     1       6.143   5.638  14.488  0.00  0.00    +0.000 OA
ATOM     27  C   UNL     1       6.557   5.718  16.822  0.00  0.00    +0.000 A 
ATOM     28  C   UNL     1       6.312   5.158  18.020  0.00  0.00    +0.000 A 
ATOM     29  C   UNL     1       6.985   5.635  19.278  0.00  0.00    +0.000 C 
ATOM     30  C   UNL     1       8.151   6.596  19.022  0.00  0.00    +0.000 C 
ATOM     31  C   UNL     1       7.801   7.608  17.940  0.00  0.00    +0.000 C 
ATOM     32  C   UNL     1       7.475   6.894  16.628  0.00  0.00    +0.000 C 
ATOM     33  H   UNL     1       4.510   3.825  14.984  0.00  0.00    +0.000 HD
ENDBRANCH  21  22
ENDBRANCH   5  21
TORSDOF 5
ENDMDL
MODEL 2
REMARK VINA RESULT:      -9.1      0.282      1.195
REMARK  Name = 
REMARK  8 active torsions:
REMARK  status: ('A' for Active; 'I' for Inactive)
REMARK    1  A    between atoms: C_1  and  C_2
REMARK    2  A    between atoms: C_2  and  C_3
REMARK    3  A    between atoms: C_2  and  C_4
REMARK    4  A    between atoms: C_2  and  C_5
REMARK    5  A    between atoms: C_8  and  C_9
REMARK    6  A    between atoms: N_11  and  C_12
REMARK    7  A    between atoms: C_16  and  C_17
REMARK    8  A    between atoms: C_17  and  C_18
REMARK                            x       y       z     vdW  Elec       q    Type
REMARK                         _______ _______ _______ _____ _____    ______ ____
ROOT
ATOM      1  C   UNL     1       1.804   5.052  20.552  0.00  0.00    +0.000 A 
ATOM      2  C   UNL     1       0.997   3.927  20.741  0.00  0.00    +0.000 A 
ATOM      3  C   UNL     1       1.478   2.645  20.467  0.00  0.00    +0.000 A 
ATOM      4  C   UNL     1       2.781   2.471  20.012  0.00  0.00    +0.000 A 
ATOM      5  C   UNL     1       3.612   3.580  19.818  0.00  0.00    +0.000 A 
ATOM      6  C   UNL     1       3.100   4.873  20.054  0.00  0.00    +0.000 A 
ENDROOT
BRANCH   1   9
ATOM      7  C   UNL     1       1.688   7.491  20.121  0.00  0.00    +0.000 C 
ATOM      8  O   UNL     1       2.361   7.511  19.092  0.00  0.00    +0.000 OA
ATOM      9  N   UNL     1       1.374   6.366  20.867  0.00  0.00    +0.000 N 
ATOM     10  H   UNL     1       0.643   6.450  21.561  0.00  0.00    +0.000 HD
BRANCH   7  14
ATOM     11  C   UNL     1       0.065  11.338  21.228  0.00  0.00    +0.000 A 
ATOM     12  C   UNL     1       0.451  11.030  19.916  0.00  0.00    +0.000 A 
ATOM     13  C   UNL     1       0.956   9.772  19.586  0.00  0.00    +0.000 A 
ATOM     14  C   UNL     1       1.086   8.775  20.555  0.00  0.00    +0.000 A 
ATOM     15  C   UNL     1       0.715   9.052  21.871  0.00  0.00    +0.000 A 
ATOM     16  C   UNL     1       0.212  10.323  22.199  0.00  0.00    +0.000 A 
BRANCH  11  18
ATOM     17  C   UNL     1      -1.562  13.242  20.610  0.00  0.00    +0.000 C 
ATOM     18  C   UNL     1      -0.493  12.724  21.603  0.00  0.00    +0.000 C 
ATOM     19  C   UNL     1       0.643  13.768  21.633  0.00  0.00    +0.000 C 
ATOM     20  C   UNL     1      -1.157  12.663  22.994  0.00  0.00    +0.000 C 
ENDBRANCH  11  18
ENDBRANCH   7  14
ENDBRANCH   1   9
BRANCH   5  21
ATOM     21  C   UNL     1       5.045   3.386  19.378  0.00  0.00    +0.000 C 
BRANCH  21  22
ATOM     22  C   UNL     1       5.363   4.081  18.058  0.00  0.00    +0.000 A 
ATOM     23  N   UNL     1       4.704   3.674  17.015  0.00  0.00    +0.000 NA
ATOM     24  N   UNL     1       4.968   4.280  15.830  0.00  0.00    +0.000 N 
ATOM     25  C   UNL     1       5.868   5.288  15.626  0.00  0.00    +0.000 A 
ATOM     26  O   UNL     1       6.082   5.761  14.514  0.00  0.00    +0.000 OA
ATOM     27  C   UNL     1       6.561   5.793  16.837  0.00  0.00    +0.000 A 
ATOM     28  C   UNL     1       6.355   5.204  18.029  0.00  0.00    +0.000 A 
ATOM     29  C   UNL     1       7.059   5.660  19.277  0.00  0.00    +0.000 C 
ATOM     30  C   UNL     1       8.209   6.637  19.011  0.00  0.00    +0.000 C 
ATOM     31  C   UNL     1       7.818   7.670  17.962  0.00  0.00    +0.000 C 
ATOM     32  C   UNL     1       7.462   6.982  16.644  0.00  0.00    +0.000 C 
ATOM     33  H   UNL     1       4.480   3.922  15.015  0.00  0.00    +0.000 HD
ENDBRANCH  21  22
ENDBRANCH   5  21
TORSDOF 5
ENDMDL
MODEL 3
REMARK VINA RESULT:      -9.0      3.345      9.897
REMARK  Name = 
REMARK  8 active torsions:
REMARK  status: ('A' for Active; 'I' for Inactive)
REMARK    1  A    between atoms: C_1  and  C_2
REMARK    2  A    between atoms: C_2  and  C_3
REMARK    3  A    between atoms: C_2  and  C_4
REMARK    4  A    between atoms: C_2  and  C_5
REMARK    5  A    between atoms: C_8  and  C_9
REMARK    6  A    between atoms: N_11  and  C_12
REMARK    7  A    between atoms: C_16  and  C_17
REMARK    8  A    between atoms: C_17  and  C_18
REMARK                            x       y       z     vdW  Elec       q    Type
REMARK                         _______ _______ _______ _____ _____    ______ ____
ROOT
ATOM      1  C   UNL     1       0.228   9.669  21.347  0.00  0.00    +0.000 A 
ATOM      2  C   UNL     1      -0.153   9.583  22.688  0.00  0.00    +0.000 A 
ATOM      3  C   UNL     1      -0.999  10.536  23.257  0.00  0.00    +0.000 A 
ATOM      4  C   UNL     1      -1.488  11.584  22.485  0.00  0.00    +0.000 A 
ATOM      5  C   UNL     1      -1.127  11.693  21.137  0.00  0.00    +0.000 A 
ATOM      6  C   UNL     1      -0.234  10.750  20.586  0.00  0.00    +0.000 A 
ENDROOT
BRANCH   1   9
ATOM      7  C   UNL     1       1.471   8.768  19.400  0.00  0.00    +0.000 C 
ATOM      8  O   UNL     1       1.224   9.676  18.609  0.00  0.00    +0.000 OA
ATOM      9  N   UNL     1       1.042   8.695  20.716  0.00  0.00    +0.000 N 
ATOM     10  H   UNL     1       1.487   8.015  21.319  0.00  0.00    +0.000 HD
BRANCH   7  14
ATOM     11  C   UNL     1       4.089   5.719  17.815  0.00  0.00    +0.000 A 
ATOM     12  C   UNL     1       3.943   6.978  17.214  0.00  0.00    +0.000 A 
ATOM     13  C   UNL     1       3.102   7.948  17.759  0.00  0.00    +0.000 A 
ATOM     14  C   UNL     1       2.384   7.697  18.930  0.00  0.00    +0.000 A 
ATOM     15  C   UNL     1       2.504   6.454  19.550  0.00  0.00    +0.000 A 
ATOM     16  C   UNL     1       3.348   5.477  18.993  0.00  0.00    +0.000 A 
BRANCH  11  18
ATOM     17  C   UNL     1       6.372   4.526  17.954  0.00  0.00    +0.000 C 
ATOM     18  C   UNL     1       5.014   4.641  17.220  0.00  0.00    +0.000 C 
ATOM     19  C   UNL     1       5.321   4.956  15.741  0.00  0.00    +0.000 C 
ATOM     20  C   UNL     1       4.332   3.259  17.309  0.00  0.00    +0.000 C 
ENDBRANCH  11  18
ENDBRANCH   7  14
ENDBRANCH   1   9
BRANCH   5  21
ATOM     21  C   UNL     1      -1.704  12.799  20.284  0.00  0.00    +0.000 C 
BRANCH  21  22
ATOM     22  C   UNL     1      -2.397  12.283  19.027  0.00  0.00    +0.000 A 
ATOM     23  N   UNL     1      -1.634  12.036  18.005  0.00  0.00    +0.000 NA
ATOM     24  N   UNL     1      -2.228  11.572  16.875  0.00  0.00    +0.000 N 
ATOM     25  C   UNL     1      -3.564  11.338  16.709  0.00  0.00    +0.000 A 
ATOM     26  O   UNL     1      -4.034  10.955  15.642  0.00  0.00    +0.000 OA
ATOM     27  C   UNL     1      -4.414  11.555  17.905  0.00  0.00    +0.000 A 
ATOM     28  C   UNL     1      -3.876  12.043  19.038  0.00  0.00    +0.000 A 
ATOM     29  C   UNL     1      -4.703  12.310  20.265  0.00  0.00    +0.000 C 
ATOM     30  C   UNL     1      -6.214  12.247  20.012  0.00  0.00    +0.000 C 
ATOM     31  C   UNL     1      -6.572  11.065  19.120  0.00  0.00    +0.000 C 
ATOM     32  C   UNL     1      -5.866  11.184  17.769  0.00  0.00    +0.000 C 
ATOM     33  H   UNL     1      -1.627  11.427  16.070  0.00  0.00    +0.000 HD
ENDBRANCH  21  22
ENDBRANCH   5  21
TORSDOF 5
ENDMDL
MODEL 4
REMARK VINA RESULT:      -8.9      3.281      9.885
REMARK  Name = 
REMARK  8 active torsions:
REMARK  status: ('A' for Active; 'I' for Inactive)
REMARK    1  A    between atoms: C_1  and  C_2
REMARK    2  A    between atoms: C_2  and  C_3
REMARK    3  A    between atoms: C_2  and  C_4
REMARK    4  A    between atoms: C_2  and  C_5
REMARK    5  A    between atoms: C_8  and  C_9
REMARK    6  A    between atoms: N_11  and  C_12
REMARK    7  A    between atoms: C_16  and  C_17
REMARK    8  A    between atoms: C_17  and  C_18
REMARK                            x       y       z     vdW  Elec       q    Type
REMARK                         _______ _______ _______ _____ _____    ______ ____
ROOT
ATOM      1  C   UNL     1      -0.142   9.640  21.523  0.00  0.00    +0.000 A 
ATOM      2  C   UNL     1      -0.475   9.823  22.867  0.00  0.00    +0.000 A 
ATOM      3  C   UNL     1      -1.119  10.984  23.297  0.00  0.00    +0.000 A 
ATOM      4  C   UNL     1      -1.451  11.977  22.381  0.00  0.00    +0.000 A 
ATOM      5  C   UNL     1      -1.133  11.819  21.027  0.00  0.00    +0.000 A 
ATOM      6  C   UNL     1      -0.441  10.662  20.613  0.00  0.00    +0.000 A 
ENDROOT
BRANCH   1   9
ATOM      7  C   UNL     1       1.371   8.414  19.989  0.00  0.00    +0.000 C 
ATOM      8  O   UNL     1       1.784   9.382  19.351  0.00  0.00    +0.000 OA
ATOM      9  N   UNL     1       0.465   8.455  21.036  0.00  0.00    +0.000 N 
ATOM     10  H   UNL     1       0.373   7.629  21.613  0.00  0.00    +0.000 HD
BRANCH   7  14
ATOM     11  C   UNL     1       3.057   4.612  18.823  0.00  0.00    +0.000 A 
ATOM     12  C   UNL     1       3.145   5.756  18.018  0.00  0.00    +0.000 A 
ATOM     13  C   UNL     1       2.605   6.975  18.429  0.00  0.00    +0.000 A 
ATOM     14  C   UNL     1       1.965   7.094  19.665  0.00  0.00    +0.000 A 
ATOM     15  C   UNL     1       1.857   5.973  20.487  0.00  0.00    +0.000 A 
ATOM     16  C   UNL     1       2.398   4.745  20.065  0.00  0.00    +0.000 A 
BRANCH  11  18
ATOM     17  C   UNL     1       4.643   3.388  17.197  0.00  0.00    +0.000 C 
ATOM     18  C   UNL     1       3.648   3.261  18.377  0.00  0.00    +0.000 C 
ATOM     19  C   UNL     1       2.523   2.308  17.923  0.00  0.00    +0.000 C 
ATOM     20  C   UNL     1       4.415   2.613  19.549  0.00  0.00    +0.000 C 
ENDBRANCH  11  18
ENDBRANCH   7  14
ENDBRANCH   1   9
BRANCH   5  21
ATOM     21  C   UNL     1      -1.545  12.873  20.024  0.00  0.00    +0.000 C 
BRANCH  21  22
ATOM     22  C   UNL     1      -2.311  12.298  18.837  0.00  0.00    +0.000 A 
ATOM     23  N   UNL     1      -1.616  12.023  17.775  0.00  0.00    +0.000 NA
ATOM     24  N   UNL     1      -2.276  11.507  16.707  0.00  0.00    +0.000 N 
ATOM     25  C   UNL     1      -3.616  11.246  16.641  0.00  0.00    +0.000 A 
ATOM     26  O   UNL     1      -4.151  10.815  15.624  0.00  0.00    +0.000 OA
ATOM     27  C   UNL     1      -4.387  11.496  17.884  0.00  0.00    +0.000 A 
ATOM     28  C   UNL     1      -3.782  12.035  18.958  0.00  0.00    +0.000 A 
ATOM     29  C   UNL     1      -4.529  12.336  20.228  0.00  0.00    +0.000 C 
ATOM     30  C   UNL     1      -6.052  12.240  20.081  0.00  0.00    +0.000 C 
ATOM     31  C   UNL     1      -6.448  11.019  19.261  0.00  0.00    +0.000 C 
ATOM     32  C   UNL     1      -5.838  11.097  17.862  0.00  0.00    +0.000 C 
ATOM     33  H   UNL     1      -1.729  11.340  15.869  0.00  0.00    +0.000 HD
ENDBRANCH  21  22
ENDBRANCH   5  21
TORSDOF 5
ENDMDL
MODEL 5
REMARK VINA RESULT:      -8.9      3.684      9.909
REMARK  Name = 
REMARK  8 active torsions:
REMARK  status: ('A' for Active; 'I' for Inactive)
REMARK    1  A    between atoms: C_1  and  C_2
REMARK    2  A    between atoms: C_2  and  C_3
REMARK    3  A    between atoms: C_2  and  C_4
REMARK    4  A    between atoms: C_2  and  C_5
REMARK    5  A    between atoms: C_8  and  C_9
REMARK    6  A    between atoms: N_11  and  C_12
REMARK    7  A    between atoms: C_16  and  C_17
REMARK    8  A    between atoms: C_17  and  C_18
REMARK                            x       y       z     vdW  Elec       q    Type
REMARK                         _______ _______ _______ _____ _____    ______ ____
ROOT
ATOM      1  C   UNL     1       0.496   9.496  21.340  0.00  0.00    +0.000 A 
ATOM      2  C   UNL     1       0.077   9.299  22.658  0.00  0.00    +0.000 A 
ATOM      3  C   UNL     1      -0.783  10.205  23.281  0.00  0.00    +0.000 A 
ATOM      4  C   UNL     1      -1.244  11.319  22.587  0.00  0.00    +0.000 A 
ATOM      5  C   UNL     1      -0.843  11.539  21.264  0.00  0.00    +0.000 A 
ATOM      6  C   UNL     1       0.061  10.641  20.661  0.00  0.00    +0.000 A 
ENDROOT
BRANCH   1   9
ATOM      7  C   UNL     1       1.518   8.568  19.280  0.00  0.00    +0.000 C 
ATOM      8  O   UNL     1       1.020   9.355  18.477  0.00  0.00    +0.000 OA
ATOM      9  N   UNL     1       1.325   8.573  20.653  0.00  0.00    +0.000 N 
ATOM     10  H   UNL     1       1.953   8.018  21.219  0.00  0.00    +0.000 HD
BRANCH   7  14
ATOM     11  C   UNL     1       4.295   5.780  17.499  0.00  0.00    +0.000 A 
ATOM     12  C   UNL     1       4.142   7.095  17.036  0.00  0.00    +0.000 A 
ATOM     13  C   UNL     1       3.249   7.977  17.643  0.00  0.00    +0.000 A 
ATOM     14  C   UNL     1       2.483   7.579  18.741  0.00  0.00    +0.000 A 
ATOM     15  C   UNL     1       2.609   6.276  19.222  0.00  0.00    +0.000 A 
ATOM     16  C   UNL     1       3.506   5.389  18.603  0.00  0.00    +0.000 A 
BRANCH  11  18
ATOM     17  C   UNL     1       6.629   4.685  17.582  0.00  0.00    +0.000 C 
ATOM     18  C   UNL     1       5.278   4.797  16.835  0.00  0.00    +0.000 C 
ATOM     19  C   UNL     1       5.592   5.246  15.392  0.00  0.00    +0.000 C 
ATOM     20  C   UNL     1       4.661   3.384  16.799  0.00  0.00    +0.000 C 
ENDBRANCH  11  18
ENDBRANCH   7  14
ENDBRANCH   1   9
BRANCH   5  21
ATOM     21  C   UNL     1      -1.391  12.718  20.492  0.00  0.00    +0.000 C 
BRANCH  21  22
ATOM     22  C   UNL     1      -2.815  12.494  19.993  0.00  0.00    +0.000 A 
ATOM     23  N   UNL     1      -3.771  12.947  20.746  0.00  0.00    +0.000 NA
ATOM     24  N   UNL     1      -5.047  12.763  20.320  0.00  0.00    +0.000 N 
ATOM     25  C   UNL     1      -5.426  12.139  19.164  0.00  0.00    +0.000 A 
ATOM     26  O   UNL     1      -6.604  11.974  18.865  0.00  0.00    +0.000 OA
ATOM     27  C   UNL     1      -4.323  11.690  18.279  0.00  0.00    +0.000 A 
ATOM     28  C   UNL     1      -3.043  11.824  18.672  0.00  0.00    +0.000 A 
ATOM     29  C   UNL     1      -1.894  11.355  17.823  0.00  0.00    +0.000 C 
ATOM     30  C   UNL     1      -2.323  10.478  16.641  0.00  0.00    +0.000 C 
ATOM     31  C   UNL     1      -3.563  11.044  15.961  0.00  0.00    +0.000 C 
ATOM     32  C   UNL     1      -4.727  11.114  16.949  0.00  0.00    +0.000 C 
ATOM     33  H   UNL     1      -5.785  13.081  20.939  0.00  0.00    +0.000 HD
ENDBRANCH  21  22
ENDBRANCH   5  21
TORSDOF 5
ENDMDL
MODEL 6
REMARK VINA RESULT:      -8.9      1.387      2.098
REMARK  Name = 
REMARK  8 active torsions:
REMARK  status: ('A' for Active; 'I' for Inactive)
REMARK    1  A    between atoms: C_1  and  C_2
REMARK    2  A    between atoms: C_2  and  C_3
REMARK    3  A    between atoms: C_2  and  C_4
REMARK    4  A    between atoms: C_2  and  C_5
REMARK    5  A    between atoms: C_8  and  C_9
REMARK    6  A    between atoms: N_11  and  C_12
REMARK    7  A    between atoms: C_16  and  C_17
REMARK    8  A    between atoms: C_17  and  C_18
REMARK                            x       y       z     vdW  Elec       q    Type
REMARK                         _______ _______ _______ _____ _____    ______ ____
ROOT
ATOM      1  C   UNL     1       1.902   5.259  20.318  0.00  0.00    +0.000 A 
ATOM      2  C   UNL     1       0.995   4.200  20.399  0.00  0.00    +0.000 A 
ATOM      3  C   UNL     1       1.404   2.884  20.175  0.00  0.00    +0.000 A 
ATOM      4  C   UNL     1       2.735   2.609  19.878  0.00  0.00    +0.000 A 
ATOM      5  C   UNL     1       3.667   3.651  19.794  0.00  0.00    +0.000 A 
ATOM      6  C   UNL     1       3.231   4.979  19.977  0.00  0.00    +0.000 A 
ENDROOT
BRANCH   1   9
ATOM      7  C   UNL     1       1.782   7.666  19.734  0.00  0.00    +0.000 C 
ATOM      8  O   UNL     1       2.325   7.597  18.632  0.00  0.00    +0.000 OA
ATOM      9  N   UNL     1       1.539   6.602  20.589  0.00  0.00    +0.000 N 
ATOM     10  H   UNL     1       0.900   6.753  21.358  0.00  0.00    +0.000 HD
BRANCH   7  14
ATOM     11  C   UNL     1       0.126  11.421  21.080  0.00  0.00    +0.000 A 
ATOM     12  C   UNL     1       0.268  10.311  21.925  0.00  0.00    +0.000 A 
ATOM     13  C   UNL     1       0.822   9.116  21.465  0.00  0.00    +0.000 A 
ATOM     14  C   UNL     1       1.263   8.992  20.146  0.00  0.00    +0.000 A 
ATOM     15  C   UNL     1       1.131  10.077  19.279  0.00  0.00    +0.000 A 
ATOM     16  C   UNL     1       0.565  11.276  19.745  0.00  0.00    +0.000 A 
BRANCH  11  18
ATOM     17  C   UNL     1       0.559  13.869  21.766  0.00  0.00    +0.000 C 
ATOM     18  C   UNL     1      -0.487  12.743  21.577  0.00  0.00    +0.000 C 
ATOM     19  C   UNL     1      -1.180  12.534  22.940  0.00  0.00    +0.000 C 
ATOM     20  C   UNL     1      -1.526  13.256  20.557  0.00  0.00    +0.000 C 
ENDBRANCH  11  18
ENDBRANCH   7  14
ENDBRANCH   1   9
BRANCH   5  21
ATOM     21  C   UNL     1       5.123   3.345  19.528  0.00  0.00    +0.000 C 
BRANCH  21  22
ATOM     22  C   UNL     1       5.850   4.483  18.817  0.00  0.00    +0.000 A 
ATOM     23  N   UNL     1       6.533   5.293  19.568  0.00  0.00    +0.000 NA
ATOM     24  N   UNL     1       7.191   6.311  18.957  0.00  0.00    +0.000 N 
ATOM     25  C   UNL     1       7.205   6.568  17.614  0.00  0.00    +0.000 A 
ATOM     26  O   UNL     1       7.792   7.534  17.138  0.00  0.00    +0.000 OA
ATOM     27  C   UNL     1       6.481   5.593  16.761  0.00  0.00    +0.000 A 
ATOM     28  C   UNL     1       5.789   4.586  17.323  0.00  0.00    +0.000 A 
ATOM     29  C   UNL     1       5.014   3.593  16.501  0.00  0.00    +0.000 C 
ATOM     30  C   UNL     1       4.860   4.001  15.031  0.00  0.00    +0.000 C 
ATOM     31  C   UNL     1       6.164   4.562  14.479  0.00  0.00    +0.000 C 
ATOM     32  C   UNL     1       6.592   5.796  15.274  0.00  0.00    +0.000 C 
ATOM     33  H   UNL     1       7.683   6.964  19.559  0.00  0.00    +0.000 HD
ENDBRANCH  21  22
ENDBRANCH   5  21
TORSDOF 5
ENDMDL
MODEL 7
REMARK VINA RESULT:      -8.8      3.597      9.837
REMARK  Name = 
REMARK  8 active torsions:
REMARK  status: ('A' for Active; 'I' for Inactive)
REMARK    1  A    between atoms: C_1  and  C_2
REMARK    2  A    between atoms: C_2  and  C_3
REMARK    3  A    between atoms: C_2  and  C_4
REMARK    4  A    between atoms: C_2  and  C_5
REMARK    5  A    between atoms: C_8  and  C_9
REMARK    6  A    between atoms: N_11  and  C_12
REMARK    7  A    between atoms: C_16  and  C_17
REMARK    8  A    between atoms: C_17  and  C_18
REMARK                            x       y       z     vdW  Elec       q    Type
REMARK                         _______ _______ _______ _____ _____    ______ ____
ROOT
ATOM      1  C   UNL     1       0.946   9.028  20.878  0.00  0.00    +0.000 A 
ATOM      2  C   UNL     1       0.515   8.783  22.183  0.00  0.00    +0.000 A 
ATOM      3  C   UNL     1      -0.316   9.687  22.848  0.00  0.00    +0.000 A 
ATOM      4  C   UNL     1      -0.737  10.847  22.207  0.00  0.00    +0.000 A 
ATOM      5  C   UNL     1      -0.324  11.117  20.897  0.00  0.00    +0.000 A 
ATOM      6  C   UNL     1       0.553  10.219  20.254  0.00  0.00    +0.000 A 
ENDROOT
BRANCH   1   9
ATOM      7  C   UNL     1       1.940   8.164  18.777  0.00  0.00    +0.000 C 
ATOM      8  O   UNL     1       1.466   9.001  18.011  0.00  0.00    +0.000 OA
ATOM      9  N   UNL     1       1.746   8.113  20.149  0.00  0.00    +0.000 N 
ATOM     10  H   UNL     1       2.357   7.514  20.689  0.00  0.00    +0.000 HD
BRANCH   7  14
ATOM     11  C   UNL     1       4.694   5.417  16.899  0.00  0.00    +0.000 A 
ATOM     12  C   UNL     1       4.835   6.809  16.809  0.00  0.00    +0.000 A 
ATOM     13  C   UNL     1       3.939   7.671  17.441  0.00  0.00    +0.000 A 
ATOM     14  C   UNL     1       2.874   7.171  18.193  0.00  0.00    +0.000 A 
ATOM     15  C   UNL     1       2.703   5.790  18.298  0.00  0.00    +0.000 A 
ATOM     16  C   UNL     1       3.605   4.926  17.654  0.00  0.00    +0.000 A 
BRANCH  11  18
ATOM     17  C   UNL     1       5.848   4.744  14.692  0.00  0.00    +0.000 C 
ATOM     18  C   UNL     1       5.677   4.457  16.204  0.00  0.00    +0.000 C 
ATOM     19  C   UNL     1       5.187   2.999  16.337  0.00  0.00    +0.000 C 
ATOM     20  C   UNL     1       7.074   4.579  16.849  0.00  0.00    +0.000 C 
ENDBRANCH  11  18
ENDBRANCH   7  14
ENDBRANCH   1   9
BRANCH   5  21
ATOM     21  C   UNL     1      -0.828  12.349  20.182  0.00  0.00    +0.000 C 
BRANCH  21  22
ATOM     22  C   UNL     1      -2.302  12.256  19.801  0.00  0.00    +0.000 A 
ATOM     23  N   UNL     1      -3.145  12.845  20.594  0.00  0.00    +0.000 NA
ATOM     24  N   UNL     1      -4.462  12.778  20.273  0.00  0.00    +0.000 N 
ATOM     25  C   UNL     1      -4.992  12.144  19.185  0.00  0.00    +0.000 A 
ATOM     26  O   UNL     1      -6.201  12.092  18.982  0.00  0.00    +0.000 OA
ATOM     27  C   UNL     1      -4.015  11.537  18.249  0.00  0.00    +0.000 A 
ATOM     28  C   UNL     1      -2.701  11.552  18.539  0.00  0.00    +0.000 A 
ATOM     29  C   UNL     1      -1.677  10.921  17.637  0.00  0.00    +0.000 C 
ATOM     30  C   UNL     1      -2.285  10.039  16.540  0.00  0.00    +0.000 C 
ATOM     31  C   UNL     1      -3.509  10.701  15.921  0.00  0.00    +0.000 C 
ATOM     32  C   UNL     1      -4.579  10.944  16.986  0.00  0.00    +0.000 C 
ATOM     33  H   UNL     1      -5.113  13.204  20.926  0.00  0.00    +0.000 HD
ENDBRANCH  21  22
ENDBRANCH   5  21
TORSDOF 5
ENDMDL
MODEL 8
REMARK VINA RESULT:      -8.8      1.120      1.806
REMARK  Name = 
REMARK  8 active torsions:
REMARK  status: ('A' for Active; 'I' for Inactive)
REMARK    1  A    between atoms: C_1  and  C_2
REMARK    2  A    between atoms: C_2  and  C_3
REMARK    3  A    between atoms: C_2  and  C_4
REMARK    4  A    between atoms: C_2  and  C_5
REMARK    5  A    between atoms: C_8  and  C_9
REMARK    6  A    between atoms: N_11  and  C_12
REMARK    7  A    between atoms: C_16  and  C_17
REMARK    8  A    between atoms: C_17  and  C_18
REMARK                            x       y       z     vdW  Elec       q    Type
REMARK                         _______ _______ _______ _____ _____    ______ ____
ROOT
ATOM      1  C   UNL     1       2.001   5.605  20.277  0.00  0.00    +0.000 A 
ATOM      2  C   UNL     1       1.086   4.668  20.761  0.00  0.00    +0.000 A 
ATOM      3  C   UNL     1       1.372   3.302  20.731  0.00  0.00    +0.000 A 
ATOM      4  C   UNL     1       2.588   2.855  20.223  0.00  0.00    +0.000 A 
ATOM      5  C   UNL     1       3.525   3.772  19.734  0.00  0.00    +0.000 A 
ATOM      6  C   UNL     1       3.205   5.146  19.728  0.00  0.00    +0.000 A 
ENDROOT
BRANCH   1   9
ATOM      7  C   UNL     1       1.824   7.852  19.242  0.00  0.00    +0.000 C 
ATOM      8  O   UNL     1       2.056   7.520  18.081  0.00  0.00    +0.000 OA
ATOM      9  N   UNL     1       1.773   7.003  20.337  0.00  0.00    +0.000 N 
ATOM     10  H   UNL     1       1.363   7.360  21.191  0.00  0.00    +0.000 HD
BRANCH   7  14
ATOM     11  C   UNL     1       1.002  12.056  19.795  0.00  0.00    +0.000 A 
ATOM     12  C   UNL     1       1.525  11.538  18.602  0.00  0.00    +0.000 A 
ATOM     13  C   UNL     1       1.764  10.173  18.447  0.00  0.00    +0.000 A 
ATOM     14  C   UNL     1       1.480   9.275  19.478  0.00  0.00    +0.000 A 
ATOM     15  C   UNL     1       0.963   9.759  20.680  0.00  0.00    +0.000 A 
ATOM     16  C   UNL     1       0.730  11.137  20.833  0.00  0.00    +0.000 A 
BRANCH  11  18
ATOM     17  C   UNL     1      -0.617  14.021  19.379  0.00  0.00    +0.000 C 
ATOM     18  C   UNL     1       0.735  13.562  19.976  0.00  0.00    +0.000 C 
ATOM     19  C   UNL     1       1.841  14.388  19.286  0.00  0.00    +0.000 C 
ATOM     20  C   UNL     1       0.710  13.912  21.479  0.00  0.00    +0.000 C 
ENDBRANCH  11  18
ENDBRANCH   7  14
ENDBRANCH   1   9
BRANCH   5  21
ATOM     21  C   UNL     1       4.868   3.290  19.237  0.00  0.00    +0.000 C 
BRANCH  21  22
ATOM     22  C   UNL     1       5.302   3.969  17.941  0.00  0.00    +0.000 A 
ATOM     23  N   UNL     1       4.723   3.563  16.852  0.00  0.00    +0.000 NA
ATOM     24  N   UNL     1       5.091   4.155  15.687  0.00  0.00    +0.000 N 
ATOM     25  C   UNL     1       6.021   5.147  15.549  0.00  0.00    +0.000 A 
ATOM     26  O   UNL     1       6.330   5.607  14.454  0.00  0.00    +0.000 OA
ATOM     27  C   UNL     1       6.622   5.652  16.807  0.00  0.00    +0.000 A 
ATOM     28  C   UNL     1       6.312   5.076  17.983  0.00  0.00    +0.000 A 
ATOM     29  C   UNL     1       6.920   5.532  19.281  0.00  0.00    +0.000 C 
ATOM     30  C   UNL     1       8.104   6.489  19.100  0.00  0.00    +0.000 C 
ATOM     31  C   UNL     1       7.816   7.519  18.016  0.00  0.00    +0.000 C 
ATOM     32  C   UNL     1       7.555   6.825  16.678  0.00  0.00    +0.000 C 
ATOM     33  H   UNL     1       4.664   3.797  14.838  0.00  0.00    +0.000 HD
ENDBRANCH  21  22
ENDBRANCH   5  21
TORSDOF 5
ENDMDL
MODEL 9
REMARK VINA RESULT:      -8.8      3.274     10.078
REMARK  Name = 
REMARK  8 active torsions:
REMARK  status: ('A' for Active; 'I' for Inactive)
REMARK    1  A    between atoms: C_1  and  C_2
REMARK    2  A    between atoms: C_2  and  C_3
REMARK    3  A    between atoms: C_2  and  C_4
REMARK    4  A    between atoms: C_2  and  C_5
REMARK    5  A    between atoms: C_8  and  C_9
REMARK    6  A    between atoms: N_11  and  C_12
REMARK    7  A    between atoms: C_16  and  C_17
REMARK    8  A    between atoms: C_17  and  C_18
REMARK                            x       y       z     vdW  Elec       q    Type
REMARK                         _______ _______ _______ _____ _____    ______ ____
ROOT
ATOM      1  C   UNL     1       0.483   9.562  21.410  0.00  0.00    +0.000 A 
ATOM      2  C   UNL     1       0.051   9.360  22.723  0.00  0.00    +0.000 A 
ATOM      3  C   UNL     1      -0.802  10.272  23.347  0.00  0.00    +0.000 A 
ATOM      4  C   UNL     1      -1.246  11.396  22.658  0.00  0.00    +0.000 A 
ATOM      5  C   UNL     1      -0.832  11.622  21.340  0.00  0.00    +0.000 A 
ATOM      6  C   UNL     1       0.067  10.718  20.737  0.00  0.00    +0.000 A 
ENDROOT
BRANCH   1   9
ATOM      7  C   UNL     1       1.484   8.618  19.347  0.00  0.00    +0.000 C 
ATOM      8  O   UNL     1       0.973   9.396  18.543  0.00  0.00    +0.000 OA
ATOM      9  N   UNL     1       1.307   8.636  20.722  0.00  0.00    +0.000 N 
ATOM     10  H   UNL     1       1.943   8.088  21.286  0.00  0.00    +0.000 HD
BRANCH   7  14
ATOM     11  C   UNL     1       4.246   5.819  17.560  0.00  0.00    +0.000 A 
ATOM     12  C   UNL     1       4.076   7.125  17.079  0.00  0.00    +0.000 A 
ATOM     13  C   UNL     1       3.188   8.012  17.688  0.00  0.00    +0.000 A 
ATOM     14  C   UNL     1       2.445   7.626  18.806  0.00  0.00    +0.000 A 
ATOM     15  C   UNL     1       2.587   6.332  19.306  0.00  0.00    +0.000 A 
ATOM     16  C   UNL     1       3.479   5.440  18.684  0.00  0.00    +0.000 A 
BRANCH  11  18
ATOM     17  C   UNL     1       4.648   3.401  16.756  0.00  0.00    +0.000 C 
ATOM     18  C   UNL     1       5.223   4.832  16.894  0.00  0.00    +0.000 C 
ATOM     19  C   UNL     1       6.521   4.722  17.721  0.00  0.00    +0.000 C 
ATOM     20  C   UNL     1       5.572   5.319  15.472  0.00  0.00    +0.000 C 
ENDBRANCH  11  18
ENDBRANCH   7  14
ENDBRANCH   1   9
BRANCH   5  21
ATOM     21  C   UNL     1      -1.359  12.813  20.573  0.00  0.00    +0.000 C 
BRANCH  21  22
ATOM     22  C   UNL     1      -2.377  12.430  19.504  0.00  0.00    +0.000 A 
ATOM     23  N   UNL     1      -1.903  12.125  18.334  0.00  0.00    +0.000 NA
ATOM     24  N   UNL     1      -2.790  11.777  17.367  0.00  0.00    +0.000 N 
ATOM     25  C   UNL     1      -4.148  11.717  17.508  0.00  0.00    +0.000 A 
ATOM     26  O   UNL     1      -4.892  11.432  16.575  0.00  0.00    +0.000 OA
ATOM     27  C   UNL     1      -4.672  11.997  18.868  0.00  0.00    +0.000 A 
ATOM     28  C   UNL     1      -3.835  12.375  19.850  0.00  0.00    +0.000 A 
ATOM     29  C   UNL     1      -4.323  12.701  21.235  0.00  0.00    +0.000 C 
ATOM     30  C   UNL     1      -5.847  12.835  21.332  0.00  0.00    +0.000 C 
ATOM     31  C   UNL     1      -6.546  11.738  20.539  0.00  0.00    +0.000 C 
ATOM     32  C   UNL     1      -6.153  11.814  19.064  0.00  0.00    +0.000 C 
ATOM     33  H   UNL     1      -2.410  11.585  16.446  0.00  0.00    +0.000 HD
ENDBRANCH  21  22
ENDBRANCH   5  21
TORSDOF 5
ENDMDL
