MODEL 1
REMARK VINA RESULT:      -7.2      0.000      0.000
REMARK  Name = 
REMARK  5 active torsions:
REMARK  status: ('A' for Active; 'I' for Inactive)
REMARK    1  A    between atoms: C_1  and  O_2
REMARK    2  A    between atoms: O_2  and  C_3
REMARK    3  A    between atoms: C_7  and  C_8
REMARK    4  A    between atoms: C_12  and  C_13
REMARK    5  A    between atoms: C_13  and  O_15
REMARK                            x       y       z     vdW  Elec       q    Type
REMARK                         _______ _______ _______ _____ _____    ______ ____
ROOT
ATOM      1  C   UNL     1       3.509   5.214  18.350  0.00  0.00    +0.000 A 
ATOM      2  C   UNL     1       3.236   6.390  19.074  0.00  0.00    +0.000 A 
ATOM      3  C   UNL     1       2.201   6.447  20.011  0.00  0.00    +0.000 A 
ATOM      4  C   UNL     1       1.415   5.324  20.249  0.00  0.00    +0.000 A 
ATOM      5  C   UNL     1       1.646   4.144  19.538  0.00  0.00    +0.000 A 
ATOM      6  C   UNL     1       2.686   4.095  18.598  0.00  0.00    +0.000 A 
ENDROOT
BRANCH   1  11
ATOM      7  C   UNL     1       6.751   6.087  16.559  0.00  0.00    +0.000 A 
ATOM      8  C   UNL     1       6.805   5.093  15.586  0.00  0.00    +0.000 A 
ATOM      9  C   UNL     1       5.812   4.116  15.522  0.00  0.00    +0.000 A 
ATOM     10  C   UNL     1       4.753   4.134  16.434  0.00  0.00    +0.000 A 
ATOM     11  C   UNL     1       4.657   5.135  17.415  0.00  0.00    +0.000 A 
ATOM     12  C   UNL     1       5.684   6.101  17.460  0.00  0.00    +0.000 A 
BRANCH   7  14
ATOM     13  C   UNL     1       7.805   7.966  17.568  0.00  0.00    +0.000 C 
ATOM     14  O   UNL     1       7.773   6.996  16.524  0.00  0.00    +0.000 OA
ENDBRANCH   7  14
ENDBRANCH   1  11
BRANCH   5  15
ATOM     15  C   UNL     1       0.819   2.954  19.869  0.00  0.00    +0.000 C 
ATOM     16  O   UNL     1       0.286   2.269  19.018  0.00  0.00    +0.000 OA
BRANCH  15  17
ATOM     17  O   UNL     1       0.718   2.688  21.188  0.00  0.00    +0.000 OA
ATOM     18  H   UNL     1       1.337   3.171  21.766  0.00  0.00    +0.000 HD
ENDBRANCH  15  17
ENDBRANCH   5  15
TORSDOF 4
ENDMDL
MODEL 2
REMARK VINA RESULT:      -7.2      1.101      1.279
REMARK  Name = 
REMARK  5 active torsions:
REMARK  status: ('A' for Active; 'I' for Inactive)
REMARK    1  A    between atoms: C_1  and  O_2
REMARK    2  A    between atoms: O_2  and  C_3
REMARK    3  A    between atoms: C_7  and  C_8
REMARK    4  A    between atoms: C_12  and  C_13
REMARK    5  A    between atoms: C_13  and  O_15
REMARK                            x       y       z     vdW  Elec       q    Type
REMARK                         _______ _______ _______ _____ _____    ______ ____
ROOT
ATOM      1  C   UNL     1       3.678   5.046  18.774  0.00  0.00    +0.000 A 
ATOM      2  C   UNL     1       2.935   6.220  18.997  0.00  0.00    +0.000 A 
ATOM      3  C   UNL     1       1.988   6.300  20.022  0.00  0.00    +0.000 A 
ATOM      4  C   UNL     1       1.764   5.207  20.852  0.00  0.00    +0.000 A 
ATOM      5  C   UNL     1       2.472   4.019  20.650  0.00  0.00    +0.000 A 
ATOM      6  C   UNL     1       3.420   3.945  19.618  0.00  0.00    +0.000 A 
ENDROOT
BRANCH   1  11
ATOM      7  C   UNL     1       6.722   5.987  16.693  0.00  0.00    +0.000 A 
ATOM      8  C   UNL     1       6.708   4.992  15.718  0.00  0.00    +0.000 A 
ATOM      9  C   UNL     1       5.735   3.994  15.746  0.00  0.00    +0.000 A 
ATOM     10  C   UNL     1       4.764   3.990  16.751  0.00  0.00    +0.000 A 
ATOM     11  C   UNL     1       4.736   4.990  17.738  0.00  0.00    +0.000 A 
ATOM     12  C   UNL     1       5.742   5.978  17.688  0.00  0.00    +0.000 A 
BRANCH   7  14
ATOM     13  C   UNL     1       7.762   7.947  17.549  0.00  0.00    +0.000 C 
ATOM     14  O   UNL     1       7.716   6.918  16.565  0.00  0.00    +0.000 OA
ENDBRANCH   7  14
ENDBRANCH   1  11
BRANCH   5  15
ATOM     15  C   UNL     1       2.241   2.897  21.598  0.00  0.00    +0.000 C 
ATOM     16  O   UNL     1       1.148   2.657  22.073  0.00  0.00    +0.000 OA
BRANCH  15  17
ATOM     17  O   UNL     1       3.337   2.160  21.877  0.00  0.00    +0.000 OA
ATOM     18  H   UNL     1       3.211   1.445  22.527  0.00  0.00    +0.000 HD
ENDBRANCH  15  17
ENDBRANCH   5  15
TORSDOF 4
ENDMDL
MODEL 3
REMARK VINA RESULT:      -7.1      3.665      5.709
REMARK  Name = 
REMARK  5 active torsions:
REMARK  status: ('A' for Active; 'I' for Inactive)
REMARK    1  A    between atoms: C_1  and  O_2
REMARK    2  A    between atoms: O_2  and  C_3
REMARK    3  A    between atoms: C_7  and  C_8
REMARK    4  A    between atoms: C_12  and  C_13
REMARK    5  A    between atoms: C_13  and  O_15
REMARK                            x       y       z     vdW  Elec       q    Type
REMARK                         _______ _______ _______ _____ _____    ______ ____
ROOT
ATOM      1  C   UNL     1       6.179   4.532  16.020  0.00  0.00    +0.000 A 
ATOM      2  C   UNL     1       4.972   4.077  16.582  0.00  0.00    +0.000 A 
ATOM      3  C   UNL     1       4.696   4.234  17.942  0.00  0.00    +0.000 A 
ATOM      4  C   UNL     1       5.621   4.854  18.775  0.00  0.00    +0.000 A 
ATOM      5  C   UNL     1       6.838   5.304  18.255  0.00  0.00    +0.000 A 
ATOM      6  C   UNL     1       7.109   5.142  16.888  0.00  0.00    +0.000 A 
ENDROOT
BRANCH   1  11
ATOM      7  C   UNL     1       5.905   3.424  12.390  0.00  0.00    +0.000 A 
ATOM      8  C   UNL     1       6.953   4.130  11.806  0.00  0.00    +0.000 A 
ATOM      9  C   UNL     1       7.735   4.993  12.574  0.00  0.00    +0.000 A 
ATOM     10  C   UNL     1       7.472   5.148  13.937  0.00  0.00    +0.000 A 
ATOM     11  C   UNL     1       6.435   4.435  14.563  0.00  0.00    +0.000 A 
ATOM     12  C   UNL     1       5.656   3.580  13.755  0.00  0.00    +0.000 A 
BRANCH   7  14
ATOM     13  C   UNL     1       3.939   3.067  11.100  0.00  0.00    +0.000 C 
ATOM     14  O   UNL     1       5.210   2.603  11.545  0.00  0.00    +0.000 OA
ENDBRANCH   7  14
ENDBRANCH   1  11
BRANCH   5  15
ATOM     15  C   UNL     1       7.770   6.013  19.171  0.00  0.00    +0.000 C 
ATOM     16  O   UNL     1       8.354   7.031  18.853  0.00  0.00    +0.000 OA
BRANCH  15  17
ATOM     17  O   UNL     1       7.905   5.445  20.388  0.00  0.00    +0.000 OA
ATOM     18  H   UNL     1       7.228   5.690  21.046  0.00  0.00    +0.000 HD
ENDBRANCH  15  17
ENDBRANCH   5  15
TORSDOF 4
ENDMDL
MODEL 4
REMARK VINA RESULT:      -7.1      1.951      6.370
REMARK  Name = 
REMARK  5 active torsions:
REMARK  status: ('A' for Active; 'I' for Inactive)
REMARK    1  A    between atoms: C_1  and  O_2
REMARK    2  A    between atoms: O_2  and  C_3
REMARK    3  A    between atoms: C_7  and  C_8
REMARK    4  A    between atoms: C_12  and  C_13
REMARK    5  A    between atoms: C_13  and  O_15
REMARK                            x       y       z     vdW  Elec       q    Type
REMARK                         _______ _______ _______ _____ _____    ______ ____
ROOT
ATOM      1  C   UNL     1       5.039   4.347  17.583  0.00  0.00    +0.000 A 
ATOM      2  C   UNL     1       6.147   4.646  18.398  0.00  0.00    +0.000 A 
ATOM      3  C   UNL     1       7.417   4.858  17.853  0.00  0.00    +0.000 A 
ATOM      4  C   UNL     1       7.608   4.777  16.478  0.00  0.00    +0.000 A 
ATOM      5  C   UNL     1       6.534   4.466  15.640  0.00  0.00    +0.000 A 
ATOM      6  C   UNL     1       5.262   4.254  16.194  0.00  0.00    +0.000 A 
ENDROOT
BRANCH   1  11
ATOM      7  C   UNL     1       2.234   3.970  20.127  0.00  0.00    +0.000 A 
ATOM      8  C   UNL     1       1.127   3.815  19.296  0.00  0.00    +0.000 A 
ATOM      9  C   UNL     1       1.276   3.863  17.911  0.00  0.00    +0.000 A 
ATOM     10  C   UNL     1       2.539   4.062  17.349  0.00  0.00    +0.000 A 
ATOM     11  C   UNL     1       3.680   4.202  18.157  0.00  0.00    +0.000 A 
ATOM     12  C   UNL     1       3.494   4.160  19.554  0.00  0.00    +0.000 A 
BRANCH   7  14
ATOM     13  C   UNL     1       1.699   2.607  22.001  0.00  0.00    +0.000 C 
ATOM     14  O   UNL     1       1.974   3.899  21.468  0.00  0.00    +0.000 OA
ENDBRANCH   7  14
ENDBRANCH   1  11
BRANCH   5  15
ATOM     15  C   UNL     1       6.774   4.449  14.172  0.00  0.00    +0.000 C 
ATOM     16  O   UNL     1       7.391   5.326  13.600  0.00  0.00    +0.000 OA
BRANCH  15  17
ATOM     17  O   UNL     1       6.265   3.376  13.530  0.00  0.00    +0.000 OA
ATOM     18  H   UNL     1       6.797   2.561  13.584  0.00  0.00    +0.000 HD
ENDBRANCH  15  17
ENDBRANCH   5  15
TORSDOF 4
ENDMDL
MODEL 5
REMARK VINA RESULT:      -7.1      2.014      2.755
REMARK  Name = 
REMARK  5 active torsions:
REMARK  status: ('A' for Active; 'I' for Inactive)
REMARK    1  A    between atoms: C_1  and  O_2
REMARK    2  A    between atoms: O_2  and  C_3
REMARK    3  A    between atoms: C_7  and  C_8
REMARK    4  A    between atoms: C_12  and  C_13
REMARK    5  A    between atoms: C_13  and  O_15
REMARK                            x       y       z     vdW  Elec       q    Type
REMARK                         _______ _______ _______ _____ _____    ______ ____
ROOT
ATOM      1  C   UNL     1       3.695   3.889  18.210  0.00  0.00    +0.000 A 
ATOM      2  C   UNL     1       2.508   4.119  17.489  0.00  0.00    +0.000 A 
ATOM      3  C   UNL     1       1.254   3.858  18.048  0.00  0.00    +0.000 A 
ATOM      4  C   UNL     1       1.157   3.364  19.345  0.00  0.00    +0.000 A 
ATOM      5  C   UNL     1       2.315   3.109  20.084  0.00  0.00    +0.000 A 
ATOM      6  C   UNL     1       3.571   3.372  19.516  0.00  0.00    +0.000 A 
ENDROOT
BRANCH   1  11
ATOM      7  C   UNL     1       6.488   4.458  15.689  0.00  0.00    +0.000 A 
ATOM      8  C   UNL     1       7.550   4.794  16.525  0.00  0.00    +0.000 A 
ATOM      9  C   UNL     1       7.362   4.871  17.904  0.00  0.00    +0.000 A 
ATOM     10  C   UNL     1       6.107   4.604  18.455  0.00  0.00    +0.000 A 
ATOM     11  C   UNL     1       5.019   4.242  17.643  0.00  0.00    +0.000 A 
ATOM     12  C   UNL     1       5.239   4.185  16.251  0.00  0.00    +0.000 A 
BRANCH   7  14
ATOM     13  C   UNL     1       5.835   3.769  13.508  0.00  0.00    +0.000 C 
ATOM     14  O   UNL     1       6.787   4.406  14.355  0.00  0.00    +0.000 OA
ENDBRANCH   7  14
ENDBRANCH   1  11
BRANCH   5  15
ATOM     15  C   UNL     1       2.160   2.637  21.486  0.00  0.00    +0.000 C 
ATOM     16  O   UNL     1       1.103   2.693  22.082  0.00  0.00    +0.000 OA
BRANCH  15  17
ATOM     17  O   UNL     1       3.283   2.129  22.036  0.00  0.00    +0.000 OA
ATOM     18  H   UNL     1       3.209   1.221  22.384  0.00  0.00    +0.000 HD
ENDBRANCH  15  17
ENDBRANCH   5  15
TORSDOF 4
ENDMDL
MODEL 6
REMARK VINA RESULT:      -7.0      2.650      6.183
REMARK  Name = 
REMARK  5 active torsions:
REMARK  status: ('A' for Active; 'I' for Inactive)
REMARK    1  A    between atoms: C_1  and  O_2
REMARK    2  A    between atoms: O_2  and  C_3
REMARK    3  A    between atoms: C_7  and  C_8
REMARK    4  A    between atoms: C_12  and  C_13
REMARK    5  A    between atoms: C_13  and  O_15
REMARK                            x       y       z     vdW  Elec       q    Type
REMARK                         _______ _______ _______ _____ _____    ______ ____
ROOT
ATOM      1  C   UNL     1       3.414   6.189  17.879  0.00  0.00    +0.000 A 
ATOM      2  C   UNL     1       2.835   4.916  17.723  0.00  0.00    +0.000 A 
ATOM      3  C   UNL     1       3.578   3.830  17.254  0.00  0.00    +0.000 A 
ATOM      4  C   UNL     1       4.922   3.991  16.932  0.00  0.00    +0.000 A 
ATOM      5  C   UNL     1       5.526   5.245  17.059  0.00  0.00    +0.000 A 
ATOM      6  C   UNL     1       4.773   6.331  17.530  0.00  0.00    +0.000 A 
ENDROOT
BRANCH   1  11
ATOM      7  C   UNL     1       1.445   8.308  20.352  0.00  0.00    +0.000 A 
ATOM      8  C   UNL     1       1.080   9.392  19.557  0.00  0.00    +0.000 A 
ATOM      9  C   UNL     1       1.495   9.461  18.228  0.00  0.00    +0.000 A 
ATOM     10  C   UNL     1       2.275   8.437  17.684  0.00  0.00    +0.000 A 
ATOM     11  C   UNL     1       2.643   7.319  18.452  0.00  0.00    +0.000 A 
ATOM     12  C   UNL     1       2.218   7.286  19.796  0.00  0.00    +0.000 A 
BRANCH   7  14
ATOM     13  C   UNL     1       0.644   9.622  22.166  0.00  0.00    +0.000 C 
ATOM     14  O   UNL     1       0.977   8.341  21.637  0.00  0.00    +0.000 OA
ENDBRANCH   7  14
ENDBRANCH   1  11
BRANCH   5  15
ATOM     15  C   UNL     1       6.978   5.355  16.759  0.00  0.00    +0.000 C 
ATOM     16  O   UNL     1       7.459   6.321  16.198  0.00  0.00    +0.000 OA
BRANCH  15  17
ATOM     17  O   UNL     1       7.720   4.306  17.172  0.00  0.00    +0.000 OA
ATOM     18  H   UNL     1       7.977   4.315  18.112  0.00  0.00    +0.000 HD
ENDBRANCH  15  17
ENDBRANCH   5  15
TORSDOF 4
ENDMDL
MODEL 7
REMARK VINA RESULT:      -7.0      3.576      5.669
REMARK  Name = 
REMARK  5 active torsions:
REMARK  status: ('A' for Active; 'I' for Inactive)
REMARK    1  A    between atoms: C_1  and  O_2
REMARK    2  A    between atoms: O_2  and  C_3
REMARK    3  A    between atoms: C_7  and  C_8
REMARK    4  A    between atoms: C_12  and  C_13
REMARK    5  A    between atoms: C_13  and  O_15
REMARK                            x       y       z     vdW  Elec       q    Type
REMARK                         _______ _______ _______ _____ _____    ______ ____
ROOT
ATOM      1  C   UNL     1       6.071   4.631  16.045  0.00  0.00    +0.000 A 
ATOM      2  C   UNL     1       4.762   4.416  16.515  0.00  0.00    +0.000 A 
ATOM      3  C   UNL     1       4.426   4.621  17.856  0.00  0.00    +0.000 A 
ATOM      4  C   UNL     1       5.393   5.050  18.759  0.00  0.00    +0.000 A 
ATOM      5  C   UNL     1       6.707   5.258  18.331  0.00  0.00    +0.000 A 
ATOM      6  C   UNL     1       7.037   5.049  16.983  0.00  0.00    +0.000 A 
ENDROOT
BRANCH   1  11
ATOM      7  C   UNL     1       6.049   3.354  12.460  0.00  0.00    +0.000 A 
ATOM      8  C   UNL     1       7.079   4.102  11.894  0.00  0.00    +0.000 A 
ATOM      9  C   UNL     1       7.765   5.045  12.658  0.00  0.00    +0.000 A 
ATOM     10  C   UNL     1       7.425   5.241  13.999  0.00  0.00    +0.000 A 
ATOM     11  C   UNL     1       6.405   4.489  14.607  0.00  0.00    +0.000 A 
ATOM     12  C   UNL     1       5.723   3.552  13.803  0.00  0.00    +0.000 A 
BRANCH   7  14
ATOM     13  C   UNL     1       6.232   1.334  11.218  0.00  0.00    +0.000 C 
ATOM     14  O   UNL     1       5.450   2.455  11.621  0.00  0.00    +0.000 OA
ENDBRANCH   7  14
ENDBRANCH   1  11
BRANCH   5  15
ATOM     15  C   UNL     1       7.691   5.773  19.320  0.00  0.00    +0.000 C 
ATOM     16  O   UNL     1       7.898   5.223  20.384  0.00  0.00    +0.000 OA
BRANCH  15  17
ATOM     17  O   UNL     1       8.345   6.890  18.935  0.00  0.00    +0.000 OA
ATOM     18  H   UNL     1       7.783   7.618  18.612  0.00  0.00    +0.000 HD
ENDBRANCH  15  17
ENDBRANCH   5  15
TORSDOF 4
ENDMDL
MODEL 8
REMARK VINA RESULT:      -7.0      1.728      2.598
REMARK  Name = 
REMARK  5 active torsions:
REMARK  status: ('A' for Active; 'I' for Inactive)
REMARK    1  A    between atoms: C_1  and  O_2
REMARK    2  A    between atoms: O_2  and  C_3
REMARK    3  A    between atoms: C_7  and  C_8
REMARK    4  A    between atoms: C_12  and  C_13
REMARK    5  A    between atoms: C_13  and  O_15
REMARK                            x       y       z     vdW  Elec       q    Type
REMARK                         _______ _______ _______ _____ _____    ______ ____
ROOT
ATOM      1  C   UNL     1       3.527   4.293  18.318  0.00  0.00    +0.000 A 
ATOM      2  C   UNL     1       2.339   4.322  17.564  0.00  0.00    +0.000 A 
ATOM      3  C   UNL     1       1.143   3.804  18.067  0.00  0.00    +0.000 A 
ATOM      4  C   UNL     1       1.105   3.247  19.341  0.00  0.00    +0.000 A 
ATOM      5  C   UNL     1       2.269   3.186  20.112  0.00  0.00    +0.000 A 
ATOM      6  C   UNL     1       3.467   3.707  19.600  0.00  0.00    +0.000 A 
ENDROOT
BRANCH   1  11
ATOM      7  C   UNL     1       6.266   5.425  15.932  0.00  0.00    +0.000 A 
ATOM      8  C   UNL     1       7.188   5.983  16.814  0.00  0.00    +0.000 A 
ATOM      9  C   UNL     1       6.916   6.026  18.181  0.00  0.00    +0.000 A 
ATOM     10  C   UNL     1       5.717   5.503  18.673  0.00  0.00    +0.000 A 
ATOM     11  C   UNL     1       4.774   4.914  17.813  0.00  0.00    +0.000 A 
ATOM     12  C   UNL     1       5.075   4.897  16.435  0.00  0.00    +0.000 A 
BRANCH   7  14
ATOM     13  C   UNL     1       6.452   4.217  13.891  0.00  0.00    +0.000 C 
ATOM     14  O   UNL     1       6.639   5.430  14.615  0.00  0.00    +0.000 OA
ENDBRANCH   7  14
ENDBRANCH   1  11
BRANCH   5  15
ATOM     15  C   UNL     1       2.167   2.635  21.490  0.00  0.00    +0.000 C 
ATOM     16  O   UNL     1       3.133   2.227  22.105  0.00  0.00    +0.000 OA
BRANCH  15  17
ATOM     17  O   UNL     1       0.920   2.639  22.007  0.00  0.00    +0.000 OA
ATOM     18  H   UNL     1       0.248   3.113  21.485  0.00  0.00    +0.000 HD
ENDBRANCH  15  17
ENDBRANCH   5  15
TORSDOF 4
ENDMDL
MODEL 9
REMARK VINA RESULT:      -7.0      1.939      6.182
REMARK  Name = 
REMARK  5 active torsions:
REMARK  status: ('A' for Active; 'I' for Inactive)
REMARK    1  A    between atoms: C_1  and  O_2
REMARK    2  A    between atoms: O_2  and  C_3
REMARK    3  A    between atoms: C_7  and  C_8
REMARK    4  A    between atoms: C_12  and  C_13
REMARK    5  A    between atoms: C_13  and  O_15
REMARK                            x       y       z     vdW  Elec       q    Type
REMARK                         _______ _______ _______ _____ _____    ______ ____
ROOT
ATOM      1  C   UNL     1       4.941   4.075  17.611  0.00  0.00    +0.000 A 
ATOM      2  C   UNL     1       5.987   4.499  18.450  0.00  0.00    +0.000 A 
ATOM      3  C   UNL     1       7.234   4.863  17.935  0.00  0.00    +0.000 A 
ATOM      4  C   UNL     1       7.464   4.812  16.564  0.00  0.00    +0.000 A 
ATOM      5  C   UNL     1       6.453   4.380  15.701  0.00  0.00    +0.000 A 
ATOM      6  C   UNL     1       5.204   4.016  16.226  0.00  0.00    +0.000 A 
ENDROOT
BRANCH   1  11
ATOM      7  C   UNL     1       1.770   4.308  19.701  0.00  0.00    +0.000 A 
ATOM      8  C   UNL     1       1.088   3.162  19.298  0.00  0.00    +0.000 A 
ATOM      9  C   UNL     1       1.634   2.325  18.325  0.00  0.00    +0.000 A 
ATOM     10  C   UNL     1       2.872   2.630  17.754  0.00  0.00    +0.000 A 
ATOM     11  C   UNL     1       3.596   3.767  18.153  0.00  0.00    +0.000 A 
ATOM     12  C   UNL     1       3.011   4.598  19.130  0.00  0.00    +0.000 A 
BRANCH   7  14
ATOM     13  C   UNL     1       1.520   6.422  20.761  0.00  0.00    +0.000 C 
ATOM     14  O   UNL     1       1.145   5.051  20.665  0.00  0.00    +0.000 OA
ENDBRANCH   7  14
ENDBRANCH   1  11
BRANCH   5  15
ATOM     15  C   UNL     1       6.726   4.399  14.240  0.00  0.00    +0.000 C 
ATOM     16  O   UNL     1       7.347   5.294  13.702  0.00  0.00    +0.000 OA
BRANCH  15  17
ATOM     17  O   UNL     1       6.241   3.337  13.562  0.00  0.00    +0.000 OA
ATOM     18  H   UNL     1       6.854   2.927  12.925  0.00  0.00    +0.000 HD
ENDBRANCH  15  17
ENDBRANCH   5  15
TORSDOF 4
ENDMDL
