MODEL 1
REMARK VINA RESULT:      -8.2      0.000      0.000
REMARK  Name = 
REMARK  11 active torsions:
REMARK  status: ('A' for Active; 'I' for Inactive)
REMARK    1  A    between atoms: C_1  and  C_2
REMARK    2  A    between atoms: C_2  and  N_3
REMARK    3  A    between atoms: N_3  and  C_4
REMARK    4  A    between atoms: N_3  and  C_13
REMARK    5  A    between atoms: C_4  and  C_5
REMARK    6  A    between atoms: C_5  and  C_6
REMARK    7  A    between atoms: C_6  and  C_7
REMARK    8  A    between atoms: C_15  and  O_16
REMARK    9  A    between atoms: O_16  and  C_17
REMARK   10  A    between atoms: C_17  and  C_18
REMARK   11  A    between atoms: C_27  and  O_28
REMARK                            x       y       z     vdW  Elec       q    Type
REMARK                         _______ _______ _______ _____ _____    ______ ____
ROOT
ATOM      1  C   UNL     1       6.236   5.933  17.083  0.00  0.00    +0.000 C 
ATOM      2  C   UNL     1       6.877   7.308  16.842  0.00  0.00    +0.000 C 
ATOM      3  C   UNL     1       7.420   8.055  18.060  0.00  0.00    +0.000 C 
ATOM      4  C   UNL     1       8.424   7.177  18.788  0.00  0.00    +0.000 C 
ATOM      5  C   UNL     1       7.794   5.847  19.162  0.00  0.00    +0.000 C 
ATOM      6  C   UNL     1       7.234   5.080  17.958  0.00  0.00    +0.000 C 
ENDROOT
BRANCH   6   7
ATOM      7  O   UNL     1       6.616   3.915  18.520  0.00  0.00    +0.000 OA
ATOM      8  H   UNL     1       6.913   3.141  18.016  0.00  0.00    +0.000 HD
ENDBRANCH   6   7
BRANCH   1   9
ATOM      9  N   UNL     1       5.807   5.286  15.773  0.00  0.00    +0.000 NA
BRANCH   9  11
ATOM     10  C   UNL     1       6.807   4.271  13.609  0.00  0.00    +0.000 C 
ATOM     11  C   UNL     1       6.996   4.752  15.051  0.00  0.00    +0.000 C 
ENDBRANCH   9  11
BRANCH   9  12
ATOM     12  C   UNL     1       4.775   4.225  15.896  0.00  0.00    +0.000 C 
BRANCH  12  13
ATOM     13  C   UNL     1       3.780   4.206  17.083  0.00  0.00    +0.000 C 
BRANCH  13  14
ATOM     14  C   UNL     1       3.487   2.812  17.651  0.00  0.00    +0.000 C 
BRANCH  14  15
ATOM     15  C   UNL     1       2.718   2.840  18.959  0.00  0.00    +0.000 A 
ATOM     16  C   UNL     1       3.365   2.546  20.168  0.00  0.00    +0.000 A 
ATOM     17  C   UNL     1       2.685   2.657  21.386  0.00  0.00    +0.000 A 
ATOM     18  C   UNL     1       1.345   3.041  21.404  0.00  0.00    +0.000 A 
ATOM     19  C   UNL     1       0.678   3.288  20.206  0.00  0.00    +0.000 A 
ATOM     20  C   UNL     1       1.363   3.197  18.991  0.00  0.00    +0.000 A 
ENDBRANCH  14  15
ENDBRANCH  13  14
ENDBRANCH  12  13
ENDBRANCH   9  12
ENDBRANCH   1   9
BRANCH   3  21
ATOM     21  O   UNL     1       8.084   9.274  17.678  0.00  0.00    +0.000 OA
BRANCH  21  22
ATOM     22  C   UNL     1       8.845   9.877  18.732  0.00  0.00    +0.000 C 
BRANCH  22  23
ATOM     23  C   UNL     1       9.506  11.151  18.263  0.00  0.00    +0.000 A 
ATOM     24  C   UNL     1       8.765  12.343  18.232  0.00  0.00    +0.000 A 
ATOM     25  C   UNL     1       9.298  13.517  17.695  0.00  0.00    +0.000 A 
ATOM     26  C   UNL     1      10.612  13.521  17.256  0.00  0.00    +0.000 A 
ATOM     27  F   UNL     1      11.125  14.639  16.722  0.00  0.00    +0.000 F 
ATOM     28  C   UNL     1      11.397  12.381  17.365  0.00  0.00    +0.000 A 
ATOM     29  C   UNL     1      10.840  11.193  17.863  0.00  0.00    +0.000 A 
ENDBRANCH  22  23
ENDBRANCH  21  22
ENDBRANCH   3  21
TORSDOF 10
ENDMDL
MODEL 2
REMARK VINA RESULT:      -7.7      3.233      4.254
REMARK  Name = 
REMARK  11 active torsions:
REMARK  status: ('A' for Active; 'I' for Inactive)
REMARK    1  A    between atoms: C_1  and  C_2
REMARK    2  A    between atoms: C_2  and  N_3
REMARK    3  A    between atoms: N_3  and  C_4
REMARK    4  A    between atoms: N_3  and  C_13
REMARK    5  A    between atoms: C_4  and  C_5
REMARK    6  A    between atoms: C_5  and  C_6
REMARK    7  A    between atoms: C_6  and  C_7
REMARK    8  A    between atoms: C_15  and  O_16
REMARK    9  A    between atoms: O_16  and  C_17
REMARK   10  A    between atoms: C_17  and  C_18
REMARK   11  A    between atoms: C_27  and  O_28
REMARK                            x       y       z     vdW  Elec       q    Type
REMARK                         _______ _______ _______ _____ _____    ______ ____
ROOT
ATOM      1  C   UNL     1       5.679   4.342  18.138  0.00  0.00    +0.000 C 
ATOM      2  C   UNL     1       6.258   5.654  18.687  0.00  0.00    +0.000 C 
ATOM      3  C   UNL     1       7.608   6.114  18.138  0.00  0.00    +0.000 C 
ATOM      4  C   UNL     1       7.531   6.218  16.623  0.00  0.00    +0.000 C 
ATOM      5  C   UNL     1       7.083   4.898  16.022  0.00  0.00    +0.000 C 
ATOM      6  C   UNL     1       5.734   4.410  16.562  0.00  0.00    +0.000 C 
ENDROOT
BRANCH   6   7
ATOM      7  O   UNL     1       5.534   3.131  15.948  0.00  0.00    +0.000 OA
ATOM      8  H   UNL     1       6.201   3.022  15.251  0.00  0.00    +0.000 HD
ENDBRANCH   6   7
BRANCH   1   9
ATOM      9  N   UNL     1       4.305   4.054  18.726  0.00  0.00    +0.000 NA
BRANCH   9  11
ATOM     10  C   UNL     1       3.266   1.699  18.423  0.00  0.00    +0.000 C 
ATOM     11  C   UNL     1       4.225   2.633  19.169  0.00  0.00    +0.000 C 
ENDBRANCH   9  11
BRANCH   9  12
ATOM     12  C   UNL     1       3.887   4.950  19.834  0.00  0.00    +0.000 C 
BRANCH  12  13
ATOM     13  C   UNL     1       2.612   5.822  19.723  0.00  0.00    +0.000 C 
BRANCH  13  14
ATOM     14  C   UNL     1       2.601   6.794  18.537  0.00  0.00    +0.000 C 
BRANCH  14  15
ATOM     15  C   UNL     1       2.023   8.156  18.875  0.00  0.00    +0.000 A 
ATOM     16  C   UNL     1       2.053   9.193  17.931  0.00  0.00    +0.000 A 
ATOM     17  C   UNL     1       1.443  10.422  18.201  0.00  0.00    +0.000 A 
ATOM     18  C   UNL     1       0.816  10.634  19.429  0.00  0.00    +0.000 A 
ATOM     19  C   UNL     1       0.823   9.628  20.393  0.00  0.00    +0.000 A 
ATOM     20  C   UNL     1       1.414   8.393  20.114  0.00  0.00    +0.000 A 
ENDBRANCH  14  15
ENDBRANCH  13  14
ENDBRANCH  12  13
ENDBRANCH   9  12
ENDBRANCH   1   9
BRANCH   3  21
ATOM     21  O   UNL     1       7.978   7.404  18.658  0.00  0.00    +0.000 OA
BRANCH  21  22
ATOM     22  C   UNL     1       7.895   8.464  17.699  0.00  0.00    +0.000 C 
BRANCH  22  23
ATOM     23  C   UNL     1       8.492   9.739  18.246  0.00  0.00    +0.000 A 
ATOM     24  C   UNL     1       8.295  10.946  17.556  0.00  0.00    +0.000 A 
ATOM     25  C   UNL     1       8.927  12.125  17.959  0.00  0.00    +0.000 A 
ATOM     26  C   UNL     1       9.701  12.116  19.108  0.00  0.00    +0.000 A 
ATOM     27  F   UNL     1      10.325  13.239  19.491  0.00  0.00    +0.000 F 
ATOM     28  C   UNL     1       9.833  10.958  19.863  0.00  0.00    +0.000 A 
ATOM     29  C   UNL     1       9.234   9.767  19.426  0.00  0.00    +0.000 A 
ENDBRANCH  22  23
ENDBRANCH  21  22
ENDBRANCH   3  21
TORSDOF 10
ENDMDL
MODEL 3
REMARK VINA RESULT:      -7.7      4.607      8.156
REMARK  Name = 
REMARK  11 active torsions:
REMARK  status: ('A' for Active; 'I' for Inactive)
REMARK    1  A    between atoms: C_1  and  C_2
REMARK    2  A    between atoms: C_2  and  N_3
REMARK    3  A    between atoms: N_3  and  C_4
REMARK    4  A    between atoms: N_3  and  C_13
REMARK    5  A    between atoms: C_4  and  C_5
REMARK    6  A    between atoms: C_5  and  C_6
REMARK    7  A    between atoms: C_6  and  C_7
REMARK    8  A    between atoms: C_15  and  O_16
REMARK    9  A    between atoms: O_16  and  C_17
REMARK   10  A    between atoms: C_17  and  C_18
REMARK   11  A    between atoms: C_27  and  O_28
REMARK                            x       y       z     vdW  Elec       q    Type
REMARK                         _______ _______ _______ _____ _____    ______ ____
ROOT
ATOM      1  C   UNL     1       5.461   5.687  17.958  0.00  0.00    +0.000 C 
ATOM      2  C   UNL     1       4.732   7.028  17.779  0.00  0.00    +0.000 C 
ATOM      3  C   UNL     1       3.208   7.022  17.892  0.00  0.00    +0.000 C 
ATOM      4  C   UNL     1       2.800   6.427  19.229  0.00  0.00    +0.000 C 
ATOM      5  C   UNL     1       3.395   5.040  19.397  0.00  0.00    +0.000 C 
ATOM      6  C   UNL     1       4.924   5.017  19.281  0.00  0.00    +0.000 C 
ENDROOT
BRANCH   6   7
ATOM      7  O   UNL     1       5.278   3.631  19.379  0.00  0.00    +0.000 OA
ATOM      8  H   UNL     1       4.915   3.284  20.210  0.00  0.00    +0.000 HD
ENDBRANCH   6   7
BRANCH   1   9
ATOM      9  N   UNL     1       6.971   5.865  17.888  0.00  0.00    +0.000 NA
BRANCH   9  11
ATOM     10  C   UNL     1       6.944   4.433  15.729  0.00  0.00    +0.000 C 
ATOM     11  C   UNL     1       7.579   4.769  17.082  0.00  0.00    +0.000 C 
ENDBRANCH   9  11
BRANCH   9  12
ATOM     12  C   UNL     1       7.435   7.181  17.379  0.00  0.00    +0.000 C 
BRANCH  12  13
ATOM     13  C   UNL     1       8.208   8.167  18.288  0.00  0.00    +0.000 C 
BRANCH  13  14
ATOM     14  C   UNL     1       8.287   9.603  17.757  0.00  0.00    +0.000 C 
BRANCH  14  15
ATOM     15  C   UNL     1       9.241  10.487  18.538  0.00  0.00    +0.000 A 
ATOM     16  C   UNL     1       9.221  10.488  19.940  0.00  0.00    +0.000 A 
ATOM     17  C   UNL     1      10.158  11.231  20.666  0.00  0.00    +0.000 A 
ATOM     18  C   UNL     1      11.109  12.000  19.996  0.00  0.00    +0.000 A 
ATOM     19  C   UNL     1      11.108  12.046  18.604  0.00  0.00    +0.000 A 
ATOM     20  C   UNL     1      10.185  11.286  17.879  0.00  0.00    +0.000 A 
ENDBRANCH  14  15
ENDBRANCH  13  14
ENDBRANCH  12  13
ENDBRANCH   9  12
ENDBRANCH   1   9
BRANCH   3  21
ATOM     21  O   UNL     1       2.668   8.354  17.810  0.00  0.00    +0.000 OA
BRANCH  21  22
ATOM     22  C   UNL     1       1.294   8.450  18.204  0.00  0.00    +0.000 C 
BRANCH  22  23
ATOM     23  C   UNL     1       0.890   9.889  18.417  0.00  0.00    +0.000 A 
ATOM     24  C   UNL     1      -0.472  10.224  18.469  0.00  0.00    +0.000 A 
ATOM     25  C   UNL     1      -0.892  11.555  18.544  0.00  0.00    +0.000 A 
ATOM     26  C   UNL     1       0.059  12.557  18.647  0.00  0.00    +0.000 A 
ATOM     27  F   UNL     1      -0.335  13.837  18.701  0.00  0.00    +0.000 F 
ATOM     28  C   UNL     1       1.412  12.245  18.695  0.00  0.00    +0.000 A 
ATOM     29  C   UNL     1       1.827  10.910  18.572  0.00  0.00    +0.000 A 
ENDBRANCH  22  23
ENDBRANCH  21  22
ENDBRANCH   3  21
TORSDOF 10
ENDMDL
MODEL 4
REMARK VINA RESULT:      -7.6      5.419      7.935
REMARK  Name = 
REMARK  11 active torsions:
REMARK  status: ('A' for Active; 'I' for Inactive)
REMARK    1  A    between atoms: C_1  and  C_2
REMARK    2  A    between atoms: C_2  and  N_3
REMARK    3  A    between atoms: N_3  and  C_4
REMARK    4  A    between atoms: N_3  and  C_13
REMARK    5  A    between atoms: C_4  and  C_5
REMARK    6  A    between atoms: C_5  and  C_6
REMARK    7  A    between atoms: C_6  and  C_7
REMARK    8  A    between atoms: C_15  and  O_16
REMARK    9  A    between atoms: O_16  and  C_17
REMARK   10  A    between atoms: C_17  and  C_18
REMARK   11  A    between atoms: C_27  and  O_28
REMARK                            x       y       z     vdW  Elec       q    Type
REMARK                         _______ _______ _______ _____ _____    ______ ____
ROOT
ATOM      1  C   UNL     1       3.024   4.707  19.205  0.00  0.00    +0.000 C 
ATOM      2  C   UNL     1       3.311   6.151  18.765  0.00  0.00    +0.000 C 
ATOM      3  C   UNL     1       2.206   7.185  18.980  0.00  0.00    +0.000 C 
ATOM      4  C   UNL     1       1.801   7.199  20.445  0.00  0.00    +0.000 C 
ATOM      5  C   UNL     1       1.385   5.810  20.894  0.00  0.00    +0.000 C 
ATOM      6  C   UNL     1       2.473   4.751  20.683  0.00  0.00    +0.000 C 
ENDROOT
BRANCH   6   7
ATOM      7  O   UNL     1       1.865   3.515  21.081  0.00  0.00    +0.000 OA
ATOM      8  H   UNL     1       0.914   3.672  21.204  0.00  0.00    +0.000 HD
ENDBRANCH   6   7
BRANCH   1   9
ATOM      9  N   UNL     1       4.238   3.813  18.993  0.00  0.00    +0.000 NA
BRANCH   9  11
ATOM     10  C   UNL     1       2.463   2.524  17.613  0.00  0.00    +0.000 C 
ATOM     11  C   UNL     1       3.835   2.560  18.294  0.00  0.00    +0.000 C 
ENDBRANCH   9  11
BRANCH   9  12
ATOM     12  C   UNL     1       5.376   4.444  18.277  0.00  0.00    +0.000 C 
BRANCH  12  13
ATOM     13  C   UNL     1       5.740   4.035  16.829  0.00  0.00    +0.000 C 
BRANCH  13  14
ATOM     14  C   UNL     1       5.912   5.207  15.855  0.00  0.00    +0.000 C 
BRANCH  14  15
ATOM     15  C   UNL     1       6.242   4.776  14.439  0.00  0.00    +0.000 A 
ATOM     16  C   UNL     1       7.377   5.283  13.789  0.00  0.00    +0.000 A 
ATOM     17  C   UNL     1       7.738   4.823  12.519  0.00  0.00    +0.000 A 
ATOM     18  C   UNL     1       6.953   3.866  11.875  0.00  0.00    +0.000 A 
ATOM     19  C   UNL     1       5.796   3.392  12.489  0.00  0.00    +0.000 A 
ATOM     20  C   UNL     1       5.448   3.837  13.768  0.00  0.00    +0.000 A 
ENDBRANCH  14  15
ENDBRANCH  13  14
ENDBRANCH  12  13
ENDBRANCH   9  12
ENDBRANCH   1   9
BRANCH   3  21
ATOM     21  O   UNL     1       2.646   8.508  18.623  0.00  0.00    +0.000 OA
BRANCH  21  22
ATOM     22  C   UNL     1       1.830   9.146  17.634  0.00  0.00    +0.000 C 
BRANCH  22  23
ATOM     23  C   UNL     1       0.710   9.928  18.276  0.00  0.00    +0.000 A 
ATOM     24  C   UNL     1       0.985  10.745  19.384  0.00  0.00    +0.000 A 
ATOM     25  C   UNL     1      -0.037  11.392  20.083  0.00  0.00    +0.000 A 
ATOM     26  C   UNL     1      -1.340  11.285  19.623  0.00  0.00    +0.000 A 
ATOM     27  F   UNL     1      -2.329  11.888  20.298  0.00  0.00    +0.000 F 
ATOM     28  C   UNL     1      -1.626  10.563  18.472  0.00  0.00    +0.000 A 
ATOM     29  C   UNL     1      -0.600   9.878  17.803  0.00  0.00    +0.000 A 
ENDBRANCH  22  23
ENDBRANCH  21  22
ENDBRANCH   3  21
TORSDOF 10
ENDMDL
MODEL 5
REMARK VINA RESULT:      -7.6      5.218      8.021
REMARK  Name = 
REMARK  11 active torsions:
REMARK  status: ('A' for Active; 'I' for Inactive)
REMARK    1  A    between atoms: C_1  and  C_2
REMARK    2  A    between atoms: C_2  and  N_3
REMARK    3  A    between atoms: N_3  and  C_4
REMARK    4  A    between atoms: N_3  and  C_13
REMARK    5  A    between atoms: C_4  and  C_5
REMARK    6  A    between atoms: C_5  and  C_6
REMARK    7  A    between atoms: C_6  and  C_7
REMARK    8  A    between atoms: C_15  and  O_16
REMARK    9  A    between atoms: O_16  and  C_17
REMARK   10  A    between atoms: C_17  and  C_18
REMARK   11  A    between atoms: C_27  and  O_28
REMARK                            x       y       z     vdW  Elec       q    Type
REMARK                         _______ _______ _______ _____ _____    ______ ____
ROOT
ATOM      1  C   UNL     1       2.419   5.069  19.315  0.00  0.00    +0.000 C 
ATOM      2  C   UNL     1       3.382   4.797  18.149  0.00  0.00    +0.000 C 
ATOM      3  C   UNL     1       3.870   3.362  17.958  0.00  0.00    +0.000 C 
ATOM      4  C   UNL     1       2.675   2.432  17.822  0.00  0.00    +0.000 C 
ATOM      5  C   UNL     1       1.754   2.573  19.020  0.00  0.00    +0.000 C 
ATOM      6  C   UNL     1       1.255   4.007  19.239  0.00  0.00    +0.000 C 
ENDROOT
BRANCH   6   7
ATOM      7  O   UNL     1       0.485   3.946  20.447  0.00  0.00    +0.000 OA
ATOM      8  H   UNL     1      -0.401   3.615  20.225  0.00  0.00    +0.000 HD
ENDBRANCH   6   7
BRANCH   1   9
ATOM      9  N   UNL     1       1.968   6.523  19.334  0.00  0.00    +0.000 NA
BRANCH   9  11
ATOM     10  C   UNL     1       0.895   7.953  21.209  0.00  0.00    +0.000 C 
ATOM     11  C   UNL     1       2.044   7.065  20.720  0.00  0.00    +0.000 C 
ENDBRANCH   9  11
BRANCH   9  12
ATOM     12  C   UNL     1       2.691   7.425  18.400  0.00  0.00    +0.000 C 
BRANCH  12  13
ATOM     13  C   UNL     1       1.932   8.465  17.540  0.00  0.00    +0.000 C 
BRANCH  13  14
ATOM     14  C   UNL     1       2.013   9.906  18.057  0.00  0.00    +0.000 C 
BRANCH  14  15
ATOM     15  C   UNL     1       0.691  10.441  18.574  0.00  0.00    +0.000 A 
ATOM     16  C   UNL     1       0.663  11.375  19.620  0.00  0.00    +0.000 A 
ATOM     17  C   UNL     1      -0.546  11.939  20.040  0.00  0.00    +0.000 A 
ATOM     18  C   UNL     1      -1.743  11.557  19.433  0.00  0.00    +0.000 A 
ATOM     19  C   UNL     1      -1.733  10.594  18.427  0.00  0.00    +0.000 A 
ATOM     20  C   UNL     1      -0.522  10.046  17.993  0.00  0.00    +0.000 A 
ENDBRANCH  14  15
ENDBRANCH  13  14
ENDBRANCH  12  13
ENDBRANCH   9  12
ENDBRANCH   1   9
BRANCH   3  21
ATOM     21  O   UNL     1       4.677   3.232  16.773  0.00  0.00    +0.000 OA
BRANCH  21  22
ATOM     22  C   UNL     1       5.665   4.259  16.626  0.00  0.00    +0.000 C 
BRANCH  22  23
ATOM     23  C   UNL     1       6.129   4.365  15.193  0.00  0.00    +0.000 A 
ATOM     24  C   UNL     1       5.445   3.658  14.191  0.00  0.00    +0.000 A 
ATOM     25  C   UNL     1       5.910   3.631  12.874  0.00  0.00    +0.000 A 
ATOM     26  C   UNL     1       7.025   4.381  12.537  0.00  0.00    +0.000 A 
ATOM     27  F   UNL     1       7.488   4.345  11.280  0.00  0.00    +0.000 F 
ATOM     28  C   UNL     1       7.662   5.166  13.489  0.00  0.00    +0.000 A 
ATOM     29  C   UNL     1       7.217   5.151  14.820  0.00  0.00    +0.000 A 
ENDBRANCH  22  23
ENDBRANCH  21  22
ENDBRANCH   3  21
TORSDOF 10
ENDMDL
MODEL 6
REMARK VINA RESULT:      -7.5      6.248      8.781
REMARK  Name = 
REMARK  11 active torsions:
REMARK  status: ('A' for Active; 'I' for Inactive)
REMARK    1  A    between atoms: C_1  and  C_2
REMARK    2  A    between atoms: C_2  and  N_3
REMARK    3  A    between atoms: N_3  and  C_4
REMARK    4  A    between atoms: N_3  and  C_13
REMARK    5  A    between atoms: C_4  and  C_5
REMARK    6  A    between atoms: C_5  and  C_6
REMARK    7  A    between atoms: C_6  and  C_7
REMARK    8  A    between atoms: C_15  and  O_16
REMARK    9  A    between atoms: O_16  and  C_17
REMARK   10  A    between atoms: C_17  and  C_18
REMARK   11  A    between atoms: C_27  and  O_28
REMARK                            x       y       z     vdW  Elec       q    Type
REMARK                         _______ _______ _______ _____ _____    ______ ____
ROOT
ATOM      1  C   UNL     1       2.572   7.026  19.280  0.00  0.00    +0.000 C 
ATOM      2  C   UNL     1       1.323   7.739  19.820  0.00  0.00    +0.000 C 
ATOM      3  C   UNL     1       1.264   9.260  19.680  0.00  0.00    +0.000 C 
ATOM      4  C   UNL     1       1.445   9.643  18.220  0.00  0.00    +0.000 C 
ATOM      5  C   UNL     1       2.738   9.064  17.675  0.00  0.00    +0.000 C 
ATOM      6  C   UNL     1       2.825   7.538  17.810  0.00  0.00    +0.000 C 
ENDROOT
BRANCH   6   7
ATOM      7  O   UNL     1       4.132   7.202  17.327  0.00  0.00    +0.000 OA
ATOM      8  H   UNL     1       4.163   7.395  16.376  0.00  0.00    +0.000 HD
ENDBRANCH   6   7
BRANCH   1   9
ATOM      9  N   UNL     1       2.453   5.515  19.428  0.00  0.00    +0.000 NA
BRANCH   9  11
ATOM     10  C   UNL     1       2.126   3.870  21.402  0.00  0.00    +0.000 C 
ATOM     11  C   UNL     1       1.752   5.178  20.698  0.00  0.00    +0.000 C 
ENDBRANCH   9  11
BRANCH   9  12
ATOM     12  C   UNL     1       1.802   4.814  18.292  0.00  0.00    +0.000 C 
BRANCH  12  13
ATOM     13  C   UNL     1       2.499   3.634  17.572  0.00  0.00    +0.000 C 
BRANCH  13  14
ATOM     14  C   UNL     1       3.897   3.295  18.102  0.00  0.00    +0.000 C 
BRANCH  14  15
ATOM     15  C   UNL     1       5.019   3.953  17.320  0.00  0.00    +0.000 A 
ATOM     16  C   UNL     1       6.163   4.423  17.981  0.00  0.00    +0.000 A 
ATOM     17  C   UNL     1       7.239   4.948  17.258  0.00  0.00    +0.000 A 
ATOM     18  C   UNL     1       7.171   5.030  15.867  0.00  0.00    +0.000 A 
ATOM     19  C   UNL     1       6.019   4.612  15.204  0.00  0.00    +0.000 A 
ATOM     20  C   UNL     1       4.953   4.068  15.925  0.00  0.00    +0.000 A 
ENDBRANCH  14  15
ENDBRANCH  13  14
ENDBRANCH  12  13
ENDBRANCH   9  12
ENDBRANCH   1   9
BRANCH   3  21
ATOM     21  O   UNL     1       0.000   9.783  20.128  0.00  0.00    +0.000 OA
BRANCH  21  22
ATOM     22  C   UNL     1      -0.343  11.049  19.553  0.00  0.00    +0.000 C 
BRANCH  22  23
ATOM     23  C   UNL     1      -1.741  11.026  18.985  0.00  0.00    +0.000 A 
ATOM     24  C   UNL     1      -2.094  10.032  18.058  0.00  0.00    +0.000 A 
ATOM     25  C   UNL     1      -3.335  10.043  17.417  0.00  0.00    +0.000 A 
ATOM     26  C   UNL     1      -4.264  11.011  17.763  0.00  0.00    +0.000 A 
ATOM     27  F   UNL     1      -5.450  11.039  17.140  0.00  0.00    +0.000 F 
ATOM     28  C   UNL     1      -3.976  11.947  18.748  0.00  0.00    +0.000 A 
ATOM     29  C   UNL     1      -2.710  11.958  19.353  0.00  0.00    +0.000 A 
ENDBRANCH  22  23
ENDBRANCH  21  22
ENDBRANCH   3  21
TORSDOF 10
ENDMDL
MODEL 7
REMARK VINA RESULT:      -7.5      4.513      8.009
REMARK  Name = 
REMARK  11 active torsions:
REMARK  status: ('A' for Active; 'I' for Inactive)
REMARK    1  A    between atoms: C_1  and  C_2
REMARK    2  A    between atoms: C_2  and  N_3
REMARK    3  A    between atoms: N_3  and  C_4
REMARK    4  A    between atoms: N_3  and  C_13
REMARK    5  A    between atoms: C_4  and  C_5
REMARK    6  A    between atoms: C_5  and  C_6
REMARK    7  A    between atoms: C_6  and  C_7
REMARK    8  A    between atoms: C_15  and  O_16
REMARK    9  A    between atoms: O_16  and  C_17
REMARK   10  A    between atoms: C_17  and  C_18
REMARK   11  A    between atoms: C_27  and  O_28
REMARK                            x       y       z     vdW  Elec       q    Type
REMARK                         _______ _______ _______ _____ _____    ______ ____
ROOT
ATOM      1  C   UNL     1       5.163   5.393  18.027  0.00  0.00    +0.000 C 
ATOM      2  C   UNL     1       4.281   6.636  18.219  0.00  0.00    +0.000 C 
ATOM      3  C   UNL     1       2.812   6.408  18.573  0.00  0.00    +0.000 C 
ATOM      4  C   UNL     1       2.717   5.552  19.826  0.00  0.00    +0.000 C 
ATOM      5  C   UNL     1       3.473   4.249  19.636  0.00  0.00    +0.000 C 
ATOM      6  C   UNL     1       4.949   4.448  19.272  0.00  0.00    +0.000 C 
ENDROOT
BRANCH   6   7
ATOM      7  O   UNL     1       5.454   3.125  19.054  0.00  0.00    +0.000 OA
ATOM      8  H   UNL     1       5.369   2.920  18.109  0.00  0.00    +0.000 HD
ENDBRANCH   6   7
BRANCH   1   9
ATOM      9  N   UNL     1       6.609   5.778  17.748  0.00  0.00    +0.000 NA
BRANCH   9  11
ATOM     10  C   UNL     1       6.375   4.740  15.386  0.00  0.00    +0.000 C 
ATOM     11  C   UNL     1       7.176   4.906  16.681  0.00  0.00    +0.000 C 
ENDBRANCH   9  11
BRANCH   9  12
ATOM     12  C   UNL     1       6.832   7.206  17.402  0.00  0.00    +0.000 C 
BRANCH  12  13
ATOM     13  C   UNL     1       8.018   8.001  18.001  0.00  0.00    +0.000 C 
BRANCH  13  14
ATOM     14  C   UNL     1       8.199   9.412  17.427  0.00  0.00    +0.000 C 
BRANCH  14  15
ATOM     15  C   UNL     1       8.912  10.363  18.370  0.00  0.00    +0.000 A 
ATOM     16  C   UNL     1       9.349  11.616  17.917  0.00  0.00    +0.000 A 
ATOM     17  C   UNL     1       9.926  12.533  18.801  0.00  0.00    +0.000 A 
ATOM     18  C   UNL     1      10.094  12.196  20.144  0.00  0.00    +0.000 A 
ATOM     19  C   UNL     1       9.709  10.936  20.595  0.00  0.00    +0.000 A 
ATOM     20  C   UNL     1       9.113  10.028  19.716  0.00  0.00    +0.000 A 
ENDBRANCH  14  15
ENDBRANCH  13  14
ENDBRANCH  12  13
ENDBRANCH   9  12
ENDBRANCH   1   9
BRANCH   3  21
ATOM     21  O   UNL     1       2.132   7.652  18.828  0.00  0.00    +0.000 OA
BRANCH  21  22
ATOM     22  C   UNL     1       2.337   8.644  17.816  0.00  0.00    +0.000 C 
BRANCH  22  23
ATOM     23  C   UNL     1       1.514   9.880  18.092  0.00  0.00    +0.000 A 
ATOM     24  C   UNL     1       2.154  11.122  18.221  0.00  0.00    +0.000 A 
ATOM     25  C   UNL     1       1.449  12.269  18.594  0.00  0.00    +0.000 A 
ATOM     26  C   UNL     1       0.076  12.190  18.765  0.00  0.00    +0.000 A 
ATOM     27  F   UNL     1      -0.605  13.281  19.141  0.00  0.00    +0.000 F 
ATOM     28  C   UNL     1      -0.595  10.993  18.549  0.00  0.00    +0.000 A 
ATOM     29  C   UNL     1       0.127   9.836  18.220  0.00  0.00    +0.000 A 
ENDBRANCH  22  23
ENDBRANCH  21  22
ENDBRANCH   3  21
TORSDOF 10
ENDMDL
MODEL 8
REMARK VINA RESULT:      -7.5      3.674      9.751
REMARK  Name = 
REMARK  11 active torsions:
REMARK  status: ('A' for Active; 'I' for Inactive)
REMARK    1  A    between atoms: C_1  and  C_2
REMARK    2  A    between atoms: C_2  and  N_3
REMARK    3  A    between atoms: N_3  and  C_4
REMARK    4  A    between atoms: N_3  and  C_13
REMARK    5  A    between atoms: C_4  and  C_5
REMARK    6  A    between atoms: C_5  and  C_6
REMARK    7  A    between atoms: C_6  and  C_7
REMARK    8  A    between atoms: C_15  and  O_16
REMARK    9  A    between atoms: O_16  and  C_17
REMARK   10  A    between atoms: C_17  and  C_18
REMARK   11  A    between atoms: C_27  and  O_28
REMARK                            x       y       z     vdW  Elec       q    Type
REMARK                         _______ _______ _______ _____ _____    ______ ____
ROOT
ATOM      1  C   UNL     1       6.276   6.181  16.678  0.00  0.00    +0.000 C 
ATOM      2  C   UNL     1       5.049   5.458  17.253  0.00  0.00    +0.000 C 
ATOM      3  C   UNL     1       4.181   4.659  16.280  0.00  0.00    +0.000 C 
ATOM      4  C   UNL     1       5.042   3.641  15.550  0.00  0.00    +0.000 C 
ATOM      5  C   UNL     1       6.204   4.329  14.855  0.00  0.00    +0.000 C 
ATOM      6  C   UNL     1       7.087   5.144  15.808  0.00  0.00    +0.000 C 
ENDROOT
BRANCH   6   7
ATOM      7  O   UNL     1       8.056   5.774  14.961  0.00  0.00    +0.000 OA
ATOM      8  H   UNL     1       8.019   5.348  14.089  0.00  0.00    +0.000 HD
ENDBRANCH   6   7
BRANCH   1   9
ATOM      9  N   UNL     1       7.075   6.873  17.774  0.00  0.00    +0.000 NA
BRANCH   9  11
ATOM     10  C   UNL     1       7.894   5.734  19.952  0.00  0.00    +0.000 C 
ATOM     11  C   UNL     1       7.991   5.899  18.432  0.00  0.00    +0.000 C 
ENDBRANCH   9  11
BRANCH   9  12
ATOM     12  C   UNL     1       7.839   8.072  17.344  0.00  0.00    +0.000 C 
BRANCH  12  13
ATOM     13  C   UNL     1       8.339   9.116  18.372  0.00  0.00    +0.000 C 
BRANCH  13  14
ATOM     14  C   UNL     1       8.810  10.442  17.762  0.00  0.00    +0.000 C 
BRANCH  14  15
ATOM     15  C   UNL     1       9.596  11.308  18.728  0.00  0.00    +0.000 A 
ATOM     16  C   UNL     1      10.351  12.392  18.255  0.00  0.00    +0.000 A 
ATOM     17  C   UNL     1      11.005  13.248  19.147  0.00  0.00    +0.000 A 
ATOM     18  C   UNL     1      10.931  13.015  20.520  0.00  0.00    +0.000 A 
ATOM     19  C   UNL     1      10.225  11.913  20.998  0.00  0.00    +0.000 A 
ATOM     20  C   UNL     1       9.554  11.070  20.108  0.00  0.00    +0.000 A 
ENDBRANCH  14  15
ENDBRANCH  13  14
ENDBRANCH  12  13
ENDBRANCH   9  12
ENDBRANCH   1   9
BRANCH   3  21
ATOM     21  O   UNL     1       3.134   3.950  16.968  0.00  0.00    +0.000 OA
BRANCH  21  22
ATOM     22  C   UNL     1       2.278   4.791  17.749  0.00  0.00    +0.000 C 
BRANCH  22  23
ATOM     23  C   UNL     1       1.901   4.124  19.050  0.00  0.00    +0.000 A 
ATOM     24  C   UNL     1       2.339   4.677  20.263  0.00  0.00    +0.000 A 
ATOM     25  C   UNL     1       2.117   4.030  21.481  0.00  0.00    +0.000 A 
ATOM     26  C   UNL     1       1.381   2.856  21.495  0.00  0.00    +0.000 A 
ATOM     27  F   UNL     1       1.179   2.219  22.657  0.00  0.00    +0.000 F 
ATOM     28  C   UNL     1       0.853   2.339  20.320  0.00  0.00    +0.000 A 
ATOM     29  C   UNL     1       1.120   2.970  19.096  0.00  0.00    +0.000 A 
ENDBRANCH  22  23
ENDBRANCH  21  22
ENDBRANCH   3  21
TORSDOF 10
ENDMDL
MODEL 9
REMARK VINA RESULT:      -7.5      3.561      9.772
REMARK  Name = 
REMARK  11 active torsions:
REMARK  status: ('A' for Active; 'I' for Inactive)
REMARK    1  A    between atoms: C_1  and  C_2
REMARK    2  A    between atoms: C_2  and  N_3
REMARK    3  A    between atoms: N_3  and  C_4
REMARK    4  A    between atoms: N_3  and  C_13
REMARK    5  A    between atoms: C_4  and  C_5
REMARK    6  A    between atoms: C_5  and  C_6
REMARK    7  A    between atoms: C_6  and  C_7
REMARK    8  A    between atoms: C_15  and  O_16
REMARK    9  A    between atoms: O_16  and  C_17
REMARK   10  A    between atoms: C_17  and  C_18
REMARK   11  A    between atoms: C_27  and  O_28
REMARK                            x       y       z     vdW  Elec       q    Type
REMARK                         _______ _______ _______ _____ _____    ______ ____
ROOT
ATOM      1  C   UNL     1       5.988   6.084  16.690  0.00  0.00    +0.000 C 
ATOM      2  C   UNL     1       4.795   5.238  17.160  0.00  0.00    +0.000 C 
ATOM      3  C   UNL     1       4.131   4.324  16.131  0.00  0.00    +0.000 C 
ATOM      4  C   UNL     1       5.173   3.395  15.529  0.00  0.00    +0.000 C 
ATOM      5  C   UNL     1       6.318   4.196  14.934  0.00  0.00    +0.000 C 
ATOM      6  C   UNL     1       6.998   5.128  15.945  0.00  0.00    +0.000 C 
ENDROOT
BRANCH   6   7
ATOM      7  O   UNL     1       7.975   5.846  15.181  0.00  0.00    +0.000 OA
ATOM      8  H   UNL     1       8.607   6.248  15.799  0.00  0.00    +0.000 HD
ENDBRANCH   6   7
BRANCH   1   9
ATOM      9  N   UNL     1       6.584   6.887  17.838  0.00  0.00    +0.000 NA
BRANCH   9  11
ATOM     10  C   UNL     1       8.256   5.607  19.349  0.00  0.00    +0.000 C 
ATOM     11  C   UNL     1       6.814   6.004  19.016  0.00  0.00    +0.000 C 
ENDBRANCH   9  11
BRANCH   9  12
ATOM     12  C   UNL     1       7.830   7.630  17.516  0.00  0.00    +0.000 C 
BRANCH  12  13
ATOM     13  C   UNL     1       7.937   9.156  17.752  0.00  0.00    +0.000 C 
BRANCH  13  14
ATOM     14  C   UNL     1       8.908   9.567  18.866  0.00  0.00    +0.000 C 
BRANCH  14  15
ATOM     15  C   UNL     1       9.565  10.914  18.632  0.00  0.00    +0.000 A 
ATOM     16  C   UNL     1      10.839  11.182  19.154  0.00  0.00    +0.000 A 
ATOM     17  C   UNL     1      11.488  12.387  18.868  0.00  0.00    +0.000 A 
ATOM     18  C   UNL     1      10.860  13.347  18.074  0.00  0.00    +0.000 A 
ATOM     19  C   UNL     1       9.575  13.112  17.590  0.00  0.00    +0.000 A 
ATOM     20  C   UNL     1       8.935  11.899  17.860  0.00  0.00    +0.000 A 
ENDBRANCH  14  15
ENDBRANCH  13  14
ENDBRANCH  12  13
ENDBRANCH   9  12
ENDBRANCH   1   9
BRANCH   3  21
ATOM     21  O   UNL     1       3.102   3.515  16.731  0.00  0.00    +0.000 OA
BRANCH  21  22
ATOM     22  C   UNL     1       2.043   4.271  17.330  0.00  0.00    +0.000 C 
BRANCH  22  23
ATOM     23  C   UNL     1       1.742   3.774  18.723  0.00  0.00    +0.000 A 
ATOM     24  C   UNL     1       1.987   4.610  19.824  0.00  0.00    +0.000 A 
ATOM     25  C   UNL     1       1.837   4.151  21.134  0.00  0.00    +0.000 A 
ATOM     26  C   UNL     1       1.362   2.867  21.348  0.00  0.00    +0.000 A 
ATOM     27  F   UNL     1       1.233   2.412  22.603  0.00  0.00    +0.000 F 
ATOM     28  C   UNL     1       1.020   2.053  20.277  0.00  0.00    +0.000 A 
ATOM     29  C   UNL     1       1.217   2.505  18.963  0.00  0.00    +0.000 A 
ENDBRANCH  22  23
ENDBRANCH  21  22
ENDBRANCH   3  21
TORSDOF 10
ENDMDL
