MODEL 1
REMARK VINA RESULT:      -7.9      0.000      0.000
REMARK  Name = 
REMARK  3 active torsions:
REMARK  status: ('A' for Active; 'I' for Inactive)
REMARK    1  A    between atoms: C_2  and  C_9
REMARK    2  A    between atoms: N_3  and  C_4
REMARK    3  A    between atoms: C_11  and  C_12
REMARK                            x       y       z     vdW  Elec       q    Type
REMARK                         _______ _______ _______ _____ _____    ______ ____
ROOT
ATOM      1  C   UNL     1       7.503   6.865  17.991  0.00  0.00    +0.000 A 
ATOM      2  C   UNL     1       8.335   7.561  18.901  0.00  0.00    +0.000 A 
ATOM      3  C   UNL     1       8.468   8.825  18.382  0.00  0.00    +0.000 A 
ATOM      4  O   UNL     1       7.762   8.883  17.213  0.00  0.00    +0.000 OA
ATOM      5  N   UNL     1       7.159   7.655  16.960  0.00  0.00    +0.000 NA
ENDROOT
BRANCH   3   6
ATOM      6  C   UNL     1       9.182  10.025  18.808  0.00  0.00    +0.000 A 
ATOM      7  C   UNL     1       9.295  10.385  20.158  0.00  0.00    +0.000 A 
ATOM      8  C   UNL     1       9.971  11.553  20.536  0.00  0.00    +0.000 A 
ATOM      9  C   UNL     1      10.548  12.380  19.569  0.00  0.00    +0.000 A 
ATOM     10 CL   UNL     1      11.349  13.813  20.101  0.00  0.00    +0.000 Cl
ATOM     11  C   UNL     1      10.454  12.029  18.221  0.00  0.00    +0.000 A 
ATOM     12 CL   UNL     1      11.140  12.994  16.960  0.00  0.00    +0.000 Cl
ATOM     13  C   UNL     1       9.779  10.859  17.848  0.00  0.00    +0.000 A 
ENDBRANCH   3   6
BRANCH   1  15
ATOM     14  O   UNL     1       7.855   4.551  18.199  0.00  0.00    +0.000 OA
ATOM     15  C   UNL     1       7.052   5.478  18.141  0.00  0.00    +0.000 C 
ATOM     16  N   UNL     1       5.686   5.295  18.213  0.00  0.00    +0.000 N 
ATOM     17  H   UNL     1       5.108   6.129  18.239  0.00  0.00    +0.000 HD
BRANCH  16  18
ATOM     18  C   UNL     1       5.119   3.990  18.479  0.00  0.00    +0.000 C 
ATOM     19  C   UNL     1       4.046   4.014  19.563  0.00  0.00    +0.000 C 
ATOM     20  C   UNL     1       3.306   2.695  19.378  0.00  0.00    +0.000 C 
ATOM     21  C   UNL     1       3.450   2.334  17.901  0.00  0.00    +0.000 C 
ATOM     22  C   UNL     1       4.365   3.393  17.291  0.00  0.00    +0.000 C 
ENDBRANCH  16  18
ENDBRANCH   1  15
TORSDOF 3
ENDMDL
MODEL 2
REMARK VINA RESULT:      -7.9      1.494      1.738
REMARK  Name = 
REMARK  3 active torsions:
REMARK  status: ('A' for Active; 'I' for Inactive)
REMARK    1  A    between atoms: C_2  and  C_9
REMARK    2  A    between atoms: N_3  and  C_4
REMARK    3  A    between atoms: C_11  and  C_12
REMARK                            x       y       z     vdW  Elec       q    Type
REMARK                         _______ _______ _______ _____ _____    ______ ____
ROOT
ATOM      1  C   UNL     1       7.136   7.474  17.727  0.00  0.00    +0.000 A 
ATOM      2  C   UNL     1       7.394   8.864  17.637  0.00  0.00    +0.000 A 
ATOM      3  C   UNL     1       8.499   9.082  18.423  0.00  0.00    +0.000 A 
ATOM      4  O   UNL     1       8.878   7.887  18.967  0.00  0.00    +0.000 OA
ATOM      5  N   UNL     1       8.024   6.876  18.538  0.00  0.00    +0.000 NA
ENDROOT
BRANCH   3   6
ATOM      6  C   UNL     1       9.277  10.268  18.770  0.00  0.00    +0.000 A 
ATOM      7  C   UNL     1       9.508  10.645  20.100  0.00  0.00    +0.000 A 
ATOM      8  C   UNL     1      10.245  11.798  20.401  0.00  0.00    +0.000 A 
ATOM      9  C   UNL     1      10.763  12.593  19.376  0.00  0.00    +0.000 A 
ATOM     10 CL   UNL     1      11.644  14.011  19.817  0.00  0.00    +0.000 Cl
ATOM     11  C   UNL     1      10.552  12.225  18.047  0.00  0.00    +0.000 A 
ATOM     12 CL   UNL     1      11.159  13.150  16.718  0.00  0.00    +0.000 Cl
ATOM     13  C   UNL     1       9.817  11.069  17.750  0.00  0.00    +0.000 A 
ENDBRANCH   3   6
BRANCH   1  15
ATOM     14  O   UNL     1       6.094   6.604  15.808  0.00  0.00    +0.000 OA
ATOM     15  C   UNL     1       6.063   6.761  17.026  0.00  0.00    +0.000 C 
ATOM     16  N   UNL     1       5.039   6.288  17.819  0.00  0.00    +0.000 N 
ATOM     17  H   UNL     1       5.144   6.395  18.823  0.00  0.00    +0.000 HD
BRANCH  16  18
ATOM     18  C   UNL     1       3.982   5.467  17.267  0.00  0.00    +0.000 C 
ATOM     19  C   UNL     1       4.273   3.973  17.364  0.00  0.00    +0.000 C 
ATOM     20  C   UNL     1       2.914   3.318  17.150  0.00  0.00    +0.000 C 
ATOM     21  C   UNL     1       1.878   4.329  17.638  0.00  0.00    +0.000 C 
ATOM     22  C   UNL     1       2.655   5.587  18.016  0.00  0.00    +0.000 C 
ENDBRANCH  16  18
ENDBRANCH   1  15
TORSDOF 3
ENDMDL
MODEL 3
REMARK VINA RESULT:      -7.6      1.623      2.295
REMARK  Name = 
REMARK  3 active torsions:
REMARK  status: ('A' for Active; 'I' for Inactive)
REMARK    1  A    between atoms: C_2  and  C_9
REMARK    2  A    between atoms: N_3  and  C_4
REMARK    3  A    between atoms: C_11  and  C_12
REMARK                            x       y       z     vdW  Elec       q    Type
REMARK                         _______ _______ _______ _____ _____    ______ ____
ROOT
ATOM      1  C   UNL     1       7.087   7.383  17.706  0.00  0.00    +0.000 A 
ATOM      2  C   UNL     1       7.336   8.770  17.573  0.00  0.00    +0.000 A 
ATOM      3  C   UNL     1       8.435   9.021  18.356  0.00  0.00    +0.000 A 
ATOM      4  O   UNL     1       8.820   7.848  18.940  0.00  0.00    +0.000 OA
ATOM      5  N   UNL     1       7.975   6.817  18.540  0.00  0.00    +0.000 NA
ENDROOT
BRANCH   3   6
ATOM      6  C   UNL     1       9.203  10.223  18.667  0.00  0.00    +0.000 A 
ATOM      7  C   UNL     1      10.012  10.858  17.714  0.00  0.00    +0.000 A 
ATOM      8  C   UNL     1      10.752  12.000  18.048  0.00  0.00    +0.000 A 
ATOM      9  C   UNL     1      10.693  12.528  19.340  0.00  0.00    +0.000 A 
ATOM     10 CL   UNL     1      11.644  13.926  19.689  0.00  0.00    +0.000 Cl
ATOM     11  C   UNL     1       9.883  11.915  20.297  0.00  0.00    +0.000 A 
ATOM     12 CL   UNL     1       9.750  12.503  21.918  0.00  0.00    +0.000 Cl
ATOM     13  C   UNL     1       9.143  10.775  19.958  0.00  0.00    +0.000 A 
ENDBRANCH   3   6
BRANCH   1  15
ATOM     14  O   UNL     1       6.074   6.418  15.818  0.00  0.00    +0.000 OA
ATOM     15  C   UNL     1       6.022   6.640  17.024  0.00  0.00    +0.000 C 
ATOM     16  N   UNL     1       4.980   6.216  17.822  0.00  0.00    +0.000 N 
ATOM     17  H   UNL     1       5.066   6.376  18.820  0.00  0.00    +0.000 HD
BRANCH  16  18
ATOM     18  C   UNL     1       3.927   5.373  17.295  0.00  0.00    +0.000 C 
ATOM     19  C   UNL     1       4.192   3.886  17.502  0.00  0.00    +0.000 C 
ATOM     20  C   UNL     1       2.830   3.236  17.291  0.00  0.00    +0.000 C 
ATOM     21  C   UNL     1       1.795   4.291  17.676  0.00  0.00    +0.000 C 
ATOM     22  C   UNL     1       2.580   5.562  17.992  0.00  0.00    +0.000 C 
ENDBRANCH  16  18
ENDBRANCH   1  15
TORSDOF 3
ENDMDL
MODEL 4
REMARK VINA RESULT:      -7.6      1.641      2.032
REMARK  Name = 
REMARK  3 active torsions:
REMARK  status: ('A' for Active; 'I' for Inactive)
REMARK    1  A    between atoms: C_2  and  C_9
REMARK    2  A    between atoms: N_3  and  C_4
REMARK    3  A    between atoms: C_11  and  C_12
REMARK                            x       y       z     vdW  Elec       q    Type
REMARK                         _______ _______ _______ _____ _____    ______ ____
ROOT
ATOM      1  C   UNL     1       7.164   7.384  17.607  0.00  0.00    +0.000 A 
ATOM      2  C   UNL     1       7.282   8.765  17.316  0.00  0.00    +0.000 A 
ATOM      3  C   UNL     1       8.321   9.214  18.092  0.00  0.00    +0.000 A 
ATOM      4  O   UNL     1       8.797   8.161  18.821  0.00  0.00    +0.000 OA
ATOM      5  N   UNL     1       8.071   7.011  18.525  0.00  0.00    +0.000 NA
ENDROOT
BRANCH   3   6
ATOM      6  C   UNL     1       8.957  10.515  18.279  0.00  0.00    +0.000 A 
ATOM      7  C   UNL     1       8.414  11.693  17.748  0.00  0.00    +0.000 A 
ATOM      8  C   UNL     1       9.056  12.925  17.929  0.00  0.00    +0.000 A 
ATOM      9  C   UNL     1      10.253  13.000  18.645  0.00  0.00    +0.000 A 
ATOM     10 CL   UNL     1      11.003  14.546  18.814  0.00  0.00    +0.000 Cl
ATOM     11  C   UNL     1      10.802  11.838  19.190  0.00  0.00    +0.000 A 
ATOM     12 CL   UNL     1      12.277  11.840  20.091  0.00  0.00    +0.000 Cl
ATOM     13  C   UNL     1      10.154  10.608  19.009  0.00  0.00    +0.000 A 
ENDBRANCH   3   6
BRANCH   1  15
ATOM     14  O   UNL     1       6.379   6.026  15.857  0.00  0.00    +0.000 OA
ATOM     15  C   UNL     1       6.203   6.464  16.991  0.00  0.00    +0.000 C 
ATOM     16  N   UNL     1       5.110   6.130  17.764  0.00  0.00    +0.000 N 
ATOM     17  H   UNL     1       5.095   6.477  18.717  0.00  0.00    +0.000 HD
BRANCH  16  18
ATOM     18  C   UNL     1       4.151   5.141  17.318  0.00  0.00    +0.000 C 
ATOM     19  C   UNL     1       4.464   3.737  17.822  0.00  0.00    +0.000 C 
ATOM     20  C   UNL     1       3.158   2.975  17.624  0.00  0.00    +0.000 C 
ATOM     21  C   UNL     1       2.045   4.017  17.719  0.00  0.00    +0.000 C 
ATOM     22  C   UNL     1       2.738   5.370  17.854  0.00  0.00    +0.000 C 
ENDBRANCH  16  18
ENDBRANCH   1  15
TORSDOF 3
ENDMDL
MODEL 5
REMARK VINA RESULT:      -7.5      0.753      1.605
REMARK  Name = 
REMARK  3 active torsions:
REMARK  status: ('A' for Active; 'I' for Inactive)
REMARK    1  A    between atoms: C_2  and  C_9
REMARK    2  A    between atoms: N_3  and  C_4
REMARK    3  A    between atoms: C_11  and  C_12
REMARK                            x       y       z     vdW  Elec       q    Type
REMARK                         _______ _______ _______ _____ _____    ______ ____
ROOT
ATOM      1  C   UNL     1       7.541   6.925  17.974  0.00  0.00    +0.000 A 
ATOM      2  C   UNL     1       8.412   7.629  18.840  0.00  0.00    +0.000 A 
ATOM      3  C   UNL     1       8.479   8.903  18.336  0.00  0.00    +0.000 A 
ATOM      4  O   UNL     1       7.697   8.961  17.216  0.00  0.00    +0.000 OA
ATOM      5  N   UNL     1       7.111   7.721  16.981  0.00  0.00    +0.000 NA
ENDROOT
BRANCH   3   6
ATOM      6  C   UNL     1       9.187  10.116  18.736  0.00  0.00    +0.000 A 
ATOM      7  C   UNL     1       9.999  10.833  17.847  0.00  0.00    +0.000 A 
ATOM      8  C   UNL     1      10.680  11.984  18.266  0.00  0.00    +0.000 A 
ATOM      9  C   UNL     1      10.558  12.438  19.581  0.00  0.00    +0.000 A 
ATOM     10 CL   UNL     1      11.439  13.851  20.036  0.00  0.00    +0.000 Cl
ATOM     11  C   UNL     1       9.743  11.742  20.476  0.00  0.00    +0.000 A 
ATOM     12 CL   UNL     1       9.534  12.236  22.120  0.00  0.00    +0.000 Cl
ATOM     13  C   UNL     1       9.062  10.594  20.052  0.00  0.00    +0.000 A 
ENDBRANCH   3   6
BRANCH   1  15
ATOM     14  O   UNL     1       7.939   4.667  18.490  0.00  0.00    +0.000 OA
ATOM     15  C   UNL     1       7.137   5.524  18.128  0.00  0.00    +0.000 C 
ATOM     16  N   UNL     1       5.816   5.245  17.845  0.00  0.00    +0.000 N 
ATOM     17  H   UNL     1       5.212   6.032  17.633  0.00  0.00    +0.000 HD
BRANCH  16  18
ATOM     18  C   UNL     1       5.264   3.925  18.071  0.00  0.00    +0.000 C 
ATOM     19  C   UNL     1       4.624   3.773  19.447  0.00  0.00    +0.000 C 
ATOM     20  C   UNL     1       3.757   2.527  19.313  0.00  0.00    +0.000 C 
ATOM     21  C   UNL     1       3.366   2.441  17.840  0.00  0.00    +0.000 C 
ATOM     22  C   UNL     1       4.107   3.574  17.135  0.00  0.00    +0.000 C 
ENDBRANCH  16  18
ENDBRANCH   1  15
TORSDOF 3
ENDMDL
MODEL 6
REMARK VINA RESULT:      -7.5      6.197      7.345
REMARK  Name = 
REMARK  3 active torsions:
REMARK  status: ('A' for Active; 'I' for Inactive)
REMARK    1  A    between atoms: C_2  and  C_9
REMARK    2  A    between atoms: N_3  and  C_4
REMARK    3  A    between atoms: C_11  and  C_12
REMARK                            x       y       z     vdW  Elec       q    Type
REMARK                         _______ _______ _______ _____ _____    ______ ____
ROOT
ATOM      1  C   UNL     1       4.792   5.437  17.503  0.00  0.00    +0.000 A 
ATOM      2  C   UNL     1       4.003   6.579  17.226  0.00  0.00    +0.000 A 
ATOM      3  C   UNL     1       3.309   6.834  18.383  0.00  0.00    +0.000 A 
ATOM      4  O   UNL     1       3.654   5.887  19.305  0.00  0.00    +0.000 OA
ATOM      5  N   UNL     1       4.580   5.004  18.757  0.00  0.00    +0.000 NA
ENDROOT
BRANCH   3   6
ATOM      6  C   UNL     1       2.334   7.847  18.777  0.00  0.00    +0.000 A 
ATOM      7  C   UNL     1       1.805   8.767  17.862  0.00  0.00    +0.000 A 
ATOM      8  C   UNL     1       0.884   9.740  18.274  0.00  0.00    +0.000 A 
ATOM      9  C   UNL     1       0.475   9.806  19.608  0.00  0.00    +0.000 A 
ATOM     10 CL   UNL     1      -0.648  11.040  20.052  0.00  0.00    +0.000 Cl
ATOM     11  C   UNL     1       0.984   8.889  20.529  0.00  0.00    +0.000 A 
ATOM     12 CL   UNL     1       0.531   8.899  22.198  0.00  0.00    +0.000 Cl
ATOM     13  C   UNL     1       1.903   7.917  20.112  0.00  0.00    +0.000 A 
ENDBRANCH   3   6
BRANCH   1  15
ATOM     14  O   UNL     1       6.787   4.316  16.966  0.00  0.00    +0.000 OA
ATOM     15  C   UNL     1       5.731   4.805  16.571  0.00  0.00    +0.000 C 
ATOM     16  N   UNL     1       5.349   4.797  15.246  0.00  0.00    +0.000 N 
ATOM     17  H   UNL     1       4.423   5.152  15.030  0.00  0.00    +0.000 HD
BRANCH  16  18
ATOM     18  C   UNL     1       6.130   4.101  14.245  0.00  0.00    +0.000 C 
ATOM     19  C   UNL     1       5.285   3.563  13.096  0.00  0.00    +0.000 C 
ATOM     20  C   UNL     1       6.300   3.278  11.994  0.00  0.00    +0.000 C 
ATOM     21  C   UNL     1       7.455   4.250  12.224  0.00  0.00    +0.000 C 
ATOM     22  C   UNL     1       7.134   4.995  13.517  0.00  0.00    +0.000 C 
ENDBRANCH  16  18
ENDBRANCH   1  15
TORSDOF 3
ENDMDL
MODEL 7
REMARK VINA RESULT:      -7.2      4.816      9.030
REMARK  Name = 
REMARK  3 active torsions:
REMARK  status: ('A' for Active; 'I' for Inactive)
REMARK    1  A    between atoms: C_2  and  C_9
REMARK    2  A    between atoms: N_3  and  C_4
REMARK    3  A    between atoms: C_11  and  C_12
REMARK                            x       y       z     vdW  Elec       q    Type
REMARK                         _______ _______ _______ _____ _____    ______ ____
ROOT
ATOM      1  C   UNL     1       7.138   6.469  18.333  0.00  0.00    +0.000 A 
ATOM      2  C   UNL     1       5.814   6.203  17.906  0.00  0.00    +0.000 A 
ATOM      3  C   UNL     1       5.421   5.088  18.603  0.00  0.00    +0.000 A 
ATOM      4  O   UNL     1       6.459   4.695  19.400  0.00  0.00    +0.000 OA
ATOM      5  N   UNL     1       7.541   5.554  19.231  0.00  0.00    +0.000 NA
ENDROOT
BRANCH   3   6
ATOM      6  C   UNL     1       4.196   4.295  18.639  0.00  0.00    +0.000 A 
ATOM      7  C   UNL     1       3.569   3.839  17.471  0.00  0.00    +0.000 A 
ATOM      8  C   UNL     1       2.384   3.094  17.536  0.00  0.00    +0.000 A 
ATOM      9  C   UNL     1       1.806   2.793  18.772  0.00  0.00    +0.000 A 
ATOM     10 CL   UNL     1       0.335   1.889  18.780  0.00  0.00    +0.000 Cl
ATOM     11  C   UNL     1       2.424   3.229  19.945  0.00  0.00    +0.000 A 
ATOM     12 CL   UNL     1       1.778   2.899  21.514  0.00  0.00    +0.000 Cl
ATOM     13  C   UNL     1       3.611   3.971  19.874  0.00  0.00    +0.000 A 
ENDBRANCH   3   6
BRANCH   1  15
ATOM     14  O   UNL     1       8.233   7.749  16.695  0.00  0.00    +0.000 OA
ATOM     15  C   UNL     1       7.968   7.590  17.884  0.00  0.00    +0.000 C 
ATOM     16  N   UNL     1       8.418   8.439  18.874  0.00  0.00    +0.000 N 
ATOM     17  H   UNL     1       8.079   8.272  19.815  0.00  0.00    +0.000 HD
BRANCH  16  18
ATOM     18  C   UNL     1       9.146   9.648  18.550  0.00  0.00    +0.000 C 
ATOM     19  C   UNL     1       8.293  10.684  17.828  0.00  0.00    +0.000 C 
ATOM     20  C   UNL     1       9.082  11.980  17.976  0.00  0.00    +0.000 C 
ATOM     21  C   UNL     1       9.884  11.839  19.268  0.00  0.00    +0.000 C 
ATOM     22  C   UNL     1       9.628  10.423  19.777  0.00  0.00    +0.000 C 
ENDBRANCH  16  18
ENDBRANCH   1  15
TORSDOF 3
ENDMDL
MODEL 8
REMARK VINA RESULT:      -7.1      1.455      1.899
REMARK  Name = 
REMARK  3 active torsions:
REMARK  status: ('A' for Active; 'I' for Inactive)
REMARK    1  A    between atoms: C_2  and  C_9
REMARK    2  A    between atoms: N_3  and  C_4
REMARK    3  A    between atoms: C_11  and  C_12
REMARK                            x       y       z     vdW  Elec       q    Type
REMARK                         _______ _______ _______ _____ _____    ______ ____
ROOT
ATOM      1  C   UNL     1       7.227   6.500  17.891  0.00  0.00    +0.000 A 
ATOM      2  C   UNL     1       7.195   7.849  17.465  0.00  0.00    +0.000 A 
ATOM      3  C   UNL     1       8.131   8.497  18.232  0.00  0.00    +0.000 A 
ATOM      4  O   UNL     1       8.689   7.587  19.085  0.00  0.00    +0.000 OA
ATOM      5  N   UNL     1       8.121   6.333  18.880  0.00  0.00    +0.000 NA
ENDROOT
BRANCH   3   6
ATOM      6  C   UNL     1       8.598   9.879  18.308  0.00  0.00    +0.000 A 
ATOM      7  C   UNL     1       8.087  10.885  17.477  0.00  0.00    +0.000 A 
ATOM      8  C   UNL     1       8.567  12.199  17.562  0.00  0.00    +0.000 A 
ATOM      9  C   UNL     1       9.565  12.528  18.481  0.00  0.00    +0.000 A 
ATOM     10 CL   UNL     1      10.125  14.161  18.520  0.00  0.00    +0.000 Cl
ATOM     11  C   UNL     1      10.076  11.541  19.324  0.00  0.00    +0.000 A 
ATOM     12 CL   UNL     1      11.311  11.862  20.492  0.00  0.00    +0.000 Cl
ATOM     13  C   UNL     1       9.591  10.229  19.238  0.00  0.00    +0.000 A 
ENDBRANCH   3   6
BRANCH   1  15
ATOM     14  O   UNL     1       6.658   4.941  16.228  0.00  0.00    +0.000 OA
ATOM     15  C   UNL     1       6.415   5.412  17.335  0.00  0.00    +0.000 C 
ATOM     16  N   UNL     1       5.382   4.966  18.132  0.00  0.00    +0.000 N 
ATOM     17  H   UNL     1       5.312   5.361  19.064  0.00  0.00    +0.000 HD
BRANCH  16  18
ATOM     18  C   UNL     1       4.582   3.821  17.750  0.00  0.00    +0.000 C 
ATOM     19  C   UNL     1       4.371   2.832  18.892  0.00  0.00    +0.000 C 
ATOM     20  C   UNL     1       3.195   1.980  18.428  0.00  0.00    +0.000 C 
ATOM     21  C   UNL     1       2.371   2.869  17.499  0.00  0.00    +0.000 C 
ATOM     22  C   UNL     1       3.148   4.175  17.359  0.00  0.00    +0.000 C 
ENDBRANCH  16  18
ENDBRANCH   1  15
TORSDOF 3
ENDMDL
MODEL 9
REMARK VINA RESULT:      -7.1      8.457     10.321
REMARK  Name = 
REMARK  3 active torsions:
REMARK  status: ('A' for Active; 'I' for Inactive)
REMARK    1  A    between atoms: C_2  and  C_9
REMARK    2  A    between atoms: N_3  and  C_4
REMARK    3  A    between atoms: C_11  and  C_12
REMARK                            x       y       z     vdW  Elec       q    Type
REMARK                         _______ _______ _______ _____ _____    ______ ____
ROOT
ATOM      1  C   UNL     1       0.549   9.601  21.330  0.00  0.00    +0.000 A 
ATOM      2  C   UNL     1       1.143   8.315  21.353  0.00  0.00    +0.000 A 
ATOM      3  C   UNL     1       1.624   8.112  20.084  0.00  0.00    +0.000 A 
ATOM      4  O   UNL     1       1.325   9.213  19.332  0.00  0.00    +0.000 OA
ATOM      5  N   UNL     1       0.646  10.148  20.107  0.00  0.00    +0.000 NA
ENDROOT
BRANCH   3   6
ATOM      6  C   UNL     1       2.333   7.014  19.433  0.00  0.00    +0.000 A 
ATOM      7  C   UNL     1       3.018   7.182  18.222  0.00  0.00    +0.000 A 
ATOM      8  C   UNL     1       3.674   6.105  17.612  0.00  0.00    +0.000 A 
ATOM      9  C   UNL     1       3.658   4.840  18.206  0.00  0.00    +0.000 A 
ATOM     10 CL   UNL     1       4.470   3.552  17.392  0.00  0.00    +0.000 Cl
ATOM     11  C   UNL     1       2.990   4.658  19.418  0.00  0.00    +0.000 A 
ATOM     12 CL   UNL     1       2.922   3.129  20.221  0.00  0.00    +0.000 Cl
ATOM     13  C   UNL     1       2.338   5.739  20.025  0.00  0.00    +0.000 A 
ENDBRANCH   3   6
BRANCH   1  15
ATOM     14  O   UNL     1       0.134   9.892  23.625  0.00  0.00    +0.000 OA
ATOM     15  C   UNL     1      -0.077  10.269  22.475  0.00  0.00    +0.000 C 
ATOM     16  N   UNL     1      -0.901  11.333  22.172  0.00  0.00    +0.000 N 
ATOM     17  H   UNL     1      -0.948  11.620  21.200  0.00  0.00    +0.000 HD
BRANCH  16  18
ATOM     18  C   UNL     1      -1.484  12.149  23.216  0.00  0.00    +0.000 C 
ATOM     19  C   UNL     1      -1.100  13.621  23.109  0.00  0.00    +0.000 C 
ATOM     20  C   UNL     1      -2.124  14.334  23.984  0.00  0.00    +0.000 C 
ATOM     21  C   UNL     1      -3.377  13.461  23.963  0.00  0.00    +0.000 C 
ATOM     22  C   UNL     1      -3.011  12.209  23.170  0.00  0.00    +0.000 C 
ENDBRANCH  16  18
ENDBRANCH   1  15
TORSDOF 3
ENDMDL
