MODEL 1
REMARK VINA RESULT:      -9.4      0.000      0.000
REMARK  Name = 
REMARK  5 active torsions:
REMARK  status: ('A' for Active; 'I' for Inactive)
REMARK    1  A    between atoms: C_1  and  C_2
REMARK    2  A    between atoms: C_5  and  S_6
REMARK    3  A    between atoms: S_6  and  N_9
REMARK    4  A    between atoms: N_9  and  C_10
REMARK    5  A    between atoms: C_13  and  C_14
REMARK                            x       y       z     vdW  Elec       q    Type
REMARK                         _______ _______ _______ _____ _____    ______ ____
ROOT
ATOM      1  C   UNL     1       4.537   3.701  18.626  0.00  0.00    +0.000 A 
ATOM      2  C   UNL     1       3.958   3.065  17.536  0.00  0.00    +0.000 A 
ATOM      3  C   UNL     1       4.505   3.240  16.267  0.00  0.00    +0.000 A 
ATOM      4  C   UNL     1       5.629   4.068  16.049  0.00  0.00    +0.000 A 
ATOM      5  C   UNL     1       6.204   4.731  17.195  0.00  0.00    +0.000 A 
ATOM      6  C   UNL     1       7.294   5.632  17.155  0.00  0.00    +0.000 A 
ATOM      7  C   UNL     1       7.859   6.153  18.315  0.00  0.00    +0.000 A 
ATOM      8  C   UNL     1       7.272   5.832  19.514  0.00  0.00    +0.000 A 
ATOM      9  N   UNL     1       6.171   5.061  19.612  0.00  0.00    +0.000 NA
ATOM     10  C   UNL     1       5.664   4.510  18.488  0.00  0.00    +0.000 A 
ENDROOT
BRANCH   4  11
ATOM     11  C   UNL     1       6.159   4.193  14.655  0.00  0.00    +0.000 A 
ATOM     12  C   UNL     1       7.269   5.013  14.363  0.00  0.00    +0.000 A 
ATOM     13  C   UNL     1       7.769   5.144  13.062  0.00  0.00    +0.000 A 
ATOM     14  C   UNL     1       7.199   4.422  12.019  0.00  0.00    +0.000 A 
ATOM     15  C   UNL     1       6.103   3.608  12.270  0.00  0.00    +0.000 A 
ATOM     16  C   UNL     1       5.568   3.533  13.561  0.00  0.00    +0.000 A 
ENDBRANCH   4  11
BRANCH   1  17
ATOM     17  N   UNL     1       3.950   3.509  19.937  0.00  0.00    +0.000 N 
ATOM     18  H   UNL     1       4.048   2.512  20.173  0.00  0.00    +0.000 HD
BRANCH  17  19
ATOM     19  S   UNL     1       2.297   3.913  20.084  0.00  0.00    +0.000 S 
ATOM     20  O   UNL     1       1.897   3.873  21.476  0.00  0.00    +0.000 OA
ATOM     21  O   UNL     1       1.588   3.138  19.089  0.00  0.00    +0.000 OA
BRANCH  19  26
ATOM     22  C   UNL     1       1.909   9.676  18.161  0.00  0.00    +0.000 C 
ATOM     23  C   UNL     1       2.025   8.255  18.632  0.00  0.00    +0.000 A 
ATOM     24  C   UNL     1       2.275   7.217  17.725  0.00  0.00    +0.000 A 
ATOM     25  C   UNL     1       2.378   5.896  18.173  0.00  0.00    +0.000 A 
ATOM     26  C   UNL     1       2.237   5.611  19.537  0.00  0.00    +0.000 A 
ATOM     27  C   UNL     1       1.960   6.632  20.445  0.00  0.00    +0.000 A 
ATOM     28  C   UNL     1       1.867   7.953  19.992  0.00  0.00    +0.000 A 
ENDBRANCH  19  26
ENDBRANCH  17  19
ENDBRANCH   1  17
TORSDOF 4
ENDMDL
MODEL 2
REMARK VINA RESULT:      -8.8      2.565      7.020
REMARK  Name = 
REMARK  5 active torsions:
REMARK  status: ('A' for Active; 'I' for Inactive)
REMARK    1  A    between atoms: C_1  and  C_2
REMARK    2  A    between atoms: C_5  and  S_6
REMARK    3  A    between atoms: S_6  and  N_9
REMARK    4  A    between atoms: N_9  and  C_10
REMARK    5  A    between atoms: C_13  and  C_14
REMARK                            x       y       z     vdW  Elec       q    Type
REMARK                         _______ _______ _______ _____ _____    ______ ____
ROOT
ATOM      1  C   UNL     1       4.920   5.218  18.605  0.00  0.00    +0.000 A 
ATOM      2  C   UNL     1       5.011   6.450  17.971  0.00  0.00    +0.000 A 
ATOM      3  C   UNL     1       3.989   7.383  18.131  0.00  0.00    +0.000 A 
ATOM      4  C   UNL     1       2.843   7.105  18.909  0.00  0.00    +0.000 A 
ATOM      5  C   UNL     1       2.764   5.812  19.545  0.00  0.00    +0.000 A 
ATOM      6  C   UNL     1       1.672   5.347  20.316  0.00  0.00    +0.000 A 
ATOM      7  C   UNL     1       1.711   4.127  20.984  0.00  0.00    +0.000 A 
ATOM      8  C   UNL     1       2.819   3.336  20.808  0.00  0.00    +0.000 A 
ATOM      9  N   UNL     1       3.849   3.676  20.008  0.00  0.00    +0.000 NA
ATOM     10  C   UNL     1       3.830   4.888  19.410  0.00  0.00    +0.000 A 
ENDROOT
BRANCH   4  11
ATOM     11  C   UNL     1       1.796   8.168  19.036  0.00  0.00    +0.000 A 
ATOM     12  C   UNL     1       1.273   8.821  17.901  0.00  0.00    +0.000 A 
ATOM     13  C   UNL     1       0.299   9.821  18.008  0.00  0.00    +0.000 A 
ATOM     14  C   UNL     1      -0.212  10.167  19.253  0.00  0.00    +0.000 A 
ATOM     15  C   UNL     1       0.282   9.547  20.392  0.00  0.00    +0.000 A 
ATOM     16  C   UNL     1       1.302   8.594  20.284  0.00  0.00    +0.000 A 
ENDBRANCH   4  11
BRANCH   1  17
ATOM     17  N   UNL     1       5.992   4.259  18.422  0.00  0.00    +0.000 N 
ATOM     18  H   UNL     1       6.359   4.029  19.356  0.00  0.00    +0.000 HD
BRANCH  17  19
ATOM     19  S   UNL     1       7.307   4.781  17.466  0.00  0.00    +0.000 S 
ATOM     20  O   UNL     1       8.487   3.999  17.774  0.00  0.00    +0.000 OA
ATOM     21  O   UNL     1       7.336   6.225  17.549  0.00  0.00    +0.000 OA
BRANCH  19  26
ATOM     22  C   UNL     1       5.422   3.557  11.809  0.00  0.00    +0.000 C 
ATOM     23  C   UNL     1       5.894   3.840  13.205  0.00  0.00    +0.000 A 
ATOM     24  C   UNL     1       5.201   3.333  14.312  0.00  0.00    +0.000 A 
ATOM     25  C   UNL     1       5.646   3.604  15.610  0.00  0.00    +0.000 A 
ATOM     26  C   UNL     1       6.794   4.382  15.804  0.00  0.00    +0.000 A 
ATOM     27  C   UNL     1       7.476   4.916  14.711  0.00  0.00    +0.000 A 
ATOM     28  C   UNL     1       7.031   4.633  13.414  0.00  0.00    +0.000 A 
ENDBRANCH  19  26
ENDBRANCH  17  19
ENDBRANCH   1  17
TORSDOF 4
ENDMDL
MODEL 3
REMARK VINA RESULT:      -8.6      2.613      7.810
REMARK  Name = 
REMARK  5 active torsions:
REMARK  status: ('A' for Active; 'I' for Inactive)
REMARK    1  A    between atoms: C_1  and  C_2
REMARK    2  A    between atoms: C_5  and  S_6
REMARK    3  A    between atoms: S_6  and  N_9
REMARK    4  A    between atoms: N_9  and  C_10
REMARK    5  A    between atoms: C_13  and  C_14
REMARK                            x       y       z     vdW  Elec       q    Type
REMARK                         _______ _______ _______ _____ _____    ______ ____
ROOT
ATOM      1  C   UNL     1       3.451   6.077  17.791  0.00  0.00    +0.000 A 
ATOM      2  C   UNL     1       3.235   7.415  17.485  0.00  0.00    +0.000 A 
ATOM      3  C   UNL     1       2.515   8.215  18.369  0.00  0.00    +0.000 A 
ATOM      4  C   UNL     1       1.976   7.700  19.569  0.00  0.00    +0.000 A 
ATOM      5  C   UNL     1       2.200   6.304  19.857  0.00  0.00    +0.000 A 
ATOM      6  C   UNL     1       1.692   5.611  20.982  0.00  0.00    +0.000 A 
ATOM      7  C   UNL     1       2.035   4.289  21.247  0.00  0.00    +0.000 A 
ATOM      8  C   UNL     1       2.825   3.637  20.332  0.00  0.00    +0.000 A 
ATOM      9  N   UNL     1       3.258   4.209  19.192  0.00  0.00    +0.000 NA
ATOM     10  C   UNL     1       2.971   5.510  18.970  0.00  0.00    +0.000 A 
ENDROOT
BRANCH   4  11
ATOM     11  C   UNL     1       1.224   8.632  20.467  0.00  0.00    +0.000 A 
ATOM     12  C   UNL     1       0.366   9.622  19.943  0.00  0.00    +0.000 A 
ATOM     13  C   UNL     1      -0.338  10.503  20.773  0.00  0.00    +0.000 A 
ATOM     14  C   UNL     1      -0.237  10.392  22.155  0.00  0.00    +0.000 A 
ATOM     15  C   UNL     1       0.602   9.432  22.704  0.00  0.00    +0.000 A 
ATOM     16  C   UNL     1       1.352   8.597  21.868  0.00  0.00    +0.000 A 
ENDBRANCH   4  11
BRANCH   1  17
ATOM     17  N   UNL     1       4.199   5.261  16.856  0.00  0.00    +0.000 N 
ATOM     18  H   UNL     1       4.101   4.282  17.158  0.00  0.00    +0.000 HD
BRANCH  17  19
ATOM     19  S   UNL     1       5.868   5.598  16.736  0.00  0.00    +0.000 S 
ATOM     20  O   UNL     1       6.600   4.851  17.739  0.00  0.00    +0.000 OA
ATOM     21  O   UNL     1       5.998   7.036  16.646  0.00  0.00    +0.000 OA
BRANCH  19  26
ATOM     22  C   UNL     1       7.241   3.518  11.182  0.00  0.00    +0.000 C 
ATOM     23  C   UNL     1       6.908   4.013  12.559  0.00  0.00    +0.000 A 
ATOM     24  C   UNL     1       5.744   3.586  13.212  0.00  0.00    +0.000 A 
ATOM     25  C   UNL     1       5.440   4.054  14.494  0.00  0.00    +0.000 A 
ATOM     26  C   UNL     1       6.307   4.951  15.131  0.00  0.00    +0.000 A 
ATOM     27  C   UNL     1       7.453   5.405  14.480  0.00  0.00    +0.000 A 
ATOM     28  C   UNL     1       7.757   4.926  13.201  0.00  0.00    +0.000 A 
ENDBRANCH  19  26
ENDBRANCH  17  19
ENDBRANCH   1  17
TORSDOF 4
ENDMDL
MODEL 4
REMARK VINA RESULT:      -8.6      2.600      7.115
REMARK  Name = 
REMARK  5 active torsions:
REMARK  status: ('A' for Active; 'I' for Inactive)
REMARK    1  A    between atoms: C_1  and  C_2
REMARK    2  A    between atoms: C_5  and  S_6
REMARK    3  A    between atoms: S_6  and  N_9
REMARK    4  A    between atoms: N_9  and  C_10
REMARK    5  A    between atoms: C_13  and  C_14
REMARK                            x       y       z     vdW  Elec       q    Type
REMARK                         _______ _______ _______ _____ _____    ______ ____
ROOT
ATOM      1  C   UNL     1       4.752   5.285  18.299  0.00  0.00    +0.000 A 
ATOM      2  C   UNL     1       4.780   6.506  17.637  0.00  0.00    +0.000 A 
ATOM      3  C   UNL     1       3.789   7.451  17.895  0.00  0.00    +0.000 A 
ATOM      4  C   UNL     1       2.736   7.197  18.803  0.00  0.00    +0.000 A 
ATOM      5  C   UNL     1       2.721   5.915  19.466  0.00  0.00    +0.000 A 
ATOM      6  C   UNL     1       1.720   5.473  20.363  0.00  0.00    +0.000 A 
ATOM      7  C   UNL     1       1.825   4.264  21.044  0.00  0.00    +0.000 A 
ATOM      8  C   UNL     1       2.900   3.460  20.757  0.00  0.00    +0.000 A 
ATOM      9  N   UNL     1       3.835   3.777  19.840  0.00  0.00    +0.000 NA
ATOM     10  C   UNL     1       3.758   4.979  19.227  0.00  0.00    +0.000 A 
ENDROOT
BRANCH   4  11
ATOM     11  C   UNL     1       1.719   8.271  19.029  0.00  0.00    +0.000 A 
ATOM     12  C   UNL     1       1.280   8.604  20.328  0.00  0.00    +0.000 A 
ATOM     13  C   UNL     1       0.325   9.603  20.551  0.00  0.00    +0.000 A 
ATOM     14  C   UNL     1      -0.189  10.328  19.483  0.00  0.00    +0.000 A 
ATOM     15  C   UNL     1       0.217  10.025  18.191  0.00  0.00    +0.000 A 
ATOM     16  C   UNL     1       1.124   8.982  17.969  0.00  0.00    +0.000 A 
ENDBRANCH   4  11
BRANCH   1  17
ATOM     17  N   UNL     1       5.789   4.314  18.012  0.00  0.00    +0.000 N 
ATOM     18  H   UNL     1       6.157   3.985  18.915  0.00  0.00    +0.000 HD
BRANCH  17  19
ATOM     19  S   UNL     1       7.112   4.881  17.093  0.00  0.00    +0.000 S 
ATOM     20  O   UNL     1       8.305   4.127  17.421  0.00  0.00    +0.000 OA
ATOM     21  O   UNL     1       7.100   6.324  17.191  0.00  0.00    +0.000 OA
BRANCH  19  26
ATOM     22  C   UNL     1       5.655   3.387  11.374  0.00  0.00    +0.000 C 
ATOM     23  C   UNL     1       6.008   3.775  12.780  0.00  0.00    +0.000 A 
ATOM     24  C   UNL     1       7.163   4.522  13.049  0.00  0.00    +0.000 A 
ATOM     25  C   UNL     1       7.486   4.876  14.363  0.00  0.00    +0.000 A 
ATOM     26  C   UNL     1       6.648   4.486  15.415  0.00  0.00    +0.000 A 
ATOM     27  C   UNL     1       5.511   3.718  15.162  0.00  0.00    +0.000 A 
ATOM     28  C   UNL     1       5.188   3.375  13.845  0.00  0.00    +0.000 A 
ENDBRANCH  19  26
ENDBRANCH  17  19
ENDBRANCH   1  17
TORSDOF 4
ENDMDL
MODEL 5
REMARK VINA RESULT:      -8.6      4.009      5.455
REMARK  Name = 
REMARK  5 active torsions:
REMARK  status: ('A' for Active; 'I' for Inactive)
REMARK    1  A    between atoms: C_1  and  C_2
REMARK    2  A    between atoms: C_5  and  S_6
REMARK    3  A    between atoms: S_6  and  N_9
REMARK    4  A    between atoms: N_9  and  C_10
REMARK    5  A    between atoms: C_13  and  C_14
REMARK                            x       y       z     vdW  Elec       q    Type
REMARK                         _______ _______ _______ _____ _____    ______ ____
ROOT
ATOM      1  C   UNL     1       1.983   7.938  19.264  0.00  0.00    +0.000 A 
ATOM      2  C   UNL     1       2.577   8.531  18.158  0.00  0.00    +0.000 A 
ATOM      3  C   UNL     1       3.524   7.822  17.424  0.00  0.00    +0.000 A 
ATOM      4  C   UNL     1       3.918   6.513  17.784  0.00  0.00    +0.000 A 
ATOM      5  C   UNL     1       3.297   5.925  18.946  0.00  0.00    +0.000 A 
ATOM      6  C   UNL     1       3.605   4.650  19.479  0.00  0.00    +0.000 A 
ATOM      7  C   UNL     1       2.893   4.107  20.542  0.00  0.00    +0.000 A 
ATOM      8  C   UNL     1       1.922   4.883  21.126  0.00  0.00    +0.000 A 
ATOM      9  N   UNL     1       1.648   6.142  20.731  0.00  0.00    +0.000 NA
ATOM     10  C   UNL     1       2.303   6.641  19.660  0.00  0.00    +0.000 A 
ENDROOT
BRANCH   4  11
ATOM     11  C   UNL     1       4.935   5.819  16.934  0.00  0.00    +0.000 A 
ATOM     12  C   UNL     1       6.278   6.249  16.899  0.00  0.00    +0.000 A 
ATOM     13  C   UNL     1       7.238   5.612  16.103  0.00  0.00    +0.000 A 
ATOM     14  C   UNL     1       6.890   4.496  15.350  0.00  0.00    +0.000 A 
ATOM     15  C   UNL     1       5.577   4.048  15.357  0.00  0.00    +0.000 A 
ATOM     16  C   UNL     1       4.609   4.729  16.105  0.00  0.00    +0.000 A 
ENDBRANCH   4  11
BRANCH   1  17
ATOM     17  N   UNL     1       1.002   8.695  20.018  0.00  0.00    +0.000 N 
ATOM     18  H   UNL     1       0.175   8.094  20.134  0.00  0.00    +0.000 HD
BRANCH  17  19
ATOM     19  S   UNL     1       0.479  10.158  19.307  0.00  0.00    +0.000 S 
ATOM     20  O   UNL     1      -0.327   9.881  18.135  0.00  0.00    +0.000 OA
ATOM     21  O   UNL     1       1.639  11.018  19.219  0.00  0.00    +0.000 OA
BRANCH  19  26
ATOM     22  C   UNL     1      -2.993  12.699  23.614  0.00  0.00    +0.000 C 
ATOM     23  C   UNL     1      -2.148  12.055  22.554  0.00  0.00    +0.000 A 
ATOM     24  C   UNL     1      -1.190  11.089  22.889  0.00  0.00    +0.000 A 
ATOM     25  C   UNL     1      -0.405  10.496  21.895  0.00  0.00    +0.000 A 
ATOM     26  C   UNL     1      -0.581  10.867  20.556  0.00  0.00    +0.000 A 
ATOM     27  C   UNL     1      -1.511  11.848  20.213  0.00  0.00    +0.000 A 
ATOM     28  C   UNL     1      -2.301  12.431  21.211  0.00  0.00    +0.000 A 
ENDBRANCH  19  26
ENDBRANCH  17  19
ENDBRANCH   1  17
TORSDOF 4
ENDMDL
MODEL 6
REMARK VINA RESULT:      -8.5      2.701      7.783
REMARK  Name = 
REMARK  5 active torsions:
REMARK  status: ('A' for Active; 'I' for Inactive)
REMARK    1  A    between atoms: C_1  and  C_2
REMARK    2  A    between atoms: C_5  and  S_6
REMARK    3  A    between atoms: S_6  and  N_9
REMARK    4  A    between atoms: N_9  and  C_10
REMARK    5  A    between atoms: C_13  and  C_14
REMARK                            x       y       z     vdW  Elec       q    Type
REMARK                         _______ _______ _______ _____ _____    ______ ____
ROOT
ATOM      1  C   UNL     1       3.581   5.925  17.755  0.00  0.00    +0.000 A 
ATOM      2  C   UNL     1       3.444   7.274  17.454  0.00  0.00    +0.000 A 
ATOM      3  C   UNL     1       2.714   8.098  18.306  0.00  0.00    +0.000 A 
ATOM      4  C   UNL     1       2.086   7.598  19.469  0.00  0.00    +0.000 A 
ATOM      5  C   UNL     1       2.230   6.191  19.753  0.00  0.00    +0.000 A 
ATOM      6  C   UNL     1       1.630   5.512  20.840  0.00  0.00    +0.000 A 
ATOM      7  C   UNL     1       1.896   4.173  21.108  0.00  0.00    +0.000 A 
ATOM      8  C   UNL     1       2.704   3.493  20.230  0.00  0.00    +0.000 A 
ATOM      9  N   UNL     1       3.226   4.054  19.122  0.00  0.00    +0.000 NA
ATOM     10  C   UNL     1       3.011   5.370  18.900  0.00  0.00    +0.000 A 
ENDROOT
BRANCH   4  11
ATOM     11  C   UNL     1       1.329   8.556  20.335  0.00  0.00    +0.000 A 
ATOM     12  C   UNL     1       1.298   8.409  21.737  0.00  0.00    +0.000 A 
ATOM     13  C   UNL     1       0.589   9.295  22.557  0.00  0.00    +0.000 A 
ATOM     14  C   UNL     1      -0.077  10.380  22.000  0.00  0.00    +0.000 A 
ATOM     15  C   UNL     1      -0.071  10.553  20.623  0.00  0.00    +0.000 A 
ATOM     16  C   UNL     1       0.587   9.628  19.804  0.00  0.00    +0.000 A 
ENDBRANCH   4  11
BRANCH   1  17
ATOM     17  N   UNL     1       4.340   5.082  16.853  0.00  0.00    +0.000 N 
ATOM     18  H   UNL     1       4.375   4.142  17.269  0.00  0.00    +0.000 HD
BRANCH  17  19
ATOM     19  S   UNL     1       5.949   5.570  16.550  0.00  0.00    +0.000 S 
ATOM     20  O   UNL     1       6.850   4.915  17.476  0.00  0.00    +0.000 OA
ATOM     21  O   UNL     1       5.932   7.012  16.431  0.00  0.00    +0.000 OA
BRANCH  19  26
ATOM     22  C   UNL     1       7.180   3.273  11.048  0.00  0.00    +0.000 C 
ATOM     23  C   UNL     1       6.870   3.857  12.396  0.00  0.00    +0.000 A 
ATOM     24  C   UNL     1       7.720   4.807  12.978  0.00  0.00    +0.000 A 
ATOM     25  C   UNL     1       7.426   5.343  14.235  0.00  0.00    +0.000 A 
ATOM     26  C   UNL     1       6.272   4.933  14.914  0.00  0.00    +0.000 A 
ATOM     27  C   UNL     1       5.434   3.967  14.358  0.00  0.00    +0.000 A 
ATOM     28  C   UNL     1       5.728   3.441  13.095  0.00  0.00    +0.000 A 
ENDBRANCH  19  26
ENDBRANCH  17  19
ENDBRANCH   1  17
TORSDOF 4
ENDMDL
MODEL 7
REMARK VINA RESULT:      -8.5      3.767      5.378
REMARK  Name = 
REMARK  5 active torsions:
REMARK  status: ('A' for Active; 'I' for Inactive)
REMARK    1  A    between atoms: C_1  and  C_2
REMARK    2  A    between atoms: C_5  and  S_6
REMARK    3  A    between atoms: S_6  and  N_9
REMARK    4  A    between atoms: N_9  and  C_10
REMARK    5  A    between atoms: C_13  and  C_14
REMARK                            x       y       z     vdW  Elec       q    Type
REMARK                         _______ _______ _______ _____ _____    ______ ____
ROOT
ATOM      1  C   UNL     1       2.059   7.914  19.086  0.00  0.00    +0.000 A 
ATOM      2  C   UNL     1       2.730   8.447  17.993  0.00  0.00    +0.000 A 
ATOM      3  C   UNL     1       3.705   7.689  17.349  0.00  0.00    +0.000 A 
ATOM      4  C   UNL     1       4.050   6.391  17.788  0.00  0.00    +0.000 A 
ATOM      5  C   UNL     1       3.350   5.866  18.935  0.00  0.00    +0.000 A 
ATOM      6  C   UNL     1       3.600   4.611  19.539  0.00  0.00    +0.000 A 
ATOM      7  C   UNL     1       2.815   4.127  20.581  0.00  0.00    +0.000 A 
ATOM      8  C   UNL     1       1.826   4.945  21.071  0.00  0.00    +0.000 A 
ATOM      9  N   UNL     1       1.602   6.190  20.606  0.00  0.00    +0.000 NA
ATOM     10  C   UNL     1       2.329   6.630  19.556  0.00  0.00    +0.000 A 
ENDROOT
BRANCH   4  11
ATOM     11  C   UNL     1       5.102   5.642  17.032  0.00  0.00    +0.000 A 
ATOM     12  C   UNL     1       4.850   5.121  15.745  0.00  0.00    +0.000 A 
ATOM     13  C   UNL     1       5.824   4.414  15.031  0.00  0.00    +0.000 A 
ATOM     14  C   UNL     1       7.096   4.243  15.566  0.00  0.00    +0.000 A 
ATOM     15  C   UNL     1       7.378   4.739  16.831  0.00  0.00    +0.000 A 
ATOM     16  C   UNL     1       6.380   5.390  17.567  0.00  0.00    +0.000 A 
ENDBRANCH   4  11
BRANCH   1  17
ATOM     17  N   UNL     1       1.051   8.720  19.746  0.00  0.00    +0.000 N 
ATOM     18  H   UNL     1       0.135   8.308  19.522  0.00  0.00    +0.000 HD
BRANCH  17  19
ATOM     19  S   UNL     1       0.997  10.367  19.296  0.00  0.00    +0.000 S 
ATOM     20  O   UNL     1       1.922  10.616  18.209  0.00  0.00    +0.000 OA
ATOM     21  O   UNL     1       1.071  11.136  20.519  0.00  0.00    +0.000 OA
BRANCH  19  26
ATOM     22  C   UNL     1      -4.604  11.219  17.068  0.00  0.00    +0.000 C 
ATOM     23  C   UNL     1      -3.231  10.999  17.634  0.00  0.00    +0.000 A 
ATOM     24  C   UNL     1      -2.780  11.744  18.731  0.00  0.00    +0.000 A 
ATOM     25  C   UNL     1      -1.498  11.535  19.250  0.00  0.00    +0.000 A 
ATOM     26  C   UNL     1      -0.662  10.571  18.671  0.00  0.00    +0.000 A 
ATOM     27  C   UNL     1      -1.089   9.843  17.561  0.00  0.00    +0.000 A 
ATOM     28  C   UNL     1      -2.377  10.050  17.053  0.00  0.00    +0.000 A 
ENDBRANCH  19  26
ENDBRANCH  17  19
ENDBRANCH   1  17
TORSDOF 4
ENDMDL
MODEL 8
REMARK VINA RESULT:      -8.5      3.099      7.156
REMARK  Name = 
REMARK  5 active torsions:
REMARK  status: ('A' for Active; 'I' for Inactive)
REMARK    1  A    between atoms: C_1  and  C_2
REMARK    2  A    between atoms: C_5  and  S_6
REMARK    3  A    between atoms: S_6  and  N_9
REMARK    4  A    between atoms: N_9  and  C_10
REMARK    5  A    between atoms: C_13  and  C_14
REMARK                            x       y       z     vdW  Elec       q    Type
REMARK                         _______ _______ _______ _____ _____    ______ ____
ROOT
ATOM      1  C   UNL     1       3.664   5.807  17.770  0.00  0.00    +0.000 A 
ATOM      2  C   UNL     1       3.654   7.180  17.554  0.00  0.00    +0.000 A 
ATOM      3  C   UNL     1       2.911   8.003  18.397  0.00  0.00    +0.000 A 
ATOM      4  C   UNL     1       2.145   7.480  19.463  0.00  0.00    +0.000 A 
ATOM      5  C   UNL     1       2.159   6.050  19.657  0.00  0.00    +0.000 A 
ATOM      6  C   UNL     1       1.414   5.353  20.638  0.00  0.00    +0.000 A 
ATOM      7  C   UNL     1       1.557   3.983  20.832  0.00  0.00    +0.000 A 
ATOM      8  C   UNL     1       2.390   3.299  19.981  0.00  0.00    +0.000 A 
ATOM      9  N   UNL     1       3.050   3.887  18.965  0.00  0.00    +0.000 NA
ATOM     10  C   UNL     1       2.953   5.227  18.819  0.00  0.00    +0.000 A 
ENDROOT
BRANCH   4  11
ATOM     11  C   UNL     1       1.383   8.437  20.326  0.00  0.00    +0.000 A 
ATOM     12  C   UNL     1       0.564   9.438  19.765  0.00  0.00    +0.000 A 
ATOM     13  C   UNL     1      -0.148  10.343  20.562  0.00  0.00    +0.000 A 
ATOM     14  C   UNL     1      -0.094  10.245  21.947  0.00  0.00    +0.000 A 
ATOM     15  C   UNL     1       0.706   9.274  22.534  0.00  0.00    +0.000 A 
ATOM     16  C   UNL     1       1.466   8.414  21.731  0.00  0.00    +0.000 A 
ENDBRANCH   4  11
BRANCH   1  17
ATOM     17  N   UNL     1       4.440   4.968  16.879  0.00  0.00    +0.000 N 
ATOM     18  H   UNL     1       3.898   4.107  16.721  0.00  0.00    +0.000 HD
BRANCH  17  19
ATOM     19  S   UNL     1       5.985   4.507  17.441  0.00  0.00    +0.000 S 
ATOM     20  O   UNL     1       6.714   3.827  16.390  0.00  0.00    +0.000 OA
ATOM     21  O   UNL     1       5.790   3.878  18.730  0.00  0.00    +0.000 OA
BRANCH  19  26
ATOM     22  C   UNL     1       8.893   9.762  18.432  0.00  0.00    +0.000 C 
ATOM     23  C   UNL     1       8.164   8.470  18.205  0.00  0.00    +0.000 A 
ATOM     24  C   UNL     1       8.398   7.360  19.027  0.00  0.00    +0.000 A 
ATOM     25  C   UNL     1       7.717   6.159  18.806  0.00  0.00    +0.000 A 
ATOM     26  C   UNL     1       6.792   6.067  17.758  0.00  0.00    +0.000 A 
ATOM     27  C   UNL     1       6.571   7.156  16.915  0.00  0.00    +0.000 A 
ATOM     28  C   UNL     1       7.249   8.358  17.148  0.00  0.00    +0.000 A 
ENDBRANCH  19  26
ENDBRANCH  17  19
ENDBRANCH   1  17
TORSDOF 4
ENDMDL
MODEL 9
REMARK VINA RESULT:      -8.5      3.785      5.271
REMARK  Name = 
REMARK  5 active torsions:
REMARK  status: ('A' for Active; 'I' for Inactive)
REMARK    1  A    between atoms: C_1  and  C_2
REMARK    2  A    between atoms: C_5  and  S_6
REMARK    3  A    between atoms: S_6  and  N_9
REMARK    4  A    between atoms: N_9  and  C_10
REMARK    5  A    between atoms: C_13  and  C_14
REMARK                            x       y       z     vdW  Elec       q    Type
REMARK                         _______ _______ _______ _____ _____    ______ ____
ROOT
ATOM      1  C   UNL     1       2.029   7.951  19.052  0.00  0.00    +0.000 A 
ATOM      2  C   UNL     1       2.699   8.489  17.962  0.00  0.00    +0.000 A 
ATOM      3  C   UNL     1       3.690   7.744  17.328  0.00  0.00    +0.000 A 
ATOM      4  C   UNL     1       4.051   6.453  17.775  0.00  0.00    +0.000 A 
ATOM      5  C   UNL     1       3.351   5.921  18.919  0.00  0.00    +0.000 A 
ATOM      6  C   UNL     1       3.616   4.673  19.531  0.00  0.00    +0.000 A 
ATOM      7  C   UNL     1       2.831   4.182  20.569  0.00  0.00    +0.000 A 
ATOM      8  C   UNL     1       1.827   4.987  21.048  0.00  0.00    +0.000 A 
ATOM      9  N   UNL     1       1.587   6.226  20.577  0.00  0.00    +0.000 NA
ATOM     10  C   UNL     1       2.315   6.672  19.529  0.00  0.00    +0.000 A 
ENDROOT
BRANCH   4  11
ATOM     11  C   UNL     1       5.120   5.716  17.029  0.00  0.00    +0.000 A 
ATOM     12  C   UNL     1       6.337   5.364  17.649  0.00  0.00    +0.000 A 
ATOM     13  C   UNL     1       7.347   4.681  16.960  0.00  0.00    +0.000 A 
ATOM     14  C   UNL     1       7.151   4.293  15.640  0.00  0.00    +0.000 A 
ATOM     15  C   UNL     1       5.967   4.626  14.997  0.00  0.00    +0.000 A 
ATOM     16  C   UNL     1       4.988   5.365  15.672  0.00  0.00    +0.000 A 
ENDBRANCH   4  11
BRANCH   1  17
ATOM     17  N   UNL     1       1.004   8.744  19.701  0.00  0.00    +0.000 N 
ATOM     18  H   UNL     1       0.093   8.357  19.419  0.00  0.00    +0.000 HD
BRANCH  17  19
ATOM     19  S   UNL     1       0.995  10.410  19.322  0.00  0.00    +0.000 S 
ATOM     20  O   UNL     1       1.949  10.685  18.267  0.00  0.00    +0.000 OA
ATOM     21  O   UNL     1       1.058  11.124  20.580  0.00  0.00    +0.000 OA
BRANCH  19  26
ATOM     22  C   UNL     1      -4.662  11.169  17.206  0.00  0.00    +0.000 C 
ATOM     23  C   UNL     1      -3.260  10.992  17.711  0.00  0.00    +0.000 A 
ATOM     24  C   UNL     1      -2.406  10.041  17.137  0.00  0.00    +0.000 A 
ATOM     25  C   UNL     1      -1.102   9.879  17.616  0.00  0.00    +0.000 A 
ATOM     26  C   UNL     1      -0.646  10.677  18.673  0.00  0.00    +0.000 A 
ATOM     27  C   UNL     1      -1.495  11.607  19.271  0.00  0.00    +0.000 A 
ATOM     28  C   UNL     1      -2.795  11.771  18.781  0.00  0.00    +0.000 A 
ENDBRANCH  19  26
ENDBRANCH  17  19
ENDBRANCH   1  17
TORSDOF 4
ENDMDL
