MODEL 1
REMARK VINA RESULT:      -8.4      0.000      0.000
REMARK  Name = 
REMARK  9 active torsions:
REMARK  status: ('A' for Active; 'I' for Inactive)
REMARK    1  A    between atoms: C_1  and  C_2
REMARK    2  A    between atoms: C_2  and  C_3
REMARK    3  A    between atoms: C_5  and  C_6
REMARK    4  A    between atoms: C_6  and  C_7
REMARK    5  A    between atoms: C_9  and  C_10
REMARK    6  A    between atoms: C_10  and  C_11
REMARK    7  A    between atoms: C_12  and  C_13
REMARK    8  A    between atoms: C_16  and  O_17
REMARK    9  A    between atoms: C_27  and  O_28
REMARK                            x       y       z     vdW  Elec       q    Type
REMARK                         _______ _______ _______ _____ _____    ______ ____
ROOT
ATOM      1  C   UNL     1       3.672   7.345  16.814  0.00  0.00    +0.000 C 
ENDROOT
BRANCH   1   2
ATOM      2  C   UNL     1       2.882   7.335  18.082  0.00  0.00    +0.000 C 
ATOM      3  C   UNL     1       2.613   6.285  18.866  0.00  0.00    +0.000 C 
ATOM      4  C   UNL     1       1.779   6.753  19.975  0.00  0.00    +0.000 C 
ATOM      5  O   UNL     1       1.335   6.073  20.879  0.00  0.00    +0.000 OA
ATOM      6  O   UNL     1       1.587   8.073  19.814  0.00  0.00    +0.000 OA
ATOM      7  C   UNL     1       2.217   8.487  18.698  0.00  0.00    +0.000 C 
ATOM      8  O   UNL     1       2.202   9.636  18.297  0.00  0.00    +0.000 OA
BRANCH   3   9
ATOM      9  C   UNL     1       2.993   4.884  18.692  0.00  0.00    +0.000 A 
ATOM     10  C   UNL     1       3.991   4.301  19.485  0.00  0.00    +0.000 A 
ATOM     11  C   UNL     1       4.288   2.937  19.360  0.00  0.00    +0.000 A 
ATOM     12  C   UNL     1       3.587   2.164  18.440  0.00  0.00    +0.000 A 
ATOM     13  C   UNL     1       2.600   2.730  17.642  0.00  0.00    +0.000 A 
ATOM     14  C   UNL     1       2.304   4.089  17.767  0.00  0.00    +0.000 A 
BRANCH  12  15
ATOM     15  O   UNL     1       3.833   0.833  18.290  0.00  0.00    +0.000 OA
ATOM     16  H   UNL     1       4.626   0.716  17.742  0.00  0.00    +0.000 HD
ENDBRANCH  12  15
ENDBRANCH   3   9
ENDBRANCH   1   2
BRANCH   1  19
ATOM     17  C   UNL     1       6.188   4.677  15.694  0.00  0.00    +0.000 A 
ATOM     18  C   UNL     1       5.062   5.520  15.735  0.00  0.00    +0.000 A 
ATOM     19  C   UNL     1       4.902   6.468  16.760  0.00  0.00    +0.000 A 
ATOM     20  C   UNL     1       5.877   6.552  17.763  0.00  0.00    +0.000 A 
ATOM     21  C   UNL     1       7.008   5.734  17.723  0.00  0.00    +0.000 A 
ATOM     22  C   UNL     1       7.163   4.817  16.686  0.00  0.00    +0.000 A 
BRANCH  22  23
ATOM     23  O   UNL     1       8.280   4.032  16.637  0.00  0.00    +0.000 OA
ATOM     24  H   UNL     1       8.802   4.182  17.443  0.00  0.00    +0.000 HD
ENDBRANCH  22  23
BRANCH  17  25
ATOM     25  C   UNL     1       6.263   3.581  14.651  0.00  0.00    +0.000 C 
BRANCH  25  30
ATOM     26  C   UNL     1       6.276   1.961  11.953  0.00  0.00    +0.000 C 
ATOM     27  C   UNL     1       5.453   3.197  12.144  0.00  0.00    +0.000 C 
ATOM     28  C   UNL     1       4.236   3.353  11.285  0.00  0.00    +0.000 C 
ATOM     29  O   UNL     1       6.251   4.382  12.299  0.00  0.00    +0.000 OA
ATOM     30  C   UNL     1       5.475   3.991  13.443  0.00  0.00    +0.000 C 
ENDBRANCH  25  30
ENDBRANCH  17  25
ENDBRANCH   1  19
TORSDOF 7
ENDMDL
MODEL 2
REMARK VINA RESULT:      -8.0      1.593      4.263
REMARK  Name = 
REMARK  9 active torsions:
REMARK  status: ('A' for Active; 'I' for Inactive)
REMARK    1  A    between atoms: C_1  and  C_2
REMARK    2  A    between atoms: C_2  and  C_3
REMARK    3  A    between atoms: C_5  and  C_6
REMARK    4  A    between atoms: C_6  and  C_7
REMARK    5  A    between atoms: C_9  and  C_10
REMARK    6  A    between atoms: C_10  and  C_11
REMARK    7  A    between atoms: C_12  and  C_13
REMARK    8  A    between atoms: C_16  and  O_17
REMARK    9  A    between atoms: C_27  and  O_28
REMARK                            x       y       z     vdW  Elec       q    Type
REMARK                         _______ _______ _______ _____ _____    ______ ____
ROOT
ATOM      1  C   UNL     1       4.898   3.589  19.538  0.00  0.00    +0.000 C 
ENDROOT
BRANCH   1   2
ATOM      2  C   UNL     1       3.567   3.162  19.012  0.00  0.00    +0.000 C 
ATOM      3  C   UNL     1       2.463   3.906  18.887  0.00  0.00    +0.000 C 
ATOM      4  C   UNL     1       1.399   3.050  18.360  0.00  0.00    +0.000 C 
ATOM      5  O   UNL     1       0.254   3.384  18.126  0.00  0.00    +0.000 OA
ATOM      6  O   UNL     1       1.913   1.820  18.181  0.00  0.00    +0.000 OA
ATOM      7  C   UNL     1       3.207   1.815  18.556  0.00  0.00    +0.000 C 
ATOM      8  O   UNL     1       3.921   0.831  18.515  0.00  0.00    +0.000 OA
BRANCH   3   9
ATOM      9  C   UNL     1       2.253   5.308  19.242  0.00  0.00    +0.000 A 
ATOM     10  C   UNL     1       2.447   6.330  18.302  0.00  0.00    +0.000 A 
ATOM     11  C   UNL     1       2.165   7.661  18.634  0.00  0.00    +0.000 A 
ATOM     12  C   UNL     1       1.694   7.966  19.907  0.00  0.00    +0.000 A 
ATOM     13  C   UNL     1       1.503   6.964  20.852  0.00  0.00    +0.000 A 
ATOM     14  C   UNL     1       1.783   5.637  20.521  0.00  0.00    +0.000 A 
BRANCH  12  15
ATOM     15  O   UNL     1       1.396   9.243  20.274  0.00  0.00    +0.000 OA
ATOM     16  H   UNL     1       1.603   9.360  21.215  0.00  0.00    +0.000 HD
ENDBRANCH  12  15
ENDBRANCH   3   9
ENDBRANCH   1   2
BRANCH   1  19
ATOM     17  C   UNL     1       6.114   5.675  16.559  0.00  0.00    +0.000 A 
ATOM     18  C   UNL     1       5.365   4.786  17.353  0.00  0.00    +0.000 A 
ATOM     19  C   UNL     1       5.687   4.573  18.704  0.00  0.00    +0.000 A 
ATOM     20  C   UNL     1       6.785   5.247  19.254  0.00  0.00    +0.000 A 
ATOM     21  C   UNL     1       7.523   6.147  18.483  0.00  0.00    +0.000 A 
ATOM     22  C   UNL     1       7.177   6.365  17.151  0.00  0.00    +0.000 A 
BRANCH  22  23
ATOM     23  O   UNL     1       7.887   7.260  16.404  0.00  0.00    +0.000 OA
ATOM     24  H   UNL     1       8.813   6.968  16.364  0.00  0.00    +0.000 HD
ENDBRANCH  22  23
BRANCH  17  25
ATOM     25  C   UNL     1       5.821   5.781  15.076  0.00  0.00    +0.000 C 
BRANCH  25  30
ATOM     26  C   UNL     1       4.822   3.838  12.813  0.00  0.00    +0.000 C 
ATOM     27  C   UNL     1       6.263   3.938  13.208  0.00  0.00    +0.000 C 
ATOM     28  C   UNL     1       7.286   3.549  12.185  0.00  0.00    +0.000 C 
ATOM     29  O   UNL     1       6.513   3.457  14.539  0.00  0.00    +0.000 OA
ATOM     30  C   UNL     1       6.734   4.859  14.324  0.00  0.00    +0.000 C 
ENDBRANCH  25  30
ENDBRANCH  17  25
ENDBRANCH   1  19
TORSDOF 7
ENDMDL
MODEL 3
REMARK VINA RESULT:      -8.0      2.494      7.646
REMARK  Name = 
REMARK  9 active torsions:
REMARK  status: ('A' for Active; 'I' for Inactive)
REMARK    1  A    between atoms: C_1  and  C_2
REMARK    2  A    between atoms: C_2  and  C_3
REMARK    3  A    between atoms: C_5  and  C_6
REMARK    4  A    between atoms: C_6  and  C_7
REMARK    5  A    between atoms: C_9  and  C_10
REMARK    6  A    between atoms: C_10  and  C_11
REMARK    7  A    between atoms: C_12  and  C_13
REMARK    8  A    between atoms: C_16  and  O_17
REMARK    9  A    between atoms: C_27  and  O_28
REMARK                            x       y       z     vdW  Elec       q    Type
REMARK                         _______ _______ _______ _____ _____    ______ ____
ROOT
ATOM      1  C   UNL     1       3.300   5.900  20.074  0.00  0.00    +0.000 C 
ENDROOT
BRANCH   1   2
ATOM      2  C   UNL     1       2.938   4.556  19.533  0.00  0.00    +0.000 C 
ATOM      3  C   UNL     1       3.517   3.902  18.520  0.00  0.00    +0.000 C 
ATOM      4  C   UNL     1       2.800   2.640  18.329  0.00  0.00    +0.000 C 
ATOM      5  O   UNL     1       3.043   1.793  17.492  0.00  0.00    +0.000 OA
ATOM      6  O   UNL     1       1.819   2.584  19.246  0.00  0.00    +0.000 OA
ATOM      7  C   UNL     1       1.841   3.701  19.998  0.00  0.00    +0.000 C 
ATOM      8  O   UNL     1       1.055   3.928  20.899  0.00  0.00    +0.000 OA
BRANCH   3   9
ATOM      9  C   UNL     1       4.628   4.322  17.668  0.00  0.00    +0.000 A 
ATOM     10  C   UNL     1       5.942   4.353  18.155  0.00  0.00    +0.000 A 
ATOM     11  C   UNL     1       7.006   4.681  17.304  0.00  0.00    +0.000 A 
ATOM     12  C   UNL     1       6.749   4.982  15.970  0.00  0.00    +0.000 A 
ATOM     13  C   UNL     1       5.451   4.963  15.475  0.00  0.00    +0.000 A 
ATOM     14  C   UNL     1       4.391   4.635  16.323  0.00  0.00    +0.000 A 
BRANCH  12  15
ATOM     15  O   UNL     1       7.751   5.297  15.103  0.00  0.00    +0.000 OA
ATOM     16  H   UNL     1       8.575   5.420  15.601  0.00  0.00    +0.000 HD
ENDBRANCH  12  15
ENDBRANCH   3   9
ENDBRANCH   1   2
BRANCH   1  19
ATOM     17  C   UNL     1       1.020   8.955  19.657  0.00  0.00    +0.000 A 
ATOM     18  C   UNL     1       1.696   7.858  20.222  0.00  0.00    +0.000 A 
ATOM     19  C   UNL     1       2.606   7.098  19.467  0.00  0.00    +0.000 A 
ATOM     20  C   UNL     1       2.821   7.437  18.125  0.00  0.00    +0.000 A 
ATOM     21  C   UNL     1       2.172   8.535  17.557  0.00  0.00    +0.000 A 
ATOM     22  C   UNL     1       1.290   9.292  18.327  0.00  0.00    +0.000 A 
BRANCH  22  23
ATOM     23  O   UNL     1       0.672  10.378  17.776  0.00  0.00    +0.000 OA
ATOM     24  H   UNL     1       1.179  10.666  17.000  0.00  0.00    +0.000 HD
ENDBRANCH  22  23
BRANCH  17  25
ATOM     25  C   UNL     1      -0.049   9.668  20.458  0.00  0.00    +0.000 C 
BRANCH  25  30
ATOM     26  C   UNL     1      -1.258  12.520  19.904  0.00  0.00    +0.000 C 
ATOM     27  C   UNL     1      -0.073  12.309  20.795  0.00  0.00    +0.000 C 
ATOM     28  C   UNL     1       0.191  13.344  21.845  0.00  0.00    +0.000 C 
ATOM     29  O   UNL     1       1.087  11.846  20.084  0.00  0.00    +0.000 OA
ATOM     30  C   UNL     1       0.524  10.929  21.035  0.00  0.00    +0.000 C 
ENDBRANCH  25  30
ENDBRANCH  17  25
ENDBRANCH   1  19
TORSDOF 7
ENDMDL
MODEL 4
REMARK VINA RESULT:      -8.0      2.451      7.563
REMARK  Name = 
REMARK  9 active torsions:
REMARK  status: ('A' for Active; 'I' for Inactive)
REMARK    1  A    between atoms: C_1  and  C_2
REMARK    2  A    between atoms: C_2  and  C_3
REMARK    3  A    between atoms: C_5  and  C_6
REMARK    4  A    between atoms: C_6  and  C_7
REMARK    5  A    between atoms: C_9  and  C_10
REMARK    6  A    between atoms: C_10  and  C_11
REMARK    7  A    between atoms: C_12  and  C_13
REMARK    8  A    between atoms: C_16  and  O_17
REMARK    9  A    between atoms: C_27  and  O_28
REMARK                            x       y       z     vdW  Elec       q    Type
REMARK                         _______ _______ _______ _____ _____    ______ ____
ROOT
ATOM      1  C   UNL     1       2.966   5.589  20.046  0.00  0.00    +0.000 C 
ENDROOT
BRANCH   1   2
ATOM      2  C   UNL     1       2.480   4.334  19.397  0.00  0.00    +0.000 C 
ATOM      3  C   UNL     1       3.047   3.667  18.387  0.00  0.00    +0.000 C 
ATOM      4  C   UNL     1       2.194   2.521  18.068  0.00  0.00    +0.000 C 
ATOM      5  O   UNL     1       2.390   1.696  17.198  0.00  0.00    +0.000 OA
ATOM      6  O   UNL     1       1.146   2.543  18.910  0.00  0.00    +0.000 OA
ATOM      7  C   UNL     1       1.252   3.606  19.732  0.00  0.00    +0.000 C 
ATOM      8  O   UNL     1       0.435   3.884  20.589  0.00  0.00    +0.000 OA
BRANCH   3   9
ATOM      9  C   UNL     1       4.264   3.984  17.641  0.00  0.00    +0.000 A 
ATOM     10  C   UNL     1       4.231   4.186  16.255  0.00  0.00    +0.000 A 
ATOM     11  C   UNL     1       5.390   4.568  15.567  0.00  0.00    +0.000 A 
ATOM     12  C   UNL     1       6.579   4.740  16.269  0.00  0.00    +0.000 A 
ATOM     13  C   UNL     1       6.628   4.536  17.642  0.00  0.00    +0.000 A 
ATOM     14  C   UNL     1       5.473   4.157  18.329  0.00  0.00    +0.000 A 
BRANCH  12  15
ATOM     15  O   UNL     1       7.729   5.120  15.645  0.00  0.00    +0.000 OA
ATOM     16  H   UNL     1       7.612   6.011  15.279  0.00  0.00    +0.000 HD
ENDBRANCH  12  15
ENDBRANCH   3   9
ENDBRANCH   1   2
BRANCH   1  19
ATOM     17  C   UNL     1       1.461   8.997  19.138  0.00  0.00    +0.000 A 
ATOM     18  C   UNL     1       1.745   7.800  19.820  0.00  0.00    +0.000 A 
ATOM     19  C   UNL     1       2.694   6.889  19.324  0.00  0.00    +0.000 A 
ATOM     20  C   UNL     1       3.347   7.181  18.119  0.00  0.00    +0.000 A 
ATOM     21  C   UNL     1       3.089   8.375  17.443  0.00  0.00    +0.000 A 
ATOM     22  C   UNL     1       2.163   9.278  17.961  0.00  0.00    +0.000 A 
BRANCH  22  23
ATOM     23  O   UNL     1       1.926  10.454  17.310  0.00  0.00    +0.000 OA
ATOM     24  H   UNL     1       1.091  10.377  16.819  0.00  0.00    +0.000 HD
ENDBRANCH  22  23
BRANCH  17  25
ATOM     25  C   UNL     1       0.341   9.890  19.631  0.00  0.00    +0.000 C 
BRANCH  25  30
ATOM     26  C   UNL     1      -1.091  12.057  21.407  0.00  0.00    +0.000 C 
ATOM     27  C   UNL     1      -0.457  10.832  21.989  0.00  0.00    +0.000 C 
ATOM     28  C   UNL     1      -0.972  10.353  23.312  0.00  0.00    +0.000 C 
ATOM     29  O   UNL     1       0.973  10.819  21.847  0.00  0.00    +0.000 OA
ATOM     30  C   UNL     1       0.259   9.802  21.126  0.00  0.00    +0.000 C 
ENDBRANCH  25  30
ENDBRANCH  17  25
ENDBRANCH   1  19
TORSDOF 7
ENDMDL
MODEL 5
REMARK VINA RESULT:      -7.9      1.389      3.943
REMARK  Name = 
REMARK  9 active torsions:
REMARK  status: ('A' for Active; 'I' for Inactive)
REMARK    1  A    between atoms: C_1  and  C_2
REMARK    2  A    between atoms: C_2  and  C_3
REMARK    3  A    between atoms: C_5  and  C_6
REMARK    4  A    between atoms: C_6  and  C_7
REMARK    5  A    between atoms: C_9  and  C_10
REMARK    6  A    between atoms: C_10  and  C_11
REMARK    7  A    between atoms: C_12  and  C_13
REMARK    8  A    between atoms: C_16  and  O_17
REMARK    9  A    between atoms: C_27  and  O_28
REMARK                            x       y       z     vdW  Elec       q    Type
REMARK                         _______ _______ _______ _____ _____    ______ ____
ROOT
ATOM      1  C   UNL     1       5.370   4.707  19.417  0.00  0.00    +0.000 C 
ENDROOT
BRANCH   1   2
ATOM      2  C   UNL     1       4.075   3.963  19.477  0.00  0.00    +0.000 C 
ATOM      3  C   UNL     1       2.840   4.470  19.406  0.00  0.00    +0.000 C 
ATOM      4  C   UNL     1       1.890   3.365  19.547  0.00  0.00    +0.000 C 
ATOM      5  O   UNL     1       0.678   3.451  19.539  0.00  0.00    +0.000 OA
ATOM      6  O   UNL     1       2.599   2.232  19.690  0.00  0.00    +0.000 OA
ATOM      7  C   UNL     1       3.915   2.517  19.662  0.00  0.00    +0.000 C 
ATOM      8  O   UNL     1       4.792   1.683  19.783  0.00  0.00    +0.000 OA
BRANCH   3   9
ATOM      9  C   UNL     1       2.424   5.865  19.272  0.00  0.00    +0.000 A 
ATOM     10  C   UNL     1       1.961   6.592  20.377  0.00  0.00    +0.000 A 
ATOM     11  C   UNL     1       1.641   7.950  20.248  0.00  0.00    +0.000 A 
ATOM     12  C   UNL     1       1.781   8.573  19.012  0.00  0.00    +0.000 A 
ATOM     13  C   UNL     1       2.232   7.864  17.906  0.00  0.00    +0.000 A 
ATOM     14  C   UNL     1       2.552   6.510  18.034  0.00  0.00    +0.000 A 
BRANCH  12  15
ATOM     15  O   UNL     1       1.492   9.893  18.840  0.00  0.00    +0.000 OA
ATOM     16  H   UNL     1       0.862  10.172  19.525  0.00  0.00    +0.000 HD
ENDBRANCH  12  15
ENDBRANCH   3   9
ENDBRANCH   1   2
BRANCH   1  19
ATOM     17  C   UNL     1       6.268   4.263  15.716  0.00  0.00    +0.000 A 
ATOM     18  C   UNL     1       5.693   4.068  16.985  0.00  0.00    +0.000 A 
ATOM     19  C   UNL     1       5.965   4.945  18.048  0.00  0.00    +0.000 A 
ATOM     20  C   UNL     1       6.841   6.018  17.834  0.00  0.00    +0.000 A 
ATOM     21  C   UNL     1       7.403   6.234  16.574  0.00  0.00    +0.000 A 
ATOM     22  C   UNL     1       7.104   5.368  15.525  0.00  0.00    +0.000 A 
BRANCH  22  23
ATOM     23  O   UNL     1       7.638   5.592  14.288  0.00  0.00    +0.000 OA
ATOM     24  H   UNL     1       7.778   4.737  13.849  0.00  0.00    +0.000 HD
ENDBRANCH  22  23
BRANCH  17  25
ATOM     25  C   UNL     1       6.057   3.226  14.632  0.00  0.00    +0.000 C 
BRANCH  25  30
ATOM     26  C   UNL     1       5.877   1.885  11.791  0.00  0.00    +0.000 C 
ATOM     27  C   UNL     1       5.246   3.208  12.096  0.00  0.00    +0.000 C 
ATOM     28  C   UNL     1       4.083   3.627  11.251  0.00  0.00    +0.000 C 
ATOM     29  O   UNL     1       6.210   4.239  12.369  0.00  0.00    +0.000 OA
ATOM     30  C   UNL     1       5.362   3.864  13.466  0.00  0.00    +0.000 C 
ENDBRANCH  25  30
ENDBRANCH  17  25
ENDBRANCH   1  19
TORSDOF 7
ENDMDL
MODEL 6
REMARK VINA RESULT:      -7.8      1.380      4.048
REMARK  Name = 
REMARK  9 active torsions:
REMARK  status: ('A' for Active; 'I' for Inactive)
REMARK    1  A    between atoms: C_1  and  C_2
REMARK    2  A    between atoms: C_2  and  C_3
REMARK    3  A    between atoms: C_5  and  C_6
REMARK    4  A    between atoms: C_6  and  C_7
REMARK    5  A    between atoms: C_9  and  C_10
REMARK    6  A    between atoms: C_10  and  C_11
REMARK    7  A    between atoms: C_12  and  C_13
REMARK    8  A    between atoms: C_16  and  O_17
REMARK    9  A    between atoms: C_27  and  O_28
REMARK                            x       y       z     vdW  Elec       q    Type
REMARK                         _______ _______ _______ _____ _____    ______ ____
ROOT
ATOM      1  C   UNL     1       5.102   4.030  19.134  0.00  0.00    +0.000 C 
ENDROOT
BRANCH   1   2
ATOM      2  C   UNL     1       3.726   3.456  19.038  0.00  0.00    +0.000 C 
ATOM      3  C   UNL     1       2.564   4.115  19.081  0.00  0.00    +0.000 C 
ATOM      4  C   UNL     1       1.484   3.131  18.985  0.00  0.00    +0.000 C 
ATOM      5  O   UNL     1       0.292   3.366  19.000  0.00  0.00    +0.000 OA
ATOM      6  O   UNL     1       2.046   1.914  18.879  0.00  0.00    +0.000 OA
ATOM      7  C   UNL     1       3.388   2.035  18.908  0.00  0.00    +0.000 C 
ATOM      8  O   UNL     1       4.154   1.092  18.845  0.00  0.00    +0.000 OA
BRANCH   3   9
ATOM      9  C   UNL     1       2.322   5.546  19.250  0.00  0.00    +0.000 A 
ATOM     10  C   UNL     1       2.479   6.438  18.180  0.00  0.00    +0.000 A 
ATOM     11  C   UNL     1       2.167   7.795  18.337  0.00  0.00    +0.000 A 
ATOM     12  C   UNL     1       1.704   8.255  19.566  0.00  0.00    +0.000 A 
ATOM     13  C   UNL     1       1.551   7.384  20.638  0.00  0.00    +0.000 A 
ATOM     14  C   UNL     1       1.861   6.031  20.481  0.00  0.00    +0.000 A 
BRANCH  12  15
ATOM     15  O   UNL     1       1.379   9.562  19.764  0.00  0.00    +0.000 OA
ATOM     16  H   UNL     1       1.023   9.669  20.661  0.00  0.00    +0.000 HD
ENDBRANCH  12  15
ENDBRANCH   3   9
ENDBRANCH   1   2
BRANCH   1  19
ATOM     17  C   UNL     1       6.266   4.039  15.480  0.00  0.00    +0.000 A 
ATOM     18  C   UNL     1       5.625   3.675  16.678  0.00  0.00    +0.000 A 
ATOM     19  C   UNL     1       5.767   4.450  17.842  0.00  0.00    +0.000 A 
ATOM     20  C   UNL     1       6.577   5.592  17.801  0.00  0.00    +0.000 A 
ATOM     21  C   UNL     1       7.202   5.976  16.613  0.00  0.00    +0.000 A 
ATOM     22  C   UNL     1       7.032   5.209  15.462  0.00  0.00    +0.000 A 
BRANCH  22  23
ATOM     23  O   UNL     1       7.628   5.597  14.296  0.00  0.00    +0.000 OA
ATOM     24  H   UNL     1       7.774   6.557  14.325  0.00  0.00    +0.000 HD
ENDBRANCH  22  23
BRANCH  17  25
ATOM     25  C   UNL     1       6.198   3.112  14.284  0.00  0.00    +0.000 C 
BRANCH  25  30
ATOM     26  C   UNL     1       5.765   1.817  11.449  0.00  0.00    +0.000 C 
ATOM     27  C   UNL     1       5.163   3.133  11.831  0.00  0.00    +0.000 C 
ATOM     28  C   UNL     1       3.929   3.563  11.100  0.00  0.00    +0.000 C 
ATOM     29  O   UNL     1       6.147   4.162  12.032  0.00  0.00    +0.000 OA
ATOM     30  C   UNL     1       5.402   3.767  13.195  0.00  0.00    +0.000 C 
ENDBRANCH  25  30
ENDBRANCH  17  25
ENDBRANCH   1  19
TORSDOF 7
ENDMDL
MODEL 7
REMARK VINA RESULT:      -7.8      2.713      6.902
REMARK  Name = 
REMARK  9 active torsions:
REMARK  status: ('A' for Active; 'I' for Inactive)
REMARK    1  A    between atoms: C_1  and  C_2
REMARK    2  A    between atoms: C_2  and  C_3
REMARK    3  A    between atoms: C_5  and  C_6
REMARK    4  A    between atoms: C_6  and  C_7
REMARK    5  A    between atoms: C_9  and  C_10
REMARK    6  A    between atoms: C_10  and  C_11
REMARK    7  A    between atoms: C_12  and  C_13
REMARK    8  A    between atoms: C_16  and  O_17
REMARK    9  A    between atoms: C_27  and  O_28
REMARK                            x       y       z     vdW  Elec       q    Type
REMARK                         _______ _______ _______ _____ _____    ______ ____
ROOT
ATOM      1  C   UNL     1       4.204   7.069  16.833  0.00  0.00    +0.000 C 
ENDROOT
BRANCH   1   2
ATOM      2  C   UNL     1       5.532   6.550  17.280  0.00  0.00    +0.000 C 
ATOM      3  C   UNL     1       5.806   5.342  17.783  0.00  0.00    +0.000 C 
ATOM      4  C   UNL     1       7.233   5.304  18.110  0.00  0.00    +0.000 C 
ATOM      5  O   UNL     1       7.836   4.367  18.595  0.00  0.00    +0.000 OA
ATOM      6  O   UNL     1       7.761   6.495  17.781  0.00  0.00    +0.000 OA
ATOM      7  C   UNL     1       6.796   7.292  17.281  0.00  0.00    +0.000 C 
ATOM      8  O   UNL     1       6.985   8.436  16.912  0.00  0.00    +0.000 OA
BRANCH   3   9
ATOM      9  C   UNL     1       4.900   4.226  18.047  0.00  0.00    +0.000 A 
ATOM     10  C   UNL     1       4.815   3.648  19.321  0.00  0.00    +0.000 A 
ATOM     11  C   UNL     1       3.884   2.633  19.578  0.00  0.00    +0.000 A 
ATOM     12  C   UNL     1       3.046   2.196  18.557  0.00  0.00    +0.000 A 
ATOM     13  C   UNL     1       3.124   2.755  17.287  0.00  0.00    +0.000 A 
ATOM     14  C   UNL     1       4.050   3.768  17.031  0.00  0.00    +0.000 A 
BRANCH  12  15
ATOM     15  O   UNL     1       2.119   1.219  18.761  0.00  0.00    +0.000 OA
ATOM     16  H   UNL     1       1.674   1.377  19.610  0.00  0.00    +0.000 HD
ENDBRANCH  12  15
ENDBRANCH   3   9
ENDBRANCH   1   2
BRANCH   1  19
ATOM     17  C   UNL     1       1.614   9.103  18.797  0.00  0.00    +0.000 A 
ATOM     18  C   UNL     1       2.498   8.685  17.786  0.00  0.00    +0.000 A 
ATOM     19  C   UNL     1       3.230   7.491  17.909  0.00  0.00    +0.000 A 
ATOM     20  C   UNL     1       3.081   6.722  19.071  0.00  0.00    +0.000 A 
ATOM     21  C   UNL     1       2.192   7.115  20.073  0.00  0.00    +0.000 A 
ATOM     22  C   UNL     1       1.457   8.290  19.924  0.00  0.00    +0.000 A 
BRANCH  22  23
ATOM     23  O   UNL     1       0.572   8.662  20.896  0.00  0.00    +0.000 OA
ATOM     24  H   UNL     1       1.027   8.652  21.754  0.00  0.00    +0.000 HD
ENDBRANCH  22  23
BRANCH  17  25
ATOM     25  C   UNL     1       0.943  10.457  18.691  0.00  0.00    +0.000 C 
BRANCH  25  30
ATOM     26  C   UNL     1      -1.289  12.661  18.935  0.00  0.00    +0.000 C 
ATOM     27  C   UNL     1      -1.524  11.353  18.246  0.00  0.00    +0.000 C 
ATOM     28  C   UNL     1      -2.601  11.306  17.206  0.00  0.00    +0.000 C 
ATOM     29  O   UNL     1      -1.489  10.232  19.145  0.00  0.00    +0.000 OA
ATOM     30  C   UNL     1      -0.448  10.279  18.157  0.00  0.00    +0.000 C 
ENDBRANCH  25  30
ENDBRANCH  17  25
ENDBRANCH   1  19
TORSDOF 7
ENDMDL
MODEL 8
REMARK VINA RESULT:      -7.8      2.737      7.974
REMARK  Name = 
REMARK  9 active torsions:
REMARK  status: ('A' for Active; 'I' for Inactive)
REMARK    1  A    between atoms: C_1  and  C_2
REMARK    2  A    between atoms: C_2  and  C_3
REMARK    3  A    between atoms: C_5  and  C_6
REMARK    4  A    between atoms: C_6  and  C_7
REMARK    5  A    between atoms: C_9  and  C_10
REMARK    6  A    between atoms: C_10  and  C_11
REMARK    7  A    between atoms: C_12  and  C_13
REMARK    8  A    between atoms: C_16  and  O_17
REMARK    9  A    between atoms: C_27  and  O_28
REMARK                            x       y       z     vdW  Elec       q    Type
REMARK                         _______ _______ _______ _____ _____    ______ ____
ROOT
ATOM      1  C   UNL     1       2.749   6.206  20.372  0.00  0.00    +0.000 C 
ENDROOT
BRANCH   1   2
ATOM      2  C   UNL     1       2.639   4.908  19.640  0.00  0.00    +0.000 C 
ATOM      3  C   UNL     1       3.446   4.443  18.682  0.00  0.00    +0.000 C 
ATOM      4  C   UNL     1       2.922   3.149  18.240  0.00  0.00    +0.000 C 
ATOM      5  O   UNL     1       3.394   2.438  17.375  0.00  0.00    +0.000 OA
ATOM      6  O   UNL     1       1.817   2.887  18.960  0.00  0.00    +0.000 OA
ATOM      7  C   UNL     1       1.587   3.901  19.816  0.00  0.00    +0.000 C 
ATOM      8  O   UNL     1       0.645   3.939  20.584  0.00  0.00    +0.000 OA
BRANCH   3   9
ATOM      9  C   UNL     1       4.625   5.069  18.086  0.00  0.00    +0.000 A 
ATOM     10  C   UNL     1       4.609   5.525  16.760  0.00  0.00    +0.000 A 
ATOM     11  C   UNL     1       5.719   6.194  16.228  0.00  0.00    +0.000 A 
ATOM     12  C   UNL     1       6.842   6.401  17.023  0.00  0.00    +0.000 A 
ATOM     13  C   UNL     1       6.874   5.948  18.337  0.00  0.00    +0.000 A 
ATOM     14  C   UNL     1       5.768   5.281  18.868  0.00  0.00    +0.000 A 
BRANCH  12  15
ATOM     15  O   UNL     1       7.940   7.055  16.554  0.00  0.00    +0.000 OA
ATOM     16  H   UNL     1       7.874   7.134  15.589  0.00  0.00    +0.000 HD
ENDBRANCH  12  15
ENDBRANCH   3   9
ENDBRANCH   1   2
BRANCH   1  19
ATOM     17  C   UNL     1       0.768   9.442  19.818  0.00  0.00    +0.000 A 
ATOM     18  C   UNL     1       1.353   8.321  20.436  0.00  0.00    +0.000 A 
ATOM     19  C   UNL     1       2.155   7.427  19.707  0.00  0.00    +0.000 A 
ATOM     20  C   UNL     1       2.353   7.655  18.339  0.00  0.00    +0.000 A 
ATOM     21  C   UNL     1       1.796   8.774  17.719  0.00  0.00    +0.000 A 
ATOM     22  C   UNL     1       1.022   9.664  18.461  0.00  0.00    +0.000 A 
BRANCH  22  23
ATOM     23  O   UNL     1       0.495  10.770  17.857  0.00  0.00    +0.000 OA
ATOM     24  H   UNL     1       0.405  10.593  16.906  0.00  0.00    +0.000 HD
ENDBRANCH  22  23
BRANCH  17  25
ATOM     25  C   UNL     1      -0.195  10.310  20.602  0.00  0.00    +0.000 C 
BRANCH  25  30
ATOM     26  C   UNL     1      -1.082  13.259  19.956  0.00  0.00    +0.000 C 
ATOM     27  C   UNL     1       0.092  12.947  20.831  0.00  0.00    +0.000 C 
ATOM     28  C   UNL     1       0.499  13.984  21.833  0.00  0.00    +0.000 C 
ATOM     29  O   UNL     1       1.174  12.326  20.116  0.00  0.00    +0.000 OA
ATOM     30  C   UNL     1       0.533  11.517  21.115  0.00  0.00    +0.000 C 
ENDBRANCH  25  30
ENDBRANCH  17  25
ENDBRANCH   1  19
TORSDOF 7
ENDMDL
MODEL 9
REMARK VINA RESULT:      -7.7      2.409      7.137
REMARK  Name = 
REMARK  9 active torsions:
REMARK  status: ('A' for Active; 'I' for Inactive)
REMARK    1  A    between atoms: C_1  and  C_2
REMARK    2  A    between atoms: C_2  and  C_3
REMARK    3  A    between atoms: C_5  and  C_6
REMARK    4  A    between atoms: C_6  and  C_7
REMARK    5  A    between atoms: C_9  and  C_10
REMARK    6  A    between atoms: C_10  and  C_11
REMARK    7  A    between atoms: C_12  and  C_13
REMARK    8  A    between atoms: C_16  and  O_17
REMARK    9  A    between atoms: C_27  and  O_28
REMARK                            x       y       z     vdW  Elec       q    Type
REMARK                         _______ _______ _______ _____ _____    ______ ____
ROOT
ATOM      1  C   UNL     1       2.780   5.592  20.209  0.00  0.00    +0.000 C 
ENDROOT
BRANCH   1   2
ATOM      2  C   UNL     1       2.381   4.327  19.522  0.00  0.00    +0.000 C 
ATOM      3  C   UNL     1       3.025   3.699  18.533  0.00  0.00    +0.000 C 
ATOM      4  C   UNL     1       2.239   2.522  18.158  0.00  0.00    +0.000 C 
ATOM      5  O   UNL     1       2.513   1.719  17.288  0.00  0.00    +0.000 OA
ATOM      6  O   UNL     1       1.152   2.487  18.949  0.00  0.00    +0.000 OA
ATOM      7  C   UNL     1       1.171   3.541  19.787  0.00  0.00    +0.000 C 
ATOM      8  O   UNL     1       0.302   3.771  20.607  0.00  0.00    +0.000 OA
BRANCH   3   9
ATOM      9  C   UNL     1       4.261   4.080  17.852  0.00  0.00    +0.000 A 
ATOM     10  C   UNL     1       5.458   4.245  18.562  0.00  0.00    +0.000 A 
ATOM     11  C   UNL     1       6.650   4.532  17.884  0.00  0.00    +0.000 A 
ATOM     12  C   UNL     1       6.639   4.656  16.499  0.00  0.00    +0.000 A 
ATOM     13  C   UNL     1       5.459   4.502  15.782  0.00  0.00    +0.000 A 
ATOM     14  C   UNL     1       4.270   4.215  16.457  0.00  0.00    +0.000 A 
BRANCH  12  15
ATOM     15  O   UNL     1       7.774   4.924  15.795  0.00  0.00    +0.000 OA
ATOM     16  H   UNL     1       7.608   5.670  15.197  0.00  0.00    +0.000 HD
ENDBRANCH  12  15
ENDBRANCH   3   9
ENDBRANCH   1   2
BRANCH   1  19
ATOM     17  C   UNL     1       1.559   9.129  19.371  0.00  0.00    +0.000 A 
ATOM     18  C   UNL     1       1.817   7.933  20.066  0.00  0.00    +0.000 A 
ATOM     19  C   UNL     1       2.539   6.886  19.467  0.00  0.00    +0.000 A 
ATOM     20  C   UNL     1       2.987   7.041  18.149  0.00  0.00    +0.000 A 
ATOM     21  C   UNL     1       2.755   8.231  17.455  0.00  0.00    +0.000 A 
ATOM     22  C   UNL     1       2.058   9.267  18.073  0.00  0.00    +0.000 A 
BRANCH  22  23
ATOM     23  O   UNL     1       1.850  10.438  17.400  0.00  0.00    +0.000 OA
ATOM     24  H   UNL     1       2.362  11.141  17.832  0.00  0.00    +0.000 HD
ENDBRANCH  22  23
BRANCH  17  25
ATOM     25  C   UNL     1       0.667  10.181  19.999  0.00  0.00    +0.000 C 
BRANCH  25  30
ATOM     26  C   UNL     1      -0.544  12.659  18.486  0.00  0.00    +0.000 C 
ATOM     27  C   UNL     1      -1.254  11.343  18.569  0.00  0.00    +0.000 C 
ATOM     28  C   UNL     1      -2.247  11.028  17.494  0.00  0.00    +0.000 C 
ATOM     29  O   UNL     1      -1.671  11.015  19.905  0.00  0.00    +0.000 OA
ATOM     30  C   UNL     1      -0.674  10.158  19.328  0.00  0.00    +0.000 C 
ENDBRANCH  25  30
ENDBRANCH  17  25
ENDBRANCH   1  19
TORSDOF 7
ENDMDL
