MODEL 1
REMARK VINA RESULT:      -7.4      0.000      0.000
REMARK  Name = 
REMARK  10 active torsions:
REMARK  status: ('A' for Active; 'I' for Inactive)
REMARK    1  A    between atoms: C_1  and  C_2
REMARK    2  A    between atoms: C_4  and  C_5
REMARK    3  A    between atoms: N_7  and  C_8
REMARK    4  A    between atoms: C_12  and  C_14
REMARK    5  A    between atoms: C_14  and  C_15
REMARK    6  A    between atoms: C_14  and  N_22
REMARK    7  A    between atoms: C_15  and  C_16
REMARK    8  A    between atoms: N_22  and  C_23
REMARK    9  A    between atoms: N_22  and  C_24
REMARK   10  A    between atoms: C_27  and  C_28
REMARK                            x       y       z     vdW  Elec       q    Type
REMARK                         _______ _______ _______ _____ _____    ______ ____
ROOT
ATOM      1  C   UNL     1       0.839  10.393  21.517  0.00  0.00    +0.000 C 
ATOM      2  C   UNL     1       0.981  10.772  20.045  0.00  0.00    +0.000 C 
ATOM      3  C   UNL     1       0.465   9.658  19.155  0.00  0.00    +0.000 C 
ATOM      4  N   UNL     1       1.298   8.485  19.366  0.00  0.00    +0.000 N 
ATOM      5  C   UNL     1       2.273   8.205  18.407  0.00  0.00    +0.000 C 
ATOM      6  O   UNL     1       2.385   8.964  17.428  0.00  0.00    +0.000 OA
ATOM      7  C   UNL     1       1.139   7.903  20.702  0.00  0.00    +0.000 C 
ATOM      8  C   UNL     1       1.335   8.949  21.817  0.00  0.00    +0.000 C 
ENDROOT
BRANCH   1  11
ATOM      9  C   UNL     1      -0.885  11.995  22.259  0.00  0.00    +0.000 C 
ATOM     10  O   UNL     1      -0.052  12.897  22.239  0.00  0.00    +0.000 OA
ATOM     11  N   UNL     1      -0.511  10.680  22.019  0.00  0.00    +0.000 N 
ATOM     12  H   UNL     1      -1.255  10.012  21.841  0.00  0.00    +0.000 HD
BRANCH   9  16
ATOM     13  C   UNL     1      -5.527  13.083  24.191  0.00  0.00    +0.000 C 
ATOM     14  C   UNL     1      -4.323  12.713  23.417  0.00  0.00    +0.000 A 
ATOM     15  C   UNL     1      -3.060  12.259  23.737  0.00  0.00    +0.000 A 
ATOM     16  C   UNL     1      -2.299  12.253  22.522  0.00  0.00    +0.000 A 
ATOM     17  C   UNL     1      -3.211  12.599  21.533  0.00  0.00    +0.000 A 
ATOM     18  C   UNL     1      -3.142  12.763  20.063  0.00  0.00    +0.000 C 
ATOM     19  O   UNL     1      -4.428  12.888  22.074  0.00  0.00    +0.000 OA
ENDBRANCH   9  16
ENDBRANCH   1  11
BRANCH   5  20
ATOM     20  C   UNL     1       3.202   6.957  18.552  0.00  0.00    +0.000 C 
BRANCH  20  21
ATOM     21  N   UNL     1       2.412   5.752  18.991  0.00  0.00    +0.000 NA
ATOM     22  C   UNL     1       2.055   4.854  17.893  0.00  0.00    +0.000 C 
ATOM     23  C   UNL     1       3.114   4.972  20.018  0.00  0.00    +0.000 C 
ENDBRANCH  20  21
BRANCH  20  24
ATOM     24  C   UNL     1       3.988   6.771  17.221  0.00  0.00    +0.000 C 
BRANCH  24  25
ATOM     25  C   UNL     1       5.307   6.026  17.304  0.00  0.00    +0.000 A 
ATOM     26  C   UNL     1       5.743   5.228  16.235  0.00  0.00    +0.000 A 
ATOM     27  C   UNL     1       6.924   4.490  16.328  0.00  0.00    +0.000 A 
ATOM     28  C   UNL     1       7.696   4.549  17.486  0.00  0.00    +0.000 A 
ATOM     29  C   UNL     1       7.294   5.358  18.543  0.00  0.00    +0.000 A 
ATOM     30  C   UNL     1       6.111   6.095  18.448  0.00  0.00    +0.000 A 
ENDBRANCH  24  25
ENDBRANCH  20  24
ENDBRANCH   5  20
TORSDOF 6
ENDMDL
MODEL 2
REMARK VINA RESULT:      -7.3      1.128      1.322
REMARK  Name = 
REMARK  10 active torsions:
REMARK  status: ('A' for Active; 'I' for Inactive)
REMARK    1  A    between atoms: C_1  and  C_2
REMARK    2  A    between atoms: C_4  and  C_5
REMARK    3  A    between atoms: N_7  and  C_8
REMARK    4  A    between atoms: C_12  and  C_14
REMARK    5  A    between atoms: C_14  and  C_15
REMARK    6  A    between atoms: C_14  and  N_22
REMARK    7  A    between atoms: C_15  and  C_16
REMARK    8  A    between atoms: N_22  and  C_23
REMARK    9  A    between atoms: N_22  and  C_24
REMARK   10  A    between atoms: C_27  and  C_28
REMARK                            x       y       z     vdW  Elec       q    Type
REMARK                         _______ _______ _______ _____ _____    ______ ____
ROOT
ATOM      1  C   UNL     1       0.852  10.856  21.159  0.00  0.00    +0.000 C 
ATOM      2  C   UNL     1       1.018  10.997  19.648  0.00  0.00    +0.000 C 
ATOM      3  C   UNL     1       0.422   9.801  18.931  0.00  0.00    +0.000 C 
ATOM      4  N   UNL     1       1.169   8.617  19.324  0.00  0.00    +0.000 N 
ATOM      5  C   UNL     1       2.121   8.127  18.427  0.00  0.00    +0.000 C 
ATOM      6  O   UNL     1       2.285   8.720  17.347  0.00  0.00    +0.000 OA
ATOM      7  C   UNL     1       0.971   8.256  20.732  0.00  0.00    +0.000 C 
ATOM      8  C   UNL     1       1.243   9.442  21.678  0.00  0.00    +0.000 C 
ENDROOT
BRANCH   1  11
ATOM      9  C   UNL     1      -0.618  12.589  22.120  0.00  0.00    +0.000 C 
ATOM     10  O   UNL     1       0.366  13.270  22.392  0.00  0.00    +0.000 OA
ATOM     11  N   UNL     1      -0.473  11.310  21.600  0.00  0.00    +0.000 N 
ATOM     12  H   UNL     1      -1.301  10.876  21.201  0.00  0.00    +0.000 HD
BRANCH   9  16
ATOM     13  C   UNL     1      -5.363  13.759  23.728  0.00  0.00    +0.000 C 
ATOM     14  C   UNL     1      -4.067  13.551  23.048  0.00  0.00    +0.000 A 
ATOM     15  C   UNL     1      -3.055  12.618  23.144  0.00  0.00    +0.000 A 
ATOM     16  C   UNL     1      -1.979  13.082  22.317  0.00  0.00    +0.000 A 
ATOM     17  C   UNL     1      -2.482  14.216  21.691  0.00  0.00    +0.000 A 
ATOM     18  C   UNL     1      -1.950  15.181  20.701  0.00  0.00    +0.000 C 
ATOM     19  O   UNL     1      -3.735  14.505  22.141  0.00  0.00    +0.000 OA
ENDBRANCH   9  16
ENDBRANCH   1  11
BRANCH   5  20
ATOM     20  C   UNL     1       2.958   6.853  18.768  0.00  0.00    +0.000 C 
BRANCH  20  21
ATOM     21  N   UNL     1       2.055   5.697  19.111  0.00  0.00    +0.000 NA
ATOM     22  C   UNL     1       1.896   4.734  18.021  0.00  0.00    +0.000 C 
ATOM     23  C   UNL     1       2.509   4.973  20.305  0.00  0.00    +0.000 C 
ENDBRANCH  20  21
BRANCH  20  24
ATOM     24  C   UNL     1       3.943   6.583  17.593  0.00  0.00    +0.000 C 
BRANCH  24  25
ATOM     25  C   UNL     1       5.416   6.487  17.944  0.00  0.00    +0.000 A 
ATOM     26  C   UNL     1       5.857   5.593  18.931  0.00  0.00    +0.000 A 
ATOM     27  C   UNL     1       7.202   5.544  19.303  0.00  0.00    +0.000 A 
ATOM     28  C   UNL     1       8.130   6.378  18.683  0.00  0.00    +0.000 A 
ATOM     29  C   UNL     1       7.715   7.247  17.681  0.00  0.00    +0.000 A 
ATOM     30  C   UNL     1       6.368   7.296  17.311  0.00  0.00    +0.000 A 
ENDBRANCH  24  25
ENDBRANCH  20  24
ENDBRANCH   5  20
TORSDOF 6
ENDMDL
MODEL 3
REMARK VINA RESULT:      -7.1      0.902      1.543
REMARK  Name = 
REMARK  10 active torsions:
REMARK  status: ('A' for Active; 'I' for Inactive)
REMARK    1  A    between atoms: C_1  and  C_2
REMARK    2  A    between atoms: C_4  and  C_5
REMARK    3  A    between atoms: N_7  and  C_8
REMARK    4  A    between atoms: C_12  and  C_14
REMARK    5  A    between atoms: C_14  and  C_15
REMARK    6  A    between atoms: C_14  and  N_22
REMARK    7  A    between atoms: C_15  and  C_16
REMARK    8  A    between atoms: N_22  and  C_23
REMARK    9  A    between atoms: N_22  and  C_24
REMARK   10  A    between atoms: C_27  and  C_28
REMARK                            x       y       z     vdW  Elec       q    Type
REMARK                         _______ _______ _______ _____ _____    ______ ____
ROOT
ATOM      1  C   UNL     1       1.038  10.858  21.261  0.00  0.00    +0.000 C 
ATOM      2  C   UNL     1       1.072  11.053  19.748  0.00  0.00    +0.000 C 
ATOM      3  C   UNL     1       0.453   9.863  19.041  0.00  0.00    +0.000 C 
ATOM      4  N   UNL     1       1.265   8.691  19.329  0.00  0.00    +0.000 N 
ATOM      5  C   UNL     1       2.151   8.261  18.340  0.00  0.00    +0.000 C 
ATOM      6  O   UNL     1       2.207   8.893  17.271  0.00  0.00    +0.000 OA
ATOM      7  C   UNL     1       1.196   8.279  20.735  0.00  0.00    +0.000 C 
ATOM      8  C   UNL     1       1.512   9.441  21.696  0.00  0.00    +0.000 C 
ENDROOT
BRANCH   1  11
ATOM      9  C   UNL     1      -0.503  12.595  22.096  0.00  0.00    +0.000 C 
ATOM     10  O   UNL     1       0.405  13.420  22.049  0.00  0.00    +0.000 OA
ATOM     11  N   UNL     1      -0.258  11.256  21.826  0.00  0.00    +0.000 N 
ATOM     12  H   UNL     1      -1.066  10.659  21.673  0.00  0.00    +0.000 HD
BRANCH   9  16
ATOM     13  C   UNL     1      -5.588  12.997  22.770  0.00  0.00    +0.000 C 
ATOM     14  C   UNL     1      -4.117  13.122  22.677  0.00  0.00    +0.000 A 
ATOM     15  C   UNL     1      -3.139  12.548  21.892  0.00  0.00    +0.000 A 
ATOM     16  C   UNL     1      -1.876  12.973  22.424  0.00  0.00    +0.000 A 
ATOM     17  C   UNL     1      -2.203  13.873  23.430  0.00  0.00    +0.000 A 
ATOM     18  C   UNL     1      -1.425  14.709  24.374  0.00  0.00    +0.000 C 
ATOM     19  O   UNL     1      -3.554  13.953  23.591  0.00  0.00    +0.000 OA
ENDBRANCH   9  16
ENDBRANCH   1  11
BRANCH   5  20
ATOM     20  C   UNL     1       3.050   7.003  18.565  0.00  0.00    +0.000 C 
BRANCH  20  21
ATOM     21  N   UNL     1       2.216   5.815  18.967  0.00  0.00    +0.000 NA
ATOM     22  C   UNL     1       1.980   4.870  17.876  0.00  0.00    +0.000 C 
ATOM     23  C   UNL     1       2.801   5.082  20.096  0.00  0.00    +0.000 C 
ENDBRANCH  20  21
BRANCH  20  24
ATOM     24  C   UNL     1       3.922   6.787  17.293  0.00  0.00    +0.000 C 
BRANCH  24  25
ATOM     25  C   UNL     1       5.212   6.009  17.471  0.00  0.00    +0.000 A 
ATOM     26  C   UNL     1       5.924   6.076  18.679  0.00  0.00    +0.000 A 
ATOM     27  C   UNL     1       7.143   5.413  18.828  0.00  0.00    +0.000 A 
ATOM     28  C   UNL     1       7.663   4.660  17.777  0.00  0.00    +0.000 A 
ATOM     29  C   UNL     1       6.955   4.558  16.585  0.00  0.00    +0.000 A 
ATOM     30  C   UNL     1       5.736   5.224  16.437  0.00  0.00    +0.000 A 
ENDBRANCH  24  25
ENDBRANCH  20  24
ENDBRANCH   5  20
TORSDOF 6
ENDMDL
MODEL 4
REMARK VINA RESULT:      -7.1      2.508      9.074
REMARK  Name = 
REMARK  10 active torsions:
REMARK  status: ('A' for Active; 'I' for Inactive)
REMARK    1  A    between atoms: C_1  and  C_2
REMARK    2  A    between atoms: C_4  and  C_5
REMARK    3  A    between atoms: N_7  and  C_8
REMARK    4  A    between atoms: C_12  and  C_14
REMARK    5  A    between atoms: C_14  and  C_15
REMARK    6  A    between atoms: C_14  and  N_22
REMARK    7  A    between atoms: C_15  and  C_16
REMARK    8  A    between atoms: N_22  and  C_23
REMARK    9  A    between atoms: N_22  and  C_24
REMARK   10  A    between atoms: C_27  and  C_28
REMARK                            x       y       z     vdW  Elec       q    Type
REMARK                         _______ _______ _______ _____ _____    ______ ____
ROOT
ATOM      1  C   UNL     1       1.749   8.793  20.723  0.00  0.00    +0.000 C 
ATOM      2  C   UNL     1       1.387   9.128  22.168  0.00  0.00    +0.000 C 
ATOM      3  C   UNL     1      -0.118   9.161  22.347  0.00  0.00    +0.000 C 
ATOM      4  N   UNL     1      -0.650  10.236  21.524  0.00  0.00    +0.000 N 
ATOM      5  C   UNL     1      -0.988  11.431  22.162  0.00  0.00    +0.000 C 
ATOM      6  O   UNL     1      -0.818  11.522  23.391  0.00  0.00    +0.000 OA
ATOM      7  C   UNL     1      -0.523   9.973  20.087  0.00  0.00    +0.000 C 
ATOM      8  C   UNL     1       0.922   9.613  19.690  0.00  0.00    +0.000 C 
ENDROOT
BRANCH   1  11
ATOM      9  C   UNL     1       2.427   6.822  19.402  0.00  0.00    +0.000 C 
ATOM     10  O   UNL     1       2.888   7.563  18.538  0.00  0.00    +0.000 OA
ATOM     11  N   UNL     1       1.735   7.344  20.486  0.00  0.00    +0.000 N 
ATOM     12  H   UNL     1       1.559   6.719  21.268  0.00  0.00    +0.000 HD
BRANCH   9  16
ATOM     13  C   UNL     1       1.967   1.726  18.863  0.00  0.00    +0.000 C 
ATOM     14  C   UNL     1       2.334   3.136  19.118  0.00  0.00    +0.000 A 
ATOM     15  C   UNL     1       1.630   4.302  19.331  0.00  0.00    +0.000 A 
ATOM     16  C   UNL     1       2.587   5.371  19.344  0.00  0.00    +0.000 A 
ATOM     17  C   UNL     1       3.820   4.739  19.249  0.00  0.00    +0.000 A 
ATOM     18  C   UNL     1       5.228   5.200  19.229  0.00  0.00    +0.000 C 
ATOM     19  O   UNL     1       3.667   3.394  19.100  0.00  0.00    +0.000 OA
ENDBRANCH   9  16
ENDBRANCH   1  11
BRANCH   5  20
ATOM     20  C   UNL     1      -1.577  12.630  21.353  0.00  0.00    +0.000 C 
BRANCH  20  21
ATOM     21  N   UNL     1      -3.022  12.859  21.712  0.00  0.00    +0.000 NA
ATOM     22  C   UNL     1      -3.244  14.073  22.496  0.00  0.00    +0.000 C 
ATOM     23  C   UNL     1      -3.888  12.907  20.528  0.00  0.00    +0.000 C 
ENDBRANCH  20  21
BRANCH  20  24
ATOM     24  C   UNL     1      -0.651  13.865  21.558  0.00  0.00    +0.000 C 
BRANCH  24  25
ATOM     25  C   UNL     1       0.434  14.087  20.521  0.00  0.00    +0.000 A 
ATOM     26  C   UNL     1       1.534  13.220  20.443  0.00  0.00    +0.000 A 
ATOM     27  C   UNL     1       2.567  13.454  19.534  0.00  0.00    +0.000 A 
ATOM     28  C   UNL     1       2.509  14.550  18.677  0.00  0.00    +0.000 A 
ATOM     29  C   UNL     1       1.411  15.402  18.719  0.00  0.00    +0.000 A 
ATOM     30  C   UNL     1       0.379  15.167  19.631  0.00  0.00    +0.000 A 
ENDBRANCH  24  25
ENDBRANCH  20  24
ENDBRANCH   5  20
TORSDOF 6
ENDMDL
MODEL 5
REMARK VINA RESULT:      -7.1      2.226      9.117
REMARK  Name = 
REMARK  10 active torsions:
REMARK  status: ('A' for Active; 'I' for Inactive)
REMARK    1  A    between atoms: C_1  and  C_2
REMARK    2  A    between atoms: C_4  and  C_5
REMARK    3  A    between atoms: N_7  and  C_8
REMARK    4  A    between atoms: C_12  and  C_14
REMARK    5  A    between atoms: C_14  and  C_15
REMARK    6  A    between atoms: C_14  and  N_22
REMARK    7  A    between atoms: C_15  and  C_16
REMARK    8  A    between atoms: N_22  and  C_23
REMARK    9  A    between atoms: N_22  and  C_24
REMARK   10  A    between atoms: C_27  and  C_28
REMARK                            x       y       z     vdW  Elec       q    Type
REMARK                         _______ _______ _______ _____ _____    ______ ____
ROOT
ATOM      1  C   UNL     1       1.739   8.943  20.170  0.00  0.00    +0.000 C 
ATOM      2  C   UNL     1       1.439   8.962  21.667  0.00  0.00    +0.000 C 
ATOM      3  C   UNL     1      -0.053   8.869  21.915  0.00  0.00    +0.000 C 
ATOM      4  N   UNL     1      -0.682  10.052  21.348  0.00  0.00    +0.000 N 
ATOM      5  C   UNL     1      -1.044  11.075  22.228  0.00  0.00    +0.000 C 
ATOM      6  O   UNL     1      -0.812  10.930  23.441  0.00  0.00    +0.000 OA
ATOM      7  C   UNL     1      -0.620  10.087  19.884  0.00  0.00    +0.000 C 
ATOM      8  C   UNL     1       0.818   9.900  19.360  0.00  0.00    +0.000 C 
ENDROOT
BRANCH   1  11
ATOM      9  C   UNL     1       2.599   7.280  18.563  0.00  0.00    +0.000 C 
ATOM     10  O   UNL     1       3.131   8.180  17.920  0.00  0.00    +0.000 OA
ATOM     11  N   UNL     1       1.784   7.571  19.649  0.00  0.00    +0.000 N 
ATOM     12  H   UNL     1       1.541   6.800  20.265  0.00  0.00    +0.000 HD
BRANCH   9  16
ATOM     13  C   UNL     1       2.274   2.217  17.706  0.00  0.00    +0.000 C 
ATOM     14  C   UNL     1       2.620   3.643  17.894  0.00  0.00    +0.000 A 
ATOM     15  C   UNL     1       2.086   4.687  18.620  0.00  0.00    +0.000 A 
ATOM     16  C   UNL     1       2.798   5.871  18.233  0.00  0.00    +0.000 A 
ATOM     17  C   UNL     1       3.795   5.418  17.378  0.00  0.00    +0.000 A 
ATOM     18  C   UNL     1       4.899   6.063  16.630  0.00  0.00    +0.000 C 
ATOM     19  O   UNL     1       3.679   4.077  17.164  0.00  0.00    +0.000 OA
ENDBRANCH   9  16
ENDBRANCH   1  11
BRANCH   5  20
ATOM     20  C   UNL     1      -1.735  12.373  21.702  0.00  0.00    +0.000 C 
BRANCH  20  21
ATOM     21  N   UNL     1      -3.100  12.538  22.316  0.00  0.00    +0.000 NA
ATOM     22  C   UNL     1      -3.196  13.674  23.232  0.00  0.00    +0.000 C 
ATOM     23  C   UNL     1      -4.154  12.669  21.302  0.00  0.00    +0.000 C 
ENDBRANCH  20  21
BRANCH  20  24
ATOM     24  C   UNL     1      -0.768  13.572  21.930  0.00  0.00    +0.000 C 
BRANCH  24  25
ATOM     25  C   UNL     1       0.239  13.858  20.833  0.00  0.00    +0.000 A 
ATOM     26  C   UNL     1      -0.057  14.779  19.816  0.00  0.00    +0.000 A 
ATOM     27  C   UNL     1       0.839  15.001  18.768  0.00  0.00    +0.000 A 
ATOM     28  C   UNL     1       2.051  14.317  18.729  0.00  0.00    +0.000 A 
ATOM     29  C   UNL     1       2.374  13.424  19.745  0.00  0.00    +0.000 A 
ATOM     30  C   UNL     1       1.476  13.202  20.792  0.00  0.00    +0.000 A 
ENDBRANCH  24  25
ENDBRANCH  20  24
ENDBRANCH   5  20
TORSDOF 6
ENDMDL
MODEL 6
REMARK VINA RESULT:      -7.1      1.316      1.846
REMARK  Name = 
REMARK  10 active torsions:
REMARK  status: ('A' for Active; 'I' for Inactive)
REMARK    1  A    between atoms: C_1  and  C_2
REMARK    2  A    between atoms: C_4  and  C_5
REMARK    3  A    between atoms: N_7  and  C_8
REMARK    4  A    between atoms: C_12  and  C_14
REMARK    5  A    between atoms: C_14  and  C_15
REMARK    6  A    between atoms: C_14  and  N_22
REMARK    7  A    between atoms: C_15  and  C_16
REMARK    8  A    between atoms: N_22  and  C_23
REMARK    9  A    between atoms: N_22  and  C_24
REMARK   10  A    between atoms: C_27  and  C_28
REMARK                            x       y       z     vdW  Elec       q    Type
REMARK                         _______ _______ _______ _____ _____    ______ ____
ROOT
ATOM      1  C   UNL     1       0.927  11.206  20.660  0.00  0.00    +0.000 C 
ATOM      2  C   UNL     1       1.160  11.211  19.152  0.00  0.00    +0.000 C 
ATOM      3  C   UNL     1       0.531   9.991  18.510  0.00  0.00    +0.000 C 
ATOM      4  N   UNL     1       1.198   8.808  19.031  0.00  0.00    +0.000 N 
ATOM      5  C   UNL     1       2.157   8.198  18.220  0.00  0.00    +0.000 C 
ATOM      6  O   UNL     1       2.395   8.689  17.102  0.00  0.00    +0.000 OA
ATOM      7  C   UNL     1       0.925   8.576  20.453  0.00  0.00    +0.000 C 
ATOM      8  C   UNL     1       1.222   9.823  21.310  0.00  0.00    +0.000 C 
ENDROOT
BRANCH   1  11
ATOM      9  C   UNL     1      -0.467  13.005  21.614  0.00  0.00    +0.000 C 
ATOM     10  O   UNL     1       0.543  13.558  22.040  0.00  0.00    +0.000 OA
ATOM     11  N   UNL     1      -0.389  11.761  21.003  0.00  0.00    +0.000 N 
ATOM     12  H   UNL     1      -1.206  11.445  20.489  0.00  0.00    +0.000 HD
BRANCH   9  16
ATOM     13  C   UNL     1      -4.881  15.575  21.003  0.00  0.00    +0.000 C 
ATOM     14  C   UNL     1      -3.703  14.784  21.418  0.00  0.00    +0.000 A 
ATOM     15  C   UNL     1      -2.378  14.738  21.038  0.00  0.00    +0.000 A 
ATOM     16  C   UNL     1      -1.788  13.620  21.716  0.00  0.00    +0.000 A 
ATOM     17  C   UNL     1      -2.793  13.145  22.549  0.00  0.00    +0.000 A 
ATOM     18  C   UNL     1      -2.892  12.048  23.540  0.00  0.00    +0.000 C 
ATOM     19  O   UNL     1      -3.950  13.839  22.361  0.00  0.00    +0.000 OA
ENDBRANCH   9  16
ENDBRANCH   1  11
BRANCH   5  20
ATOM     20  C   UNL     1       2.911   6.917  18.699  0.00  0.00    +0.000 C 
BRANCH  20  21
ATOM     21  N   UNL     1       1.935   5.843  19.105  0.00  0.00    +0.000 NA
ATOM     22  C   UNL     1       1.833   4.750  18.138  0.00  0.00    +0.000 C 
ATOM     23  C   UNL     1       2.253   5.271  20.419  0.00  0.00    +0.000 C 
ENDBRANCH  20  21
BRANCH  20  24
ATOM     24  C   UNL     1       3.920   6.496  17.591  0.00  0.00    +0.000 C 
BRANCH  24  25
ATOM     25  C   UNL     1       5.376   6.377  18.001  0.00  0.00    +0.000 A 
ATOM     26  C   UNL     1       5.758   5.503  19.030  0.00  0.00    +0.000 A 
ATOM     27  C   UNL     1       7.087   5.435  19.455  0.00  0.00    +0.000 A 
ATOM     28  C   UNL     1       8.057   6.228  18.846  0.00  0.00    +0.000 A 
ATOM     29  C   UNL     1       7.700   7.076  17.804  0.00  0.00    +0.000 A 
ATOM     30  C   UNL     1       6.371   7.144  17.381  0.00  0.00    +0.000 A 
ENDBRANCH  24  25
ENDBRANCH  20  24
ENDBRANCH   5  20
TORSDOF 6
ENDMDL
MODEL 7
REMARK VINA RESULT:      -7.0      2.494      4.675
REMARK  Name = 
REMARK  10 active torsions:
REMARK  status: ('A' for Active; 'I' for Inactive)
REMARK    1  A    between atoms: C_1  and  C_2
REMARK    2  A    between atoms: C_4  and  C_5
REMARK    3  A    between atoms: N_7  and  C_8
REMARK    4  A    between atoms: C_12  and  C_14
REMARK    5  A    between atoms: C_14  and  C_15
REMARK    6  A    between atoms: C_14  and  N_22
REMARK    7  A    between atoms: C_15  and  C_16
REMARK    8  A    between atoms: N_22  and  C_23
REMARK    9  A    between atoms: N_22  and  C_24
REMARK   10  A    between atoms: C_27  and  C_28
REMARK                            x       y       z     vdW  Elec       q    Type
REMARK                         _______ _______ _______ _____ _____    ______ ____
ROOT
ATOM      1  C   UNL     1       1.884   7.625  18.484  0.00  0.00    +0.000 C 
ATOM      2  C   UNL     1       2.078   6.179  18.934  0.00  0.00    +0.000 C 
ATOM      3  C   UNL     1       3.489   5.964  19.447  0.00  0.00    +0.000 C 
ATOM      4  N   UNL     1       4.412   6.186  18.345  0.00  0.00    +0.000 N 
ATOM      5  C   UNL     1       4.941   5.061  17.709  0.00  0.00    +0.000 C 
ATOM      6  O   UNL     1       4.601   3.934  18.109  0.00  0.00    +0.000 OA
ATOM      7  C   UNL     1       4.458   7.586  17.910  0.00  0.00    +0.000 C 
ATOM      8  C   UNL     1       3.054   8.143  17.599  0.00  0.00    +0.000 C 
ENDROOT
BRANCH   1  11
ATOM      9  C   UNL     1       0.658   9.543  19.436  0.00  0.00    +0.000 C 
ATOM     10  O   UNL     1       0.282   9.859  18.310  0.00  0.00    +0.000 OA
ATOM     11  N   UNL     1       1.556   8.501  19.617  0.00  0.00    +0.000 N 
ATOM     12  H   UNL     1       1.672   8.148  20.563  0.00  0.00    +0.000 HD
BRANCH   9  16
ATOM     13  C   UNL     1      -1.871  12.215  23.032  0.00  0.00    +0.000 C 
ATOM     14  C   UNL     1      -0.953  11.435  22.176  0.00  0.00    +0.000 A 
ATOM     15  C   UNL     1      -0.795  11.269  20.815  0.00  0.00    +0.000 A 
ATOM     16  C   UNL     1       0.180  10.232  20.633  0.00  0.00    +0.000 A 
ATOM     17  C   UNL     1       0.619   9.933  21.916  0.00  0.00    +0.000 A 
ATOM     18  C   UNL     1       1.618   8.997  22.484  0.00  0.00    +0.000 C 
ATOM     19  O   UNL     1      -0.072  10.649  22.846  0.00  0.00    +0.000 OA
ENDBRANCH   9  16
ENDBRANCH   1  11
BRANCH   5  20
ATOM     20  C   UNL     1       5.948   5.213  16.525  0.00  0.00    +0.000 C 
BRANCH  20  21
ATOM     21  N   UNL     1       7.337   5.491  17.037  0.00  0.00    +0.000 NA
ATOM     22  C   UNL     1       7.568   6.897  17.367  0.00  0.00    +0.000 C 
ATOM     23  C   UNL     1       7.669   4.679  18.214  0.00  0.00    +0.000 C 
ENDBRANCH  20  21
BRANCH  20  24
ATOM     24  C   UNL     1       5.830   3.956  15.614  0.00  0.00    +0.000 C 
BRANCH  24  25
ATOM     25  C   UNL     1       6.288   4.107  14.176  0.00  0.00    +0.000 A 
ATOM     26  C   UNL     1       5.724   3.319  13.161  0.00  0.00    +0.000 A 
ATOM     27  C   UNL     1       6.185   3.408  11.846  0.00  0.00    +0.000 A 
ATOM     28  C   UNL     1       7.207   4.297  11.522  0.00  0.00    +0.000 A 
ATOM     29  C   UNL     1       7.756   5.107  12.510  0.00  0.00    +0.000 A 
ATOM     30  C   UNL     1       7.295   5.015  13.826  0.00  0.00    +0.000 A 
ENDBRANCH  24  25
ENDBRANCH  20  24
ENDBRANCH   5  20
TORSDOF 6
ENDMDL
MODEL 8
REMARK VINA RESULT:      -6.9      2.494      4.685
REMARK  Name = 
REMARK  10 active torsions:
REMARK  status: ('A' for Active; 'I' for Inactive)
REMARK    1  A    between atoms: C_1  and  C_2
REMARK    2  A    between atoms: C_4  and  C_5
REMARK    3  A    between atoms: N_7  and  C_8
REMARK    4  A    between atoms: C_12  and  C_14
REMARK    5  A    between atoms: C_14  and  C_15
REMARK    6  A    between atoms: C_14  and  N_22
REMARK    7  A    between atoms: C_15  and  C_16
REMARK    8  A    between atoms: N_22  and  C_23
REMARK    9  A    between atoms: N_22  and  C_24
REMARK   10  A    between atoms: C_27  and  C_28
REMARK                            x       y       z     vdW  Elec       q    Type
REMARK                         _______ _______ _______ _____ _____    ______ ____
ROOT
ATOM      1  C   UNL     1       1.922   7.577  18.317  0.00  0.00    +0.000 C 
ATOM      2  C   UNL     1       2.129   6.148  18.815  0.00  0.00    +0.000 C 
ATOM      3  C   UNL     1       3.524   5.977  19.382  0.00  0.00    +0.000 C 
ATOM      4  N   UNL     1       4.481   6.188  18.308  0.00  0.00    +0.000 N 
ATOM      5  C   UNL     1       5.055   5.057  17.723  0.00  0.00    +0.000 C 
ATOM      6  O   UNL     1       4.724   3.934  18.143  0.00  0.00    +0.000 OA
ATOM      7  C   UNL     1       4.515   7.576  17.835  0.00  0.00    +0.000 C 
ATOM      8  C   UNL     1       3.112   8.094  17.459  0.00  0.00    +0.000 C 
ENDROOT
BRANCH   1  11
ATOM      9  C   UNL     1       0.937   9.693  19.117  0.00  0.00    +0.000 C 
ATOM     10  O   UNL     1       0.896  10.107  17.962  0.00  0.00    +0.000 OA
ATOM     11  N   UNL     1       1.537   8.477  19.412  0.00  0.00    +0.000 N 
ATOM     12  H   UNL     1       1.362   8.086  20.333  0.00  0.00    +0.000 HD
BRANCH   9  16
ATOM     13  C   UNL     1      -1.486  11.366  23.336  0.00  0.00    +0.000 C 
ATOM     14  C   UNL     1      -0.744  11.138  22.077  0.00  0.00    +0.000 A 
ATOM     15  C   UNL     1      -0.721  10.138  21.128  0.00  0.00    +0.000 A 
ATOM     16  C   UNL     1       0.355  10.441  20.229  0.00  0.00    +0.000 A 
ATOM     17  C   UNL     1       0.826  11.678  20.650  0.00  0.00    +0.000 A 
ATOM     18  C   UNL     1       1.888  12.602  20.186  0.00  0.00    +0.000 C 
ATOM     19  O   UNL     1       0.172  12.092  21.771  0.00  0.00    +0.000 OA
ENDBRANCH   9  16
ENDBRANCH   1  11
BRANCH   5  20
ATOM     20  C   UNL     1       6.101   5.197  16.571  0.00  0.00    +0.000 C 
BRANCH  20  21
ATOM     21  N   UNL     1       7.469   5.500  17.125  0.00  0.00    +0.000 NA
ATOM     22  C   UNL     1       7.686   6.920  17.402  0.00  0.00    +0.000 C 
ATOM     23  C   UNL     1       7.754   4.741  18.348  0.00  0.00    +0.000 C 
ENDBRANCH  20  21
BRANCH  20  24
ATOM     24  C   UNL     1       6.026   3.921  15.682  0.00  0.00    +0.000 C 
BRANCH  24  25
ATOM     25  C   UNL     1       6.407   4.081  14.222  0.00  0.00    +0.000 A 
ATOM     26  C   UNL     1       5.799   3.289  13.236  0.00  0.00    +0.000 A 
ATOM     27  C   UNL     1       6.190   3.387  11.899  0.00  0.00    +0.000 A 
ATOM     28  C   UNL     1       7.182   4.289  11.525  0.00  0.00    +0.000 A 
ATOM     29  C   UNL     1       7.773   5.103  12.485  0.00  0.00    +0.000 A 
ATOM     30  C   UNL     1       7.383   5.003  13.822  0.00  0.00    +0.000 A 
ENDBRANCH  24  25
ENDBRANCH  20  24
ENDBRANCH   5  20
TORSDOF 6
ENDMDL
MODEL 9
REMARK VINA RESULT:      -6.9      2.398      8.950
REMARK  Name = 
REMARK  10 active torsions:
REMARK  status: ('A' for Active; 'I' for Inactive)
REMARK    1  A    between atoms: C_1  and  C_2
REMARK    2  A    between atoms: C_4  and  C_5
REMARK    3  A    between atoms: N_7  and  C_8
REMARK    4  A    between atoms: C_12  and  C_14
REMARK    5  A    between atoms: C_14  and  C_15
REMARK    6  A    between atoms: C_14  and  N_22
REMARK    7  A    between atoms: C_15  and  C_16
REMARK    8  A    between atoms: N_22  and  C_23
REMARK    9  A    between atoms: N_22  and  C_24
REMARK   10  A    between atoms: C_27  and  C_28
REMARK                            x       y       z     vdW  Elec       q    Type
REMARK                         _______ _______ _______ _____ _____    ______ ____
ROOT
ATOM      1  C   UNL     1       1.744   8.616  20.145  0.00  0.00    +0.000 C 
ATOM      2  C   UNL     1       1.470   8.796  21.636  0.00  0.00    +0.000 C 
ATOM      3  C   UNL     1      -0.021   8.859  21.902  0.00  0.00    +0.000 C 
ATOM      4  N   UNL     1      -0.552  10.038  21.235  0.00  0.00    +0.000 N 
ATOM      5  C   UNL     1      -0.809  11.163  22.020  0.00  0.00    +0.000 C 
ATOM      6  O   UNL     1      -0.573  11.108  23.239  0.00  0.00    +0.000 OA
ATOM      7  C   UNL     1      -0.509   9.936  19.773  0.00  0.00    +0.000 C 
ATOM      8  C   UNL     1       0.898   9.575  19.258  0.00  0.00    +0.000 C 
ENDROOT
BRANCH   1  11
ATOM      9  C   UNL     1       2.556   6.703  18.816  0.00  0.00    +0.000 C 
ATOM     10  O   UNL     1       3.287   7.457  18.181  0.00  0.00    +0.000 OA
ATOM     11  N   UNL     1       1.660   7.204  19.750  0.00  0.00    +0.000 N 
ATOM     12  H   UNL     1       1.235   6.538  20.388  0.00  0.00    +0.000 HD
BRANCH   9  16
ATOM     13  C   UNL     1       3.590   1.806  17.622  0.00  0.00    +0.000 C 
ATOM     14  C   UNL     1       3.072   3.118  18.066  0.00  0.00    +0.000 A 
ATOM     15  C   UNL     1       3.271   4.426  17.677  0.00  0.00    +0.000 A 
ATOM     16  C   UNL     1       2.594   5.253  18.634  0.00  0.00    +0.000 A 
ATOM     17  C   UNL     1       1.937   4.359  19.469  0.00  0.00    +0.000 A 
ATOM     18  C   UNL     1       1.043   4.493  20.643  0.00  0.00    +0.000 C 
ATOM     19  O   UNL     1       2.235   3.072  19.135  0.00  0.00    +0.000 OA
ENDBRANCH   9  16
ENDBRANCH   1  11
BRANCH   5  20
ATOM     20  C   UNL     1      -1.391  12.466  21.383  0.00  0.00    +0.000 C 
BRANCH  20  21
ATOM     21  N   UNL     1      -2.755  12.772  21.945  0.00  0.00    +0.000 NA
ATOM     22  C   UNL     1      -2.773  13.929  22.839  0.00  0.00    +0.000 C 
ATOM     23  C   UNL     1      -3.755  12.984  20.892  0.00  0.00    +0.000 C 
ENDBRANCH  20  21
BRANCH  20  24
ATOM     24  C   UNL     1      -0.345  13.607  21.554  0.00  0.00    +0.000 C 
BRANCH  24  25
ATOM     25  C   UNL     1       0.814  13.624  20.575  0.00  0.00    +0.000 A 
ATOM     26  C   UNL     1       2.101  13.986  21.001  0.00  0.00    +0.000 A 
ATOM     27  C   UNL     1       3.159  14.065  20.093  0.00  0.00    +0.000 A 
ATOM     28  C   UNL     1       2.951  13.769  18.748  0.00  0.00    +0.000 A 
ATOM     29  C   UNL     1       1.688  13.379  18.316  0.00  0.00    +0.000 A 
ATOM     30  C   UNL     1       0.630  13.302  19.224  0.00  0.00    +0.000 A 
ENDBRANCH  24  25
ENDBRANCH  20  24
ENDBRANCH   5  20
TORSDOF 6
ENDMDL
