MODEL 1
REMARK VINA RESULT:      -7.6      0.000      0.000
REMARK  Name = 
REMARK  7 active torsions:
REMARK  status: ('A' for Active; 'I' for Inactive)
REMARK    1  A    between atoms: C_1  and  O_2
REMARK    2  A    between atoms: O_2  and  C_3
REMARK    3  A    between atoms: C_3  and  C_5
REMARK    4  A    between atoms: C_6  and  O_7
REMARK    5  A    between atoms: O_7  and  C_8
REMARK    6  A    between atoms: C_8  and  C_10
REMARK    7  A    between atoms: N_21  and  N_22
REMARK                            x       y       z     vdW  Elec       q    Type
REMARK                         _______ _______ _______ _____ _____    ______ ____
ROOT
ATOM      1  C   UNL     1       4.421   4.639  16.928  0.00  0.00    +0.000 C 
ATOM      2  C   UNL     1       3.972   5.992  17.540  0.00  0.00    +0.000 C 
ATOM      3  C   UNL     1       5.061   6.992  17.079  0.00  0.00    +0.000 C 
ATOM      4  C   UNL     1       6.486   6.541  17.517  0.00  0.00    +0.000 C 
ATOM      5  C   UNL     1       7.304   6.042  16.322  0.00  0.00    +0.000 C 
ATOM      6  C   UNL     1       6.858   4.585  16.145  0.00  0.00    +0.000 C 
ATOM      7  C   UNL     1       5.906   4.312  17.332  0.00  0.00    +0.000 C 
ATOM      8  N   UNL     1       6.379   5.307  18.328  0.00  0.00    +0.000 N 
ENDROOT
BRANCH   1   9
ATOM      9  C   UNL     1       3.474   3.486  17.202  0.00  0.00    +0.000 C 
ATOM     10  O   UNL     1       2.281   3.490  16.928  0.00  0.00    +0.000 OA
BRANCH   9  12
ATOM     11  C   UNL     1       3.257   1.499  18.498  0.00  0.00    +0.000 C 
ATOM     12  O   UNL     1       4.092   2.527  17.947  0.00  0.00    +0.000 OA
ENDBRANCH   9  12
ENDBRANCH   1   9
BRANCH   8  13
ATOM     13  N   UNL     1       7.436   4.950  19.023  0.00  0.00    +0.000 NA
ATOM     14  O   UNL     1       7.444   5.493  20.136  0.00  0.00    +0.000 OA
ENDBRANCH   8  13
BRANCH   2  15
ATOM     15  O   UNL     1       3.874   5.803  18.980  0.00  0.00    +0.000 OA
BRANCH  15  16
ATOM     16  C   UNL     1       2.745   6.130  19.656  0.00  0.00    +0.000 C 
ATOM     17  O   UNL     1       2.330   7.258  19.866  0.00  0.00    +0.000 OA
BRANCH  16  18
ATOM     18  C   UNL     1       2.155   4.907  20.273  0.00  0.00    +0.000 A 
ATOM     19  C   UNL     1       2.875   4.265  21.292  0.00  0.00    +0.000 A 
ATOM     20  C   UNL     1       2.411   3.063  21.838  0.00  0.00    +0.000 A 
ATOM     21  C   UNL     1       1.224   2.501  21.373  0.00  0.00    +0.000 A 
ATOM     22  C   UNL     1       0.502   3.136  20.362  0.00  0.00    +0.000 A 
ATOM     23  C   UNL     1       0.962   4.334  19.812  0.00  0.00    +0.000 A 
ENDBRANCH  16  18
ENDBRANCH  15  16
ENDBRANCH   2  15
TORSDOF 6
ENDMDL
MODEL 2
REMARK VINA RESULT:      -7.6      0.148      1.016
REMARK  Name = 
REMARK  7 active torsions:
REMARK  status: ('A' for Active; 'I' for Inactive)
REMARK    1  A    between atoms: C_1  and  O_2
REMARK    2  A    between atoms: O_2  and  C_3
REMARK    3  A    between atoms: C_3  and  C_5
REMARK    4  A    between atoms: C_6  and  O_7
REMARK    5  A    between atoms: O_7  and  C_8
REMARK    6  A    between atoms: C_8  and  C_10
REMARK    7  A    between atoms: N_21  and  N_22
REMARK                            x       y       z     vdW  Elec       q    Type
REMARK                         _______ _______ _______ _____ _____    ______ ____
ROOT
ATOM      1  C   UNL     1       4.464   4.620  16.948  0.00  0.00    +0.000 C 
ATOM      2  C   UNL     1       4.029   6.000  17.505  0.00  0.00    +0.000 C 
ATOM      3  C   UNL     1       5.109   6.976  16.976  0.00  0.00    +0.000 C 
ATOM      4  C   UNL     1       6.542   6.544  17.406  0.00  0.00    +0.000 C 
ATOM      5  C   UNL     1       7.335   5.988  16.220  0.00  0.00    +0.000 C 
ATOM      6  C   UNL     1       6.885   4.525  16.120  0.00  0.00    +0.000 C 
ATOM      7  C   UNL     1       5.956   4.310  17.337  0.00  0.00    +0.000 C 
ATOM      8  N   UNL     1       6.450   5.349  18.276  0.00  0.00    +0.000 N 
ENDROOT
BRANCH   1   9
ATOM      9  C   UNL     1       3.522   3.482  17.293  0.00  0.00    +0.000 C 
ATOM     10  O   UNL     1       2.389   3.362  16.846  0.00  0.00    +0.000 OA
BRANCH   9  12
ATOM     11  C   UNL     1       3.476   1.414  18.473  0.00  0.00    +0.000 C 
ATOM     12  O   UNL     1       4.041   2.719  18.296  0.00  0.00    +0.000 OA
ENDBRANCH   9  12
ENDBRANCH   1   9
BRANCH   8  13
ATOM     13  N   UNL     1       7.520   5.023  18.966  0.00  0.00    +0.000 NA
ATOM     14  O   UNL     1       7.446   5.439  20.130  0.00  0.00    +0.000 OA
ENDBRANCH   8  13
BRANCH   2  15
ATOM     15  O   UNL     1       3.959   5.878  18.953  0.00  0.00    +0.000 OA
BRANCH  15  16
ATOM     16  C   UNL     1       2.804   6.118  19.623  0.00  0.00    +0.000 C 
ATOM     17  O   UNL     1       2.318   7.212  19.858  0.00  0.00    +0.000 OA
BRANCH  16  18
ATOM     18  C   UNL     1       2.285   4.845  20.202  0.00  0.00    +0.000 A 
ATOM     19  C   UNL     1       1.116   4.295  19.653  0.00  0.00    +0.000 A 
ATOM     20  C   UNL     1       0.536   3.155  20.220  0.00  0.00    +0.000 A 
ATOM     21  C   UNL     1       1.123   2.556  21.332  0.00  0.00    +0.000 A 
ATOM     22  C   UNL     1       2.287   3.096  21.880  0.00  0.00    +0.000 A 
ATOM     23  C   UNL     1       2.868   4.235  21.321  0.00  0.00    +0.000 A 
ENDBRANCH  16  18
ENDBRANCH  15  16
ENDBRANCH   2  15
TORSDOF 6
ENDMDL
MODEL 3
REMARK VINA RESULT:      -7.5      2.085      5.656
REMARK  Name = 
REMARK  7 active torsions:
REMARK  status: ('A' for Active; 'I' for Inactive)
REMARK    1  A    between atoms: C_1  and  O_2
REMARK    2  A    between atoms: O_2  and  C_3
REMARK    3  A    between atoms: C_3  and  C_5
REMARK    4  A    between atoms: C_6  and  O_7
REMARK    5  A    between atoms: O_7  and  C_8
REMARK    6  A    between atoms: C_8  and  C_10
REMARK    7  A    between atoms: N_21  and  N_22
REMARK                            x       y       z     vdW  Elec       q    Type
REMARK                         _______ _______ _______ _____ _____    ______ ____
ROOT
ATOM      1  C   UNL     1       2.192   5.090  18.659  0.00  0.00    +0.000 C 
ATOM      2  C   UNL     1       2.964   4.515  17.443  0.00  0.00    +0.000 C 
ATOM      3  C   UNL     1       2.408   3.077  17.291  0.00  0.00    +0.000 C 
ATOM      4  C   UNL     1       2.578   2.248  18.598  0.00  0.00    +0.000 C 
ATOM      5  C   UNL     1       1.235   2.038  19.303  0.00  0.00    +0.000 C 
ATOM      6  C   UNL     1       1.027   3.329  20.106  0.00  0.00    +0.000 C 
ATOM      7  C   UNL     1       2.328   4.139  19.904  0.00  0.00    +0.000 C 
ATOM      8  N   UNL     1       3.305   3.062  19.600  0.00  0.00    +0.000 N 
ENDROOT
BRANCH   1   9
ATOM      9  C   UNL     1       2.530   6.533  18.987  0.00  0.00    +0.000 C 
ATOM     10  O   UNL     1       2.437   7.028  20.102  0.00  0.00    +0.000 OA
BRANCH   9  12
ATOM     11  C   UNL     1       2.251   8.570  17.786  0.00  0.00    +0.000 C 
ATOM     12  O   UNL     1       2.776   7.238  17.847  0.00  0.00    +0.000 OA
ENDBRANCH   9  12
ENDBRANCH   1   9
BRANCH   8  13
ATOM     13  N   UNL     1       3.794   2.433  20.646  0.00  0.00    +0.000 NA
ATOM     14  O   UNL     1       4.888   1.915  20.385  0.00  0.00    +0.000 OA
ENDBRANCH   8  13
BRANCH   2  15
ATOM     15  O   UNL     1       4.384   4.601  17.753  0.00  0.00    +0.000 OA
BRANCH  15  16
ATOM     16  C   UNL     1       5.296   4.893  16.793  0.00  0.00    +0.000 C 
ATOM     17  O   UNL     1       5.336   4.422  15.668  0.00  0.00    +0.000 OA
BRANCH  16  18
ATOM     18  C   UNL     1       6.372   5.753  17.365  0.00  0.00    +0.000 A 
ATOM     19  C   UNL     1       7.097   5.267  18.464  0.00  0.00    +0.000 A 
ATOM     20  C   UNL     1       8.051   6.073  19.095  0.00  0.00    +0.000 A 
ATOM     21  C   UNL     1       8.289   7.363  18.628  0.00  0.00    +0.000 A 
ATOM     22  C   UNL     1       7.574   7.851  17.534  0.00  0.00    +0.000 A 
ATOM     23  C   UNL     1       6.619   7.053  16.903  0.00  0.00    +0.000 A 
ENDBRANCH  16  18
ENDBRANCH  15  16
ENDBRANCH   2  15
TORSDOF 6
ENDMDL
MODEL 4
REMARK VINA RESULT:      -7.5      1.795      3.263
REMARK  Name = 
REMARK  7 active torsions:
REMARK  status: ('A' for Active; 'I' for Inactive)
REMARK    1  A    between atoms: C_1  and  O_2
REMARK    2  A    between atoms: O_2  and  C_3
REMARK    3  A    between atoms: C_3  and  C_5
REMARK    4  A    between atoms: C_6  and  O_7
REMARK    5  A    between atoms: O_7  and  C_8
REMARK    6  A    between atoms: C_8  and  C_10
REMARK    7  A    between atoms: N_21  and  N_22
REMARK                            x       y       z     vdW  Elec       q    Type
REMARK                         _______ _______ _______ _____ _____    ______ ____
ROOT
ATOM      1  C   UNL     1       4.654   5.903  18.427  0.00  0.00    +0.000 C 
ATOM      2  C   UNL     1       5.309   4.951  19.461  0.00  0.00    +0.000 C 
ATOM      3  C   UNL     1       6.792   5.397  19.495  0.00  0.00    +0.000 C 
ATOM      4  C   UNL     1       7.446   5.343  18.083  0.00  0.00    +0.000 C 
ATOM      5  C   UNL     1       7.672   6.749  17.520  0.00  0.00    +0.000 C 
ATOM      6  C   UNL     1       6.314   7.133  16.916  0.00  0.00    +0.000 C 
ATOM      7  C   UNL     1       5.439   5.868  17.064  0.00  0.00    +0.000 C 
ATOM      8  N   UNL     1       6.469   4.798  17.114  0.00  0.00    +0.000 N 
ENDROOT
BRANCH   1   9
ATOM      9  C   UNL     1       3.162   5.696  18.245  0.00  0.00    +0.000 C 
ATOM     10  O   UNL     1       2.662   4.984  17.385  0.00  0.00    +0.000 OA
BRANCH   9  12
ATOM     11  C   UNL     1       2.348   7.904  18.613  0.00  0.00    +0.000 C 
ATOM     12  O   UNL     1       2.460   6.543  19.050  0.00  0.00    +0.000 OA
ENDBRANCH   9  12
ENDBRANCH   1   9
BRANCH   8  13
ATOM     13  N   UNL     1       6.932   4.407  15.947  0.00  0.00    +0.000 NA
ATOM     14  O   UNL     1       6.198   3.550  15.438  0.00  0.00    +0.000 OA
ENDBRANCH   8  13
BRANCH   2  15
ATOM     15  O   UNL     1       5.081   3.589  19.000  0.00  0.00    +0.000 OA
BRANCH  15  16
ATOM     16  C   UNL     1       4.613   2.632  19.839  0.00  0.00    +0.000 C 
ATOM     17  O   UNL     1       5.271   1.754  20.372  0.00  0.00    +0.000 OA
BRANCH  16  18
ATOM     18  C   UNL     1       3.124   2.691  19.888  0.00  0.00    +0.000 A 
ATOM     19  C   UNL     1       2.401   2.093  18.844  0.00  0.00    +0.000 A 
ATOM     20  C   UNL     1       1.007   2.201  18.794  0.00  0.00    +0.000 A 
ATOM     21  C   UNL     1       0.329   2.901  19.789  0.00  0.00    +0.000 A 
ATOM     22  C   UNL     1       1.040   3.495  20.832  0.00  0.00    +0.000 A 
ATOM     23  C   UNL     1       2.431   3.392  20.884  0.00  0.00    +0.000 A 
ENDBRANCH  16  18
ENDBRANCH  15  16
ENDBRANCH   2  15
TORSDOF 6
ENDMDL
MODEL 5
REMARK VINA RESULT:      -7.4      2.075      5.719
REMARK  Name = 
REMARK  7 active torsions:
REMARK  status: ('A' for Active; 'I' for Inactive)
REMARK    1  A    between atoms: C_1  and  O_2
REMARK    2  A    between atoms: O_2  and  C_3
REMARK    3  A    between atoms: C_3  and  C_5
REMARK    4  A    between atoms: C_6  and  O_7
REMARK    5  A    between atoms: O_7  and  C_8
REMARK    6  A    between atoms: C_8  and  C_10
REMARK    7  A    between atoms: N_21  and  N_22
REMARK                            x       y       z     vdW  Elec       q    Type
REMARK                         _______ _______ _______ _____ _____    ______ ____
ROOT
ATOM      1  C   UNL     1       2.244   4.955  18.490  0.00  0.00    +0.000 C 
ATOM      2  C   UNL     1       3.099   4.207  17.435  0.00  0.00    +0.000 C 
ATOM      3  C   UNL     1       2.487   2.785  17.395  0.00  0.00    +0.000 C 
ATOM      4  C   UNL     1       2.486   2.114  18.800  0.00  0.00    +0.000 C 
ATOM      5  C   UNL     1       1.072   2.044  19.383  0.00  0.00    +0.000 C 
ATOM      6  C   UNL     1       0.854   3.429  20.005  0.00  0.00    +0.000 C 
ATOM      7  C   UNL     1       2.209   4.156  19.845  0.00  0.00    +0.000 C 
ATOM      8  N   UNL     1       3.154   3.012  19.769  0.00  0.00    +0.000 N 
ENDROOT
BRANCH   1   9
ATOM      9  C   UNL     1       2.622   6.412  18.682  0.00  0.00    +0.000 C 
ATOM     10  O   UNL     1       3.086   7.127  17.804  0.00  0.00    +0.000 OA
BRANCH   9  12
ATOM     11  C   UNL     1       1.712   7.884  20.318  0.00  0.00    +0.000 C 
ATOM     12  O   UNL     1       2.540   6.758  19.997  0.00  0.00    +0.000 OA
ENDBRANCH   9  12
ENDBRANCH   1   9
BRANCH   8  13
ATOM     13  N   UNL     1       3.506   2.495  20.926  0.00  0.00    +0.000 NA
ATOM     14  O   UNL     1       4.686   2.122  20.907  0.00  0.00    +0.000 OA
ENDBRANCH   8  13
BRANCH   2  15
ATOM     15  O   UNL     1       4.484   4.274  17.877  0.00  0.00    +0.000 OA
BRANCH  15  16
ATOM     16  C   UNL     1       5.488   4.535  17.003  0.00  0.00    +0.000 C 
ATOM     17  O   UNL     1       5.716   3.938  15.964  0.00  0.00    +0.000 OA
BRANCH  16  18
ATOM     18  C   UNL     1       6.404   5.561  17.581  0.00  0.00    +0.000 A 
ATOM     19  C   UNL     1       6.499   6.804  16.936  0.00  0.00    +0.000 A 
ATOM     20  C   UNL     1       7.412   7.765  17.383  0.00  0.00    +0.000 A 
ATOM     21  C   UNL     1       8.229   7.492  18.478  0.00  0.00    +0.000 A 
ATOM     22  C   UNL     1       8.137   6.259  19.126  0.00  0.00    +0.000 A 
ATOM     23  C   UNL     1       7.230   5.296  18.682  0.00  0.00    +0.000 A 
ENDBRANCH  16  18
ENDBRANCH  15  16
ENDBRANCH   2  15
TORSDOF 6
ENDMDL
MODEL 6
REMARK VINA RESULT:      -7.3      1.798      3.178
REMARK  Name = 
REMARK  7 active torsions:
REMARK  status: ('A' for Active; 'I' for Inactive)
REMARK    1  A    between atoms: C_1  and  O_2
REMARK    2  A    between atoms: O_2  and  C_3
REMARK    3  A    between atoms: C_3  and  C_5
REMARK    4  A    between atoms: C_6  and  O_7
REMARK    5  A    between atoms: O_7  and  C_8
REMARK    6  A    between atoms: C_8  and  C_10
REMARK    7  A    between atoms: N_21  and  N_22
REMARK                            x       y       z     vdW  Elec       q    Type
REMARK                         _______ _______ _______ _____ _____    ______ ____
ROOT
ATOM      1  C   UNL     1       4.716   5.912  18.505  0.00  0.00    +0.000 C 
ATOM      2  C   UNL     1       5.414   4.948  19.499  0.00  0.00    +0.000 C 
ATOM      3  C   UNL     1       6.896   5.396  19.479  0.00  0.00    +0.000 C 
ATOM      4  C   UNL     1       7.493   5.363  18.040  0.00  0.00    +0.000 C 
ATOM      5  C   UNL     1       7.693   6.777  17.488  0.00  0.00    +0.000 C 
ATOM      6  C   UNL     1       6.312   7.167  16.945  0.00  0.00    +0.000 C 
ATOM      7  C   UNL     1       5.446   5.897  17.111  0.00  0.00    +0.000 C 
ATOM      8  N   UNL     1       6.478   4.829  17.104  0.00  0.00    +0.000 N 
ENDROOT
BRANCH   1   9
ATOM      9  C   UNL     1       3.218   5.704  18.381  0.00  0.00    +0.000 C 
ATOM     10  O   UNL     1       2.670   5.167  17.427  0.00  0.00    +0.000 OA
BRANCH   9  12
ATOM     11  C   UNL     1       2.195   7.715  19.144  0.00  0.00    +0.000 C 
ATOM     12  O   UNL     1       2.561   6.350  19.385  0.00  0.00    +0.000 OA
ENDBRANCH   9  12
ENDBRANCH   1   9
BRANCH   8  13
ATOM     13  N   UNL     1       6.894   4.456  15.914  0.00  0.00    +0.000 NA
ATOM     14  O   UNL     1       6.106   3.653  15.396  0.00  0.00    +0.000 OA
ENDBRANCH   8  13
BRANCH   2  15
ATOM     15  O   UNL     1       5.170   3.592  19.028  0.00  0.00    +0.000 OA
BRANCH  15  16
ATOM     16  C   UNL     1       4.643   2.648  19.847  0.00  0.00    +0.000 C 
ATOM     17  O   UNL     1       5.260   1.775  20.435  0.00  0.00    +0.000 OA
BRANCH  16  18
ATOM     18  C   UNL     1       3.154   2.712  19.796  0.00  0.00    +0.000 A 
ATOM     19  C   UNL     1       2.472   3.228  20.909  0.00  0.00    +0.000 A 
ATOM     20  C   UNL     1       1.074   3.222  20.949  0.00  0.00    +0.000 A 
ATOM     21  C   UNL     1       0.350   2.707  19.876  0.00  0.00    +0.000 A 
ATOM     22  C   UNL     1       1.021   2.196  18.764  0.00  0.00    +0.000 A 
ATOM     23  C   UNL     1       2.416   2.196  18.721  0.00  0.00    +0.000 A 
ENDBRANCH  16  18
ENDBRANCH  15  16
ENDBRANCH   2  15
TORSDOF 6
ENDMDL
MODEL 7
REMARK VINA RESULT:      -7.2      1.859      3.096
REMARK  Name = 
REMARK  7 active torsions:
REMARK  status: ('A' for Active; 'I' for Inactive)
REMARK    1  A    between atoms: C_1  and  O_2
REMARK    2  A    between atoms: O_2  and  C_3
REMARK    3  A    between atoms: C_3  and  C_5
REMARK    4  A    between atoms: C_6  and  O_7
REMARK    5  A    between atoms: O_7  and  C_8
REMARK    6  A    between atoms: C_8  and  C_10
REMARK    7  A    between atoms: N_21  and  N_22
REMARK                            x       y       z     vdW  Elec       q    Type
REMARK                         _______ _______ _______ _____ _____    ______ ____
ROOT
ATOM      1  C   UNL     1       4.785   4.108  17.739  0.00  0.00    +0.000 C 
ATOM      2  C   UNL     1       3.950   5.415  17.711  0.00  0.00    +0.000 C 
ATOM      3  C   UNL     1       4.713   6.327  16.719  0.00  0.00    +0.000 C 
ATOM      4  C   UNL     1       6.196   6.534  17.145  0.00  0.00    +0.000 C 
ATOM      5  C   UNL     1       7.151   5.769  16.225  0.00  0.00    +0.000 C 
ATOM      6  C   UNL     1       7.151   4.341  16.788  0.00  0.00    +0.000 C 
ATOM      7  C   UNL     1       6.291   4.419  18.071  0.00  0.00    +0.000 C 
ATOM      8  N   UNL     1       6.432   5.851  18.438  0.00  0.00    +0.000 N 
ENDROOT
BRANCH   1   9
ATOM      9  C   UNL     1       4.207   3.016  18.619  0.00  0.00    +0.000 C 
ATOM     10  O   UNL     1       4.645   2.710  19.720  0.00  0.00    +0.000 OA
BRANCH   9  12
ATOM     11  C   UNL     1       1.966   2.212  18.562  0.00  0.00    +0.000 C 
ATOM     12  O   UNL     1       3.256   2.311  17.944  0.00  0.00    +0.000 OA
ENDBRANCH   9  12
ENDBRANCH   1   9
BRANCH   8  13
ATOM     13  N   UNL     1       7.531   6.161  19.090  0.00  0.00    +0.000 NA
ATOM     14  O   UNL     1       7.653   5.472  20.112  0.00  0.00    +0.000 OA
ENDBRANCH   8  13
BRANCH   2  15
ATOM     15  O   UNL     1       3.876   5.909  19.079  0.00  0.00    +0.000 OA
BRANCH  15  16
ATOM     16  C   UNL     1       2.686   6.050  19.712  0.00  0.00    +0.000 C 
ATOM     17  O   UNL     1       2.044   5.163  20.250  0.00  0.00    +0.000 OA
BRANCH  16  18
ATOM     18  C   UNL     1       2.168   7.433  19.507  0.00  0.00    +0.000 A 
ATOM     19  C   UNL     1       1.527   8.068  20.583  0.00  0.00    +0.000 A 
ATOM     20  C   UNL     1       0.942   9.327  20.415  0.00  0.00    +0.000 A 
ATOM     21  C   UNL     1       0.998   9.961  19.175  0.00  0.00    +0.000 A 
ATOM     22  C   UNL     1       1.636   9.337  18.103  0.00  0.00    +0.000 A 
ATOM     23  C   UNL     1       2.219   8.079  18.264  0.00  0.00    +0.000 A 
ENDBRANCH  16  18
ENDBRANCH  15  16
ENDBRANCH   2  15
TORSDOF 6
ENDMDL
MODEL 8
REMARK VINA RESULT:      -7.1      2.195      5.682
REMARK  Name = 
REMARK  7 active torsions:
REMARK  status: ('A' for Active; 'I' for Inactive)
REMARK    1  A    between atoms: C_1  and  O_2
REMARK    2  A    between atoms: O_2  and  C_3
REMARK    3  A    between atoms: C_3  and  C_5
REMARK    4  A    between atoms: C_6  and  O_7
REMARK    5  A    between atoms: O_7  and  C_8
REMARK    6  A    between atoms: C_8  and  C_10
REMARK    7  A    between atoms: N_21  and  N_22
REMARK                            x       y       z     vdW  Elec       q    Type
REMARK                         _______ _______ _______ _____ _____    ______ ____
ROOT
ATOM      1  C   UNL     1       2.308   5.170  18.957  0.00  0.00    +0.000 C 
ATOM      2  C   UNL     1       3.637   4.665  18.339  0.00  0.00    +0.000 C 
ATOM      3  C   UNL     1       3.326   3.206  17.920  0.00  0.00    +0.000 C 
ATOM      4  C   UNL     1       2.823   2.353  19.121  0.00  0.00    +0.000 C 
ATOM      5  C   UNL     1       1.324   2.059  19.006  0.00  0.00    +0.000 C 
ATOM      6  C   UNL     1       0.651   3.317  19.571  0.00  0.00    +0.000 C 
ATOM      7  C   UNL     1       1.815   4.194  20.088  0.00  0.00    +0.000 C 
ATOM      8  N   UNL     1       2.861   3.174  20.353  0.00  0.00    +0.000 N 
ENDROOT
BRANCH   1   9
ATOM      9  C   UNL     1       2.339   6.618  19.409  0.00  0.00    +0.000 C 
ATOM     10  O   UNL     1       1.878   7.022  20.467  0.00  0.00    +0.000 OA
BRANCH   9  12
ATOM     11  C   UNL     1       2.003   8.584  18.108  0.00  0.00    +0.000 C 
ATOM     12  O   UNL     1       2.788   7.423  18.405  0.00  0.00    +0.000 OA
ENDBRANCH   9  12
ENDBRANCH   1   9
BRANCH   8  13
ATOM     13  N   UNL     1       2.755   2.542  21.501  0.00  0.00    +0.000 NA
ATOM     14  O   UNL     1       2.227   3.261  22.360  0.00  0.00    +0.000 OA
ENDBRANCH   8  13
BRANCH   2  15
ATOM     15  O   UNL     1       4.669   4.812  19.355  0.00  0.00    +0.000 OA
BRANCH  15  16
ATOM     16  C   UNL     1       5.943   5.133  19.021  0.00  0.00    +0.000 C 
ATOM     17  O   UNL     1       6.832   5.457  19.792  0.00  0.00    +0.000 OA
BRANCH  16  18
ATOM     18  C   UNL     1       6.071   5.209  17.537  0.00  0.00    +0.000 A 
ATOM     19  C   UNL     1       5.409   6.248  16.866  0.00  0.00    +0.000 A 
ATOM     20  C   UNL     1       5.420   6.309  15.469  0.00  0.00    +0.000 A 
ATOM     21  C   UNL     1       6.096   5.337  14.736  0.00  0.00    +0.000 A 
ATOM     22  C   UNL     1       6.760   4.302  15.397  0.00  0.00    +0.000 A 
ATOM     23  C   UNL     1       6.749   4.235  16.791  0.00  0.00    +0.000 A 
ENDBRANCH  16  18
ENDBRANCH  15  16
ENDBRANCH   2  15
TORSDOF 6
ENDMDL
MODEL 9
REMARK VINA RESULT:      -7.0      1.747      2.959
REMARK  Name = 
REMARK  7 active torsions:
REMARK  status: ('A' for Active; 'I' for Inactive)
REMARK    1  A    between atoms: C_1  and  O_2
REMARK    2  A    between atoms: O_2  and  C_3
REMARK    3  A    between atoms: C_3  and  C_5
REMARK    4  A    between atoms: C_6  and  O_7
REMARK    5  A    between atoms: O_7  and  C_8
REMARK    6  A    between atoms: C_8  and  C_10
REMARK    7  A    between atoms: N_21  and  N_22
REMARK                            x       y       z     vdW  Elec       q    Type
REMARK                         _______ _______ _______ _____ _____    ______ ____
ROOT
ATOM      1  C   UNL     1       4.180   4.549  17.042  0.00  0.00    +0.000 C 
ATOM      2  C   UNL     1       3.849   6.003  17.468  0.00  0.00    +0.000 C 
ATOM      3  C   UNL     1       4.970   6.850  16.814  0.00  0.00    +0.000 C 
ATOM      4  C   UNL     1       6.387   6.370  17.248  0.00  0.00    +0.000 C 
ATOM      5  C   UNL     1       7.105   5.649  16.104  0.00  0.00    +0.000 C 
ATOM      6  C   UNL     1       6.562   4.216  16.164  0.00  0.00    +0.000 C 
ATOM      7  C   UNL     1       5.662   4.183  17.421  0.00  0.00    +0.000 C 
ATOM      8  N   UNL     1       6.249   5.276  18.236  0.00  0.00    +0.000 N 
ENDROOT
BRANCH   1   9
ATOM      9  C   UNL     1       3.182   3.514  17.525  0.00  0.00    +0.000 C 
ATOM     10  O   UNL     1       2.018   3.449  17.153  0.00  0.00    +0.000 OA
BRANCH   9  12
ATOM     11  C   UNL     1       3.560   1.364  18.477  0.00  0.00    +0.000 C 
ATOM     12  O   UNL     1       3.705   2.788  18.553  0.00  0.00    +0.000 OA
ENDBRANCH   9  12
ENDBRANCH   1   9
BRANCH   8  13
ATOM     13  N   UNL     1       7.320   4.952  18.927  0.00  0.00    +0.000 NA
ATOM     14  O   UNL     1       7.296   5.461  20.056  0.00  0.00    +0.000 OA
ENDBRANCH   8  13
BRANCH   2  15
ATOM     15  O   UNL     1       3.819   6.030  18.923  0.00  0.00    +0.000 OA
BRANCH  15  16
ATOM     16  C   UNL     1       2.650   6.141  19.599  0.00  0.00    +0.000 C 
ATOM     17  O   UNL     1       2.029   5.230  20.123  0.00  0.00    +0.000 OA
BRANCH  16  18
ATOM     18  C   UNL     1       2.120   7.529  19.466  0.00  0.00    +0.000 A 
ATOM     19  C   UNL     1       1.551   8.134  20.597  0.00  0.00    +0.000 A 
ATOM     20  C   UNL     1       0.956   9.397  20.500  0.00  0.00    +0.000 A 
ATOM     21  C   UNL     1       0.933  10.063  19.277  0.00  0.00    +0.000 A 
ATOM     22  C   UNL     1       1.500   9.468  18.149  0.00  0.00    +0.000 A 
ATOM     23  C   UNL     1       2.091   8.207  18.239  0.00  0.00    +0.000 A 
ENDBRANCH  16  18
ENDBRANCH  15  16
ENDBRANCH   2  15
TORSDOF 6
ENDMDL
