MODEL 1
REMARK VINA RESULT:      -7.6      0.000      0.000
REMARK  Name = 
REMARK  4 active torsions:
REMARK  status: ('A' for Active; 'I' for Inactive)
REMARK    1  A    between atoms: N_9  and  C_10
REMARK    2  A    between atoms: C_18  and  C_19
REMARK    3  A    between atoms: C_22  and  O_23
REMARK    4  A    between atoms: O_23  and  C_24
REMARK                            x       y       z     vdW  Elec       q    Type
REMARK                         _______ _______ _______ _____ _____    ______ ____
ROOT
ATOM      1 CL   UNL     1       1.688  15.756  22.681  0.00  0.00    +0.000 Cl
ATOM      2  C   UNL     1       0.759  14.690  21.696  0.00  0.00    +0.000 A 
ATOM      3  C   UNL     1       1.261  14.301  20.455  0.00  0.00    +0.000 A 
ATOM      4  C   UNL     1       0.563  13.360  19.700  0.00  0.00    +0.000 A 
ATOM      5  C   UNL     1      -0.637  12.827  20.193  0.00  0.00    +0.000 A 
ATOM      6  C   UNL     1      -1.207  13.278  21.403  0.00  0.00    +0.000 A 
ATOM      7  C   UNL     1      -0.465  14.202  22.161  0.00  0.00    +0.000 A 
ATOM      8  C   UNL     1      -2.468  12.653  21.993  0.00  0.00    +0.000 C 
ATOM      9  N   UNL     1      -3.730  12.744  21.230  0.00  0.00    +0.000 NA
ATOM     10  C   UNL     1      -3.583  12.796  19.768  0.00  0.00    +0.000 C 
ATOM     11  C   UNL     1      -2.655  11.767  19.234  0.00  0.00    +0.000 A 
ATOM     12  N   UNL     1      -2.928  10.775  18.415  0.00  0.00    +0.000 NA
ATOM     13  N   UNL     1      -1.756  10.118  18.152  0.00  0.00    +0.000 NA
ATOM     14  C   UNL     1      -0.781  10.713  18.815  0.00  0.00    +0.000 A 
ATOM     15  N   UNL     1      -1.296  11.828  19.446  0.00  0.00    +0.000 N 
ENDROOT
BRANCH  14  16
ATOM     16  C   UNL     1       0.586  10.118  19.023  0.00  0.00    +0.000 C 
ATOM     17  C   UNL     1       0.539   9.187  20.257  0.00  0.00    +0.000 C 
ATOM     18  C   UNL     1       1.773   8.301  20.387  0.00  0.00    +0.000 C 
ATOM     19  C   UNL     1       1.979   7.488  19.105  0.00  0.00    +0.000 C 
ATOM     20  C   UNL     1       2.228   8.469  17.953  0.00  0.00    +0.000 C 
ATOM     21  C   UNL     1       1.029   9.388  17.743  0.00  0.00    +0.000 C 
BRANCH  19  22
ATOM     22  O   UNL     1       3.131   6.649  19.207  0.00  0.00    +0.000 OA
BRANCH  22  23
ATOM     23  C   UNL     1       3.134   5.444  18.560  0.00  0.00    +0.000 A 
ATOM     24  C   UNL     1       4.146   4.936  17.743  0.00  0.00    +0.000 A 
ATOM     25  C   UNL     1       3.977   3.709  17.091  0.00  0.00    +0.000 A 
ATOM     26  C   UNL     1       2.801   2.979  17.257  0.00  0.00    +0.000 A 
ATOM     27  C   UNL     1       1.802   3.464  18.096  0.00  0.00    +0.000 A 
ATOM     28  C   UNL     1       1.972   4.688  18.746  0.00  0.00    +0.000 A 
ENDBRANCH  22  23
ENDBRANCH  19  22
ENDBRANCH  14  16
BRANCH   9  29
ATOM     29  C   UNL     1      -4.577  13.844  21.717  0.00  0.00    +0.000 C 
ATOM     30  C   UNL     1      -6.022  13.353  22.029  0.00  0.00    +0.000 C 
ATOM     31  C   UNL     1      -5.936  14.140  23.348  0.00  0.00    +0.000 C 
ATOM     32  C   UNL     1      -4.404  13.968  23.260  0.00  0.00    +0.000 C 
ENDBRANCH   9  29
TORSDOF 4
ENDMDL
MODEL 2
REMARK VINA RESULT:      -7.6      3.843     10.088
REMARK  Name = 
REMARK  4 active torsions:
REMARK  status: ('A' for Active; 'I' for Inactive)
REMARK    1  A    between atoms: N_9  and  C_10
REMARK    2  A    between atoms: C_18  and  C_19
REMARK    3  A    between atoms: C_22  and  O_23
REMARK    4  A    between atoms: O_23  and  C_24
REMARK                            x       y       z     vdW  Elec       q    Type
REMARK                         _______ _______ _______ _____ _____    ______ ____
ROOT
ATOM      1 CL   UNL     1       2.125   1.908  21.532  0.00  0.00    +0.000 Cl
ATOM      2  C   UNL     1       2.245   3.343  20.587  0.00  0.00    +0.000 A 
ATOM      3  C   UNL     1       1.079   3.970  20.151  0.00  0.00    +0.000 A 
ATOM      4  C   UNL     1       1.167   5.185  19.475  0.00  0.00    +0.000 A 
ATOM      5  C   UNL     1       2.426   5.755  19.233  0.00  0.00    +0.000 A 
ATOM      6  C   UNL     1       3.621   5.089  19.585  0.00  0.00    +0.000 A 
ATOM      7  C   UNL     1       3.501   3.881  20.297  0.00  0.00    +0.000 A 
ATOM      8  C   UNL     1       4.994   5.729  19.402  0.00  0.00    +0.000 C 
ATOM      9  N   UNL     1       5.445   6.064  18.036  0.00  0.00    +0.000 NA
ATOM     10  C   UNL     1       4.379   6.393  17.080  0.00  0.00    +0.000 C 
ATOM     11  C   UNL     1       3.387   7.359  17.616  0.00  0.00    +0.000 A 
ATOM     12  N   UNL     1       3.115   8.570  17.180  0.00  0.00    +0.000 NA
ATOM     13  N   UNL     1       2.095   9.068  17.943  0.00  0.00    +0.000 NA
ATOM     14  C   UNL     1       1.756   8.159  18.840  0.00  0.00    +0.000 A 
ATOM     15  N   UNL     1       2.493   7.016  18.605  0.00  0.00    +0.000 N 
ENDROOT
BRANCH  14  16
ATOM     16  C   UNL     1       0.891   8.437  20.040  0.00  0.00    +0.000 C 
ATOM     17  C   UNL     1       1.803   8.656  21.269  0.00  0.00    +0.000 C 
ATOM     18  C   UNL     1       1.064   9.238  22.468  0.00  0.00    +0.000 C 
ATOM     19  C   UNL     1       0.363  10.542  22.077  0.00  0.00    +0.000 C 
ATOM     20  C   UNL     1      -0.679  10.219  20.999  0.00  0.00    +0.000 C 
ATOM     21  C   UNL     1      -0.018   9.644  19.750  0.00  0.00    +0.000 C 
BRANCH  19  22
ATOM     22  O   UNL     1      -0.336  11.105  23.189  0.00  0.00    +0.000 OA
BRANCH  22  23
ATOM     23  C   UNL     1      -1.218  12.127  22.970  0.00  0.00    +0.000 A 
ATOM     24  C   UNL     1      -0.927  13.382  22.431  0.00  0.00    +0.000 A 
ATOM     25  C   UNL     1      -1.927  14.356  22.329  0.00  0.00    +0.000 A 
ATOM     26  C   UNL     1      -3.225  14.080  22.757  0.00  0.00    +0.000 A 
ATOM     27  C   UNL     1      -3.530  12.820  23.263  0.00  0.00    +0.000 A 
ATOM     28  C   UNL     1      -2.530  11.849  23.364  0.00  0.00    +0.000 A 
ENDBRANCH  22  23
ENDBRANCH  19  22
ENDBRANCH  14  16
BRANCH   9  29
ATOM     29  C   UNL     1       6.343   5.031  17.496  0.00  0.00    +0.000 C 
ATOM     30  C   UNL     1       5.596   4.091  16.504  0.00  0.00    +0.000 C 
ATOM     31  C   UNL     1       6.799   4.241  15.556  0.00  0.00    +0.000 C 
ATOM     32  C   UNL     1       7.069   5.599  16.241  0.00  0.00    +0.000 C 
ENDBRANCH   9  29
TORSDOF 4
ENDMDL
MODEL 3
REMARK VINA RESULT:      -7.6      1.369      1.666
REMARK  Name = 
REMARK  4 active torsions:
REMARK  status: ('A' for Active; 'I' for Inactive)
REMARK    1  A    between atoms: N_9  and  C_10
REMARK    2  A    between atoms: C_18  and  C_19
REMARK    3  A    between atoms: C_22  and  O_23
REMARK    4  A    between atoms: O_23  and  C_24
REMARK                            x       y       z     vdW  Elec       q    Type
REMARK                         _______ _______ _______ _____ _____    ______ ____
ROOT
ATOM      1 CL   UNL     1       3.938  15.659  21.503  0.00  0.00    +0.000 Cl
ATOM      2  C   UNL     1       2.667  14.659  20.909  0.00  0.00    +0.000 A 
ATOM      3  C   UNL     1       2.834  13.995  19.695  0.00  0.00    +0.000 A 
ATOM      4  C   UNL     1       1.853  13.106  19.260  0.00  0.00    +0.000 A 
ATOM      5  C   UNL     1       0.708  12.900  20.043  0.00  0.00    +0.000 A 
ATOM      6  C   UNL     1       0.478  13.633  21.228  0.00  0.00    +0.000 A 
ATOM      7  C   UNL     1       1.500  14.497  21.661  0.00  0.00    +0.000 A 
ATOM      8  C   UNL     1      -0.722  13.365  22.132  0.00  0.00    +0.000 C 
ATOM      9  N   UNL     1      -2.080  13.585  21.594  0.00  0.00    +0.000 NA
ATOM     10  C   UNL     1      -2.227  13.384  20.145  0.00  0.00    +0.000 C 
ATOM     11  C   UNL     1      -1.609  12.124  19.661  0.00  0.00    +0.000 A 
ATOM     12  N   UNL     1      -2.201  11.092  19.101  0.00  0.00    +0.000 NA
ATOM     13  N   UNL     1      -1.232  10.186  18.768  0.00  0.00    +0.000 NA
ATOM     14  C   UNL     1      -0.057  10.671  19.130  0.00  0.00    +0.000 A 
ATOM     15  N   UNL     1      -0.244  11.949  19.620  0.00  0.00    +0.000 N 
ENDROOT
BRANCH  14  16
ATOM     16  C   UNL     1       1.207   9.858  19.207  0.00  0.00    +0.000 C 
ATOM     17  C   UNL     1       0.984   8.687  20.191  0.00  0.00    +0.000 C 
ATOM     18  C   UNL     1       2.080   7.629  20.123  0.00  0.00    +0.000 C 
ATOM     19  C   UNL     1       2.228   7.110  18.690  0.00  0.00    +0.000 C 
ATOM     20  C   UNL     1       2.655   8.283  17.799  0.00  0.00    +0.000 C 
ATOM     21  C   UNL     1       1.600   9.385  17.797  0.00  0.00    +0.000 C 
BRANCH  19  22
ATOM     22  O   UNL     1       3.251   6.116  18.605  0.00  0.00    +0.000 OA
BRANCH  22  23
ATOM     23  C   UNL     1       2.929   4.809  18.847  0.00  0.00    +0.000 A 
ATOM     24  C   UNL     1       3.591   3.932  19.709  0.00  0.00    +0.000 A 
ATOM     25  C   UNL     1       3.184   2.596  19.804  0.00  0.00    +0.000 A 
ATOM     26  C   UNL     1       2.111   2.131  19.046  0.00  0.00    +0.000 A 
ATOM     27  C   UNL     1       1.426   3.008  18.211  0.00  0.00    +0.000 A 
ATOM     28  C   UNL     1       1.833   4.341  18.117  0.00  0.00    +0.000 A 
ENDBRANCH  22  23
ENDBRANCH  19  22
ENDBRANCH  14  16
BRANCH   9  29
ATOM     29  C   UNL     1      -2.619  14.890  22.007  0.00  0.00    +0.000 C 
ATOM     30  C   UNL     1      -4.037  14.748  22.633  0.00  0.00    +0.000 C 
ATOM     31  C   UNL     1      -3.566  15.688  23.756  0.00  0.00    +0.000 C 
ATOM     32  C   UNL     1      -2.132  15.203  23.452  0.00  0.00    +0.000 C 
ENDBRANCH   9  29
TORSDOF 4
ENDMDL
MODEL 4
REMARK VINA RESULT:      -7.6      3.036      4.346
REMARK  Name = 
REMARK  4 active torsions:
REMARK  status: ('A' for Active; 'I' for Inactive)
REMARK    1  A    between atoms: N_9  and  C_10
REMARK    2  A    between atoms: C_18  and  C_19
REMARK    3  A    between atoms: C_22  and  O_23
REMARK    4  A    between atoms: O_23  and  C_24
REMARK                            x       y       z     vdW  Elec       q    Type
REMARK                         _______ _______ _______ _____ _____    ______ ____
ROOT
ATOM      1 CL   UNL     1      -3.536  10.906  15.139  0.00  0.00    +0.000 Cl
ATOM      2  C   UNL     1      -2.659  10.910  16.622  0.00  0.00    +0.000 A 
ATOM      3  C   UNL     1      -2.724   9.795  17.455  0.00  0.00    +0.000 A 
ATOM      4  C   UNL     1      -1.936   9.752  18.603  0.00  0.00    +0.000 A 
ATOM      5  C   UNL     1      -1.099  10.834  18.911  0.00  0.00    +0.000 A 
ATOM      6  C   UNL     1      -1.090  12.011  18.131  0.00  0.00    +0.000 A 
ATOM      7  C   UNL     1      -1.868  12.013  16.959  0.00  0.00    +0.000 A 
ATOM      8  C   UNL     1      -0.129  13.163  18.405  0.00  0.00    +0.000 C 
ATOM      9  N   UNL     1      -0.228  13.880  19.693  0.00  0.00    +0.000 NA
ATOM     10  C   UNL     1      -0.716  13.081  20.826  0.00  0.00    +0.000 C 
ATOM     11  C   UNL     1      -0.044  11.762  20.946  0.00  0.00    +0.000 A 
ATOM     12  N   UNL     1       0.706  11.320  21.932  0.00  0.00    +0.000 NA
ATOM     13  N   UNL     1       1.063  10.032  21.639  0.00  0.00    +0.000 NA
ATOM     14  C   UNL     1       0.531   9.701  20.475  0.00  0.00    +0.000 A 
ATOM     15  N   UNL     1      -0.261  10.746  20.043  0.00  0.00    +0.000 N 
ENDROOT
BRANCH  14  16
ATOM     16  C   UNL     1       0.933   8.491  19.675  0.00  0.00    +0.000 C 
ATOM     17  C   UNL     1       1.819   8.948  18.494  0.00  0.00    +0.000 C 
ATOM     18  C   UNL     1       2.529   7.795  17.795  0.00  0.00    +0.000 C 
ATOM     19  C   UNL     1       3.350   6.988  18.804  0.00  0.00    +0.000 C 
ATOM     20  C   UNL     1       2.385   6.387  19.833  0.00  0.00    +0.000 C 
ATOM     21  C   UNL     1       1.641   7.480  20.594  0.00  0.00    +0.000 C 
BRANCH  19  22
ATOM     22  O   UNL     1       4.025   5.901  18.168  0.00  0.00    +0.000 OA
BRANCH  22  23
ATOM     23  C   UNL     1       3.522   4.636  18.303  0.00  0.00    +0.000 A 
ATOM     24  C   UNL     1       2.410   4.105  17.646  0.00  0.00    +0.000 A 
ATOM     25  C   UNL     1       1.972   2.808  17.938  0.00  0.00    +0.000 A 
ATOM     26  C   UNL     1       2.645   2.032  18.880  0.00  0.00    +0.000 A 
ATOM     27  C   UNL     1       3.774   2.543  19.514  0.00  0.00    +0.000 A 
ATOM     28  C   UNL     1       4.210   3.838  19.221  0.00  0.00    +0.000 A 
ENDBRANCH  22  23
ENDBRANCH  19  22
ENDBRANCH  14  16
BRANCH   9  29
ATOM     29  C   UNL     1      -0.993  15.130  19.557  0.00  0.00    +0.000 C 
ATOM     30  C   UNL     1      -0.673  16.121  20.715  0.00  0.00    +0.000 C 
ATOM     31  C   UNL     1      -0.555  17.226  19.652  0.00  0.00    +0.000 C 
ATOM     32  C   UNL     1      -0.198  16.111  18.646  0.00  0.00    +0.000 C 
ENDBRANCH   9  29
TORSDOF 4
ENDMDL
MODEL 5
REMARK VINA RESULT:      -7.6      1.616      2.365
REMARK  Name = 
REMARK  4 active torsions:
REMARK  status: ('A' for Active; 'I' for Inactive)
REMARK    1  A    between atoms: N_9  and  C_10
REMARK    2  A    between atoms: C_18  and  C_19
REMARK    3  A    between atoms: C_22  and  O_23
REMARK    4  A    between atoms: O_23  and  C_24
REMARK                            x       y       z     vdW  Elec       q    Type
REMARK                         _______ _______ _______ _____ _____    ______ ____
ROOT
ATOM      1 CL   UNL     1      -1.292  15.374  25.547  0.00  0.00    +0.000 Cl
ATOM      2  C   UNL     1      -1.797  14.676  24.055  0.00  0.00    +0.000 A 
ATOM      3  C   UNL     1      -0.977  14.797  22.935  0.00  0.00    +0.000 A 
ATOM      4  C   UNL     1      -1.331  14.148  21.754  0.00  0.00    +0.000 A 
ATOM      5  C   UNL     1      -2.510  13.390  21.706  0.00  0.00    +0.000 A 
ATOM      6  C   UNL     1      -3.400  13.332  22.801  0.00  0.00    +0.000 A 
ATOM      7  C   UNL     1      -3.001  13.968  23.990  0.00  0.00    +0.000 A 
ATOM      8  C   UNL     1      -4.644  12.450  22.794  0.00  0.00    +0.000 C 
ATOM      9  N   UNL     1      -5.703  12.723  21.799  0.00  0.00    +0.000 NA
ATOM     10  C   UNL     1      -5.244  13.310  20.532  0.00  0.00    +0.000 C 
ATOM     11  C   UNL     1      -4.070  12.611  19.952  0.00  0.00    +0.000 A 
ATOM     12  N   UNL     1      -3.992  11.966  18.809  0.00  0.00    +0.000 NA
ATOM     13  N   UNL     1      -2.703  11.532  18.661  0.00  0.00    +0.000 NA
ATOM     14  C   UNL     1      -2.007  11.913  19.718  0.00  0.00    +0.000 A 
ATOM     15  N   UNL     1      -2.819  12.686  20.523  0.00  0.00    +0.000 N 
ENDROOT
BRANCH  14  16
ATOM     16  C   UNL     1      -0.643  11.380  20.070  0.00  0.00    +0.000 C 
ATOM     17  C   UNL     1      -0.792  10.365  21.226  0.00  0.00    +0.000 C 
ATOM     18  C   UNL     1       0.468   9.539  21.465  0.00  0.00    +0.000 C 
ATOM     19  C   UNL     1       0.889   8.830  20.174  0.00  0.00    +0.000 C 
ATOM     20  C   UNL     1       1.224   9.900  19.129  0.00  0.00    +0.000 C 
ATOM     21  C   UNL     1       0.007  10.766  18.817  0.00  0.00    +0.000 C 
BRANCH  19  22
ATOM     22  O   UNL     1       2.068   8.050  20.377  0.00  0.00    +0.000 OA
BRANCH  22  23
ATOM     23  C   UNL     1       2.158   6.817  19.791  0.00  0.00    +0.000 A 
ATOM     24  C   UNL     1       2.552   6.542  18.480  0.00  0.00    +0.000 A 
ATOM     25  C   UNL     1       2.530   5.228  17.998  0.00  0.00    +0.000 A 
ATOM     26  C   UNL     1       2.122   4.181  18.823  0.00  0.00    +0.000 A 
ATOM     27  C   UNL     1       1.760   4.444  20.141  0.00  0.00    +0.000 A 
ATOM     28  C   UNL     1       1.783   5.757  20.621  0.00  0.00    +0.000 A 
ENDBRANCH  22  23
ENDBRANCH  19  22
ENDBRANCH  14  16
BRANCH   9  29
ATOM     29  C   UNL     1      -6.801  13.509  22.383  0.00  0.00    +0.000 C 
ATOM     30  C   UNL     1      -6.700  13.563  23.935  0.00  0.00    +0.000 C 
ATOM     31  C   UNL     1      -6.978  15.073  23.838  0.00  0.00    +0.000 C 
ATOM     32  C   UNL     1      -6.386  15.010  22.414  0.00  0.00    +0.000 C 
ENDBRANCH   9  29
TORSDOF 4
ENDMDL
MODEL 6
REMARK VINA RESULT:      -7.6      1.392      2.021
REMARK  Name = 
REMARK  4 active torsions:
REMARK  status: ('A' for Active; 'I' for Inactive)
REMARK    1  A    between atoms: N_9  and  C_10
REMARK    2  A    between atoms: C_18  and  C_19
REMARK    3  A    between atoms: C_22  and  O_23
REMARK    4  A    between atoms: O_23  and  C_24
REMARK                            x       y       z     vdW  Elec       q    Type
REMARK                         _______ _______ _______ _____ _____    ______ ____
ROOT
ATOM      1 CL   UNL     1      -0.335  16.020  24.050  0.00  0.00    +0.000 Cl
ATOM      2  C   UNL     1      -1.104  15.083  22.826  0.00  0.00    +0.000 A 
ATOM      3  C   UNL     1      -0.549  15.045  21.548  0.00  0.00    +0.000 A 
ATOM      4  C   UNL     1      -1.108  14.209  20.584  0.00  0.00    +0.000 A 
ATOM      5  C   UNL     1      -2.225  13.426  20.908  0.00  0.00    +0.000 A 
ATOM      6  C   UNL     1      -2.857  13.521  22.168  0.00  0.00    +0.000 A 
ATOM      7  C   UNL     1      -2.252  14.347  23.132  0.00  0.00    +0.000 A 
ATOM      8  C   UNL     1      -4.023  12.621  22.564  0.00  0.00    +0.000 C 
ATOM      9  N   UNL     1      -5.282  12.708  21.796  0.00  0.00    +0.000 NA
ATOM     10  C   UNL     1      -5.137  13.098  20.386  0.00  0.00    +0.000 C 
ATOM     11  C   UNL     1      -4.075  12.343  19.674  0.00  0.00    +0.000 A 
ATOM     12  N   UNL     1      -4.206  11.527  18.651  0.00  0.00    +0.000 NA
ATOM     13  N   UNL     1      -2.954  11.106  18.293  0.00  0.00    +0.000 NA
ATOM     14  C   UNL     1      -2.072  11.665  19.102  0.00  0.00    +0.000 A 
ATOM     15  N   UNL     1      -2.738  12.537  19.941  0.00  0.00    +0.000 N 
ENDROOT
BRANCH  14  16
ATOM     16  C   UNL     1      -0.638  11.226  19.223  0.00  0.00    +0.000 C 
ATOM     17  C   UNL     1      -0.464  10.460  20.554  0.00  0.00    +0.000 C 
ATOM     18  C   UNL     1       0.861   9.711  20.648  0.00  0.00    +0.000 C 
ATOM     19  C   UNL     1       1.018   8.763  19.455  0.00  0.00    +0.000 C 
ATOM     20  C   UNL     1       1.048   9.607  18.176  0.00  0.00    +0.000 C 
ATOM     21  C   UNL     1      -0.254  10.381  17.996  0.00  0.00    +0.000 C 
BRANCH  19  22
ATOM     22  O   UNL     1       2.254   8.050  19.524  0.00  0.00    +0.000 OA
BRANCH  22  23
ATOM     23  C   UNL     1       2.232   6.683  19.548  0.00  0.00    +0.000 A 
ATOM     24  C   UNL     1       1.819   5.872  20.609  0.00  0.00    +0.000 A 
ATOM     25  C   UNL     1       1.917   4.480  20.511  0.00  0.00    +0.000 A 
ATOM     26  C   UNL     1       2.418   3.888  19.352  0.00  0.00    +0.000 A 
ATOM     27  C   UNL     1       2.798   4.688  18.279  0.00  0.00    +0.000 A 
ATOM     28  C   UNL     1       2.701   6.078  18.379  0.00  0.00    +0.000 A 
ENDBRANCH  22  23
ENDBRANCH  19  22
ENDBRANCH  14  16
BRANCH   9  29
ATOM     29  C   UNL     1      -6.274  13.552  22.481  0.00  0.00    +0.000 C 
ATOM     30  C   UNL     1      -7.592  12.770  22.756  0.00  0.00    +0.000 C 
ATOM     31  C   UNL     1      -7.564  13.349  24.181  0.00  0.00    +0.000 C 
ATOM     32  C   UNL     1      -6.033  13.468  24.017  0.00  0.00    +0.000 C 
ENDBRANCH   9  29
TORSDOF 4
ENDMDL
MODEL 7
REMARK VINA RESULT:      -7.5      3.195      4.677
REMARK  Name = 
REMARK  4 active torsions:
REMARK  status: ('A' for Active; 'I' for Inactive)
REMARK    1  A    between atoms: N_9  and  C_10
REMARK    2  A    between atoms: C_18  and  C_19
REMARK    3  A    between atoms: C_22  and  O_23
REMARK    4  A    between atoms: O_23  and  C_24
REMARK                            x       y       z     vdW  Elec       q    Type
REMARK                         _______ _______ _______ _____ _____    ______ ____
ROOT
ATOM      1 CL   UNL     1      -3.493  10.984  15.466  0.00  0.00    +0.000 Cl
ATOM      2  C   UNL     1      -2.579  10.903  16.924  0.00  0.00    +0.000 A 
ATOM      3  C   UNL     1      -2.707   9.786  17.746  0.00  0.00    +0.000 A 
ATOM      4  C   UNL     1      -1.895   9.668  18.873  0.00  0.00    +0.000 A 
ATOM      5  C   UNL     1      -0.969  10.679  19.168  0.00  0.00    +0.000 A 
ATOM      6  C   UNL     1      -0.890  11.861  18.400  0.00  0.00    +0.000 A 
ATOM      7  C   UNL     1      -1.697  11.937  17.250  0.00  0.00    +0.000 A 
ATOM      8  C   UNL     1       0.163  12.933  18.659  0.00  0.00    +0.000 C 
ATOM      9  N   UNL     1       0.154  13.640  19.956  0.00  0.00    +0.000 NA
ATOM     10  C   UNL     1      -0.363  12.867  21.094  0.00  0.00    +0.000 C 
ATOM     11  C   UNL     1       0.209  11.499  21.183  0.00  0.00    +0.000 A 
ATOM     12  N   UNL     1       0.948  10.988  22.143  0.00  0.00    +0.000 NA
ATOM     13  N   UNL     1       1.197   9.681  21.827  0.00  0.00    +0.000 NA
ATOM     14  C   UNL     1       0.611   9.406  20.675  0.00  0.00    +0.000 A 
ATOM     15  N   UNL     1      -0.110  10.514  20.275  0.00  0.00    +0.000 N 
ENDROOT
BRANCH  14  16
ATOM     16  C   UNL     1       0.896   8.178  19.852  0.00  0.00    +0.000 C 
ATOM     17  C   UNL     1       2.051   8.494  18.875  0.00  0.00    +0.000 C 
ATOM     18  C   UNL     1       2.628   7.251  18.206  0.00  0.00    +0.000 C 
ATOM     19  C   UNL     1       3.078   6.240  19.264  0.00  0.00    +0.000 C 
ATOM     20  C   UNL     1       1.845   5.809  20.067  0.00  0.00    +0.000 C 
ATOM     21  C   UNL     1       1.212   6.996  20.785  0.00  0.00    +0.000 C 
BRANCH  19  22
ATOM     22  O   UNL     1       3.623   5.067  18.658  0.00  0.00    +0.000 OA
BRANCH  22  23
ATOM     23  C   UNL     1       4.930   5.073  18.256  0.00  0.00    +0.000 A 
ATOM     24  C   UNL     1       5.417   4.733  16.992  0.00  0.00    +0.000 A 
ATOM     25  C   UNL     1       6.795   4.723  16.747  0.00  0.00    +0.000 A 
ATOM     26  C   UNL     1       7.693   5.059  17.758  0.00  0.00    +0.000 A 
ATOM     27  C   UNL     1       7.213   5.432  19.010  0.00  0.00    +0.000 A 
ATOM     28  C   UNL     1       5.837   5.442  19.253  0.00  0.00    +0.000 A 
ENDBRANCH  22  23
ENDBRANCH  19  22
ENDBRANCH  14  16
BRANCH   9  29
ATOM     29  C   UNL     1      -0.515  14.947  19.854  0.00  0.00    +0.000 C 
ATOM     30  C   UNL     1       0.332  16.072  20.518  0.00  0.00    +0.000 C 
ATOM     31  C   UNL     1       0.050  16.931  19.273  0.00  0.00    +0.000 C 
ATOM     32  C   UNL     1      -0.129  15.607  18.498  0.00  0.00    +0.000 C 
ENDBRANCH   9  29
TORSDOF 4
ENDMDL
MODEL 8
REMARK VINA RESULT:      -7.5      3.140      4.563
REMARK  Name = 
REMARK  4 active torsions:
REMARK  status: ('A' for Active; 'I' for Inactive)
REMARK    1  A    between atoms: N_9  and  C_10
REMARK    2  A    between atoms: C_18  and  C_19
REMARK    3  A    between atoms: C_22  and  O_23
REMARK    4  A    between atoms: O_23  and  C_24
REMARK                            x       y       z     vdW  Elec       q    Type
REMARK                         _______ _______ _______ _____ _____    ______ ____
ROOT
ATOM      1 CL   UNL     1      -3.435  10.847  15.237  0.00  0.00    +0.000 Cl
ATOM      2  C   UNL     1      -2.528  10.877  16.702  0.00  0.00    +0.000 A 
ATOM      3  C   UNL     1      -2.687   9.843  17.622  0.00  0.00    +0.000 A 
ATOM      4  C   UNL     1      -1.882   9.809  18.759  0.00  0.00    +0.000 A 
ATOM      5  C   UNL     1      -0.932  10.820  18.967  0.00  0.00    +0.000 A 
ATOM      6  C   UNL     1      -0.822  11.924  18.094  0.00  0.00    +0.000 A 
ATOM      7  C   UNL     1      -1.622  11.915  16.937  0.00  0.00    +0.000 A 
ATOM      8  C   UNL     1       0.258  12.990  18.261  0.00  0.00    +0.000 C 
ATOM      9  N   UNL     1       0.261  13.811  19.488  0.00  0.00    +0.000 NA
ATOM     10  C   UNL     1      -0.279  13.158  20.689  0.00  0.00    +0.000 C 
ATOM     11  C   UNL     1       0.258  11.790  20.905  0.00  0.00    +0.000 A 
ATOM     12  N   UNL     1       0.981  11.352  21.912  0.00  0.00    +0.000 NA
ATOM     13  N   UNL     1       1.199  10.015  21.718  0.00  0.00    +0.000 NA
ATOM     14  C   UNL     1       0.610   9.651  20.592  0.00  0.00    +0.000 A 
ATOM     15  N   UNL     1      -0.082  10.735  20.089  0.00  0.00    +0.000 N 
ENDROOT
BRANCH  14  16
ATOM     16  C   UNL     1       0.868   8.347  19.887  0.00  0.00    +0.000 C 
ATOM     17  C   UNL     1       1.954   8.572  18.810  0.00  0.00    +0.000 C 
ATOM     18  C   UNL     1       2.513   7.272  18.241  0.00  0.00    +0.000 C 
ATOM     19  C   UNL     1       3.046   6.385  19.369  0.00  0.00    +0.000 C 
ATOM     20  C   UNL     1       1.873   6.025  20.288  0.00  0.00    +0.000 C 
ATOM     21  C   UNL     1       1.263   7.274  20.917  0.00  0.00    +0.000 C 
BRANCH  19  22
ATOM     22  O   UNL     1       3.575   5.161  18.856  0.00  0.00    +0.000 OA
BRANCH  22  23
ATOM     23  C   UNL     1       4.894   5.105  18.500  0.00  0.00    +0.000 A 
ATOM     24  C   UNL     1       5.985   5.517  19.269  0.00  0.00    +0.000 A 
ATOM     25  C   UNL     1       7.281   5.460  18.741  0.00  0.00    +0.000 A 
ATOM     26  C   UNL     1       7.495   4.986  17.448  0.00  0.00    +0.000 A 
ATOM     27  C   UNL     1       6.416   4.542  16.689  0.00  0.00    +0.000 A 
ATOM     28  C   UNL     1       5.123   4.599  17.217  0.00  0.00    +0.000 A 
ENDBRANCH  22  23
ENDBRANCH  19  22
ENDBRANCH  14  16
BRANCH   9  29
ATOM     29  C   UNL     1      -0.375  15.119  19.264  0.00  0.00    +0.000 C 
ATOM     30  C   UNL     1      -1.393  15.458  20.392  0.00  0.00    +0.000 C 
ATOM     31  C   UNL     1      -0.775  16.865  20.441  0.00  0.00    +0.000 C 
ATOM     32  C   UNL     1       0.520  16.230  19.889  0.00  0.00    +0.000 C 
ENDBRANCH   9  29
TORSDOF 4
ENDMDL
MODEL 9
REMARK VINA RESULT:      -7.4      2.023      2.731
REMARK  Name = 
REMARK  4 active torsions:
REMARK  status: ('A' for Active; 'I' for Inactive)
REMARK    1  A    between atoms: N_9  and  C_10
REMARK    2  A    between atoms: C_18  and  C_19
REMARK    3  A    between atoms: C_22  and  O_23
REMARK    4  A    between atoms: O_23  and  C_24
REMARK                            x       y       z     vdW  Elec       q    Type
REMARK                         _______ _______ _______ _____ _____    ______ ____
ROOT
ATOM      1 CL   UNL     1       4.986  15.636  19.183  0.00  0.00    +0.000 Cl
ATOM      2  C   UNL     1       3.535  14.707  19.195  0.00  0.00    +0.000 A 
ATOM      3  C   UNL     1       3.331  13.750  18.203  0.00  0.00    +0.000 A 
ATOM      4  C   UNL     1       2.209  12.927  18.266  0.00  0.00    +0.000 A 
ATOM      5  C   UNL     1       1.296  13.079  19.320  0.00  0.00    +0.000 A 
ATOM      6  C   UNL     1       1.437  14.104  20.282  0.00  0.00    +0.000 A 
ATOM      7  C   UNL     1       2.596  14.898  20.213  0.00  0.00    +0.000 A 
ATOM      8  C   UNL     1       0.499  14.233  21.478  0.00  0.00    +0.000 C 
ATOM      9  N   UNL     1      -0.933  14.501  21.233  0.00  0.00    +0.000 NA
ATOM     10  C   UNL     1      -1.468  13.975  19.969  0.00  0.00    +0.000 C 
ATOM     11  C   UNL     1      -1.090  12.562  19.714  0.00  0.00    +0.000 A 
ATOM     12  N   UNL     1      -1.881  11.516  19.609  0.00  0.00    +0.000 NA
ATOM     13  N   UNL     1      -1.101  10.431  19.318  0.00  0.00    +0.000 NA
ATOM     14  C   UNL     1       0.159  10.823  19.251  0.00  0.00    +0.000 A 
ATOM     15  N   UNL     1       0.201  12.195  19.405  0.00  0.00    +0.000 N 
ENDROOT
BRANCH  14  16
ATOM     16  C   UNL     1       1.338   9.886  19.248  0.00  0.00    +0.000 C 
ATOM     17  C   UNL     1       1.082   8.766  20.282  0.00  0.00    +0.000 C 
ATOM     18  C   UNL     1       2.057   7.600  20.157  0.00  0.00    +0.000 C 
ATOM     19  C   UNL     1       2.030   7.037  18.733  0.00  0.00    +0.000 C 
ATOM     20  C   UNL     1       2.495   8.140  17.775  0.00  0.00    +0.000 C 
ATOM     21  C   UNL     1       1.560   9.344  17.826  0.00  0.00    +0.000 C 
BRANCH  19  22
ATOM     22  O   UNL     1       2.937   5.942  18.595  0.00  0.00    +0.000 OA
BRANCH  22  23
ATOM     23  C   UNL     1       2.502   4.678  18.886  0.00  0.00    +0.000 A 
ATOM     24  C   UNL     1       1.649   3.889  18.112  0.00  0.00    +0.000 A 
ATOM     25  C   UNL     1       1.236   2.634  18.575  0.00  0.00    +0.000 A 
ATOM     26  C   UNL     1       1.677   2.158  19.808  0.00  0.00    +0.000 A 
ATOM     27  C   UNL     1       2.554   2.925  20.569  0.00  0.00    +0.000 A 
ATOM     28  C   UNL     1       2.966   4.177  20.106  0.00  0.00    +0.000 A 
ENDBRANCH  22  23
ENDBRANCH  19  22
ENDBRANCH  14  16
BRANCH   9  29
ATOM     29  C   UNL     1      -1.249  15.930  21.389  0.00  0.00    +0.000 C 
ATOM     30  C   UNL     1      -2.684  16.135  21.958  0.00  0.00    +0.000 C 
ATOM     31  C   UNL     1      -2.083  17.168  22.928  0.00  0.00    +0.000 C 
ATOM     32  C   UNL     1      -0.747  16.408  22.783  0.00  0.00    +0.000 C 
ENDBRANCH   9  29
TORSDOF 4
ENDMDL
