MODEL 1
REMARK VINA RESULT:      -7.7      0.000      0.000
REMARK  Name = 
REMARK  7 active torsions:
REMARK  status: ('A' for Active; 'I' for Inactive)
REMARK    1  A    between atoms: C_2  and  C_3
REMARK    2  A    between atoms: C_3  and  S_4
REMARK    3  A    between atoms: S_4  and  C_5
REMARK    4  A    between atoms: C_8  and  C_9
REMARK    5  A    between atoms: C_12  and  O_13
REMARK    6  A    between atoms: N_17  and  N_18
REMARK    7  A    between atoms: C_19  and  C_21
REMARK                            x       y       z     vdW  Elec       q    Type
REMARK                         _______ _______ _______ _____ _____    ______ ____
ROOT
ATOM      1  C   UNL     1       7.647   6.006  18.662  0.00  0.00    +0.000 C 
ENDROOT
BRANCH   1   3
ATOM      2  O   UNL     1       7.521   7.675  16.904  0.00  0.00    +0.000 OA
ATOM      3  C   UNL     1       7.941   7.368  18.021  0.00  0.00    +0.000 C 
ATOM      4  N   UNL     1       8.619   8.275  18.820  0.00  0.00    +0.000 N 
ATOM      5  H   UNL     1       9.101   7.992  19.673  0.00  0.00    +0.000 HD
BRANCH   4   6
ATOM      6  N   UNL     1       8.958   9.541  18.307  0.00  0.00    +0.000 N 
ATOM      7  C   UNL     1       9.271  10.536  19.218  0.00  0.00    +0.000 C 
ATOM      8  O   UNL     1       9.283  10.332  20.430  0.00  0.00    +0.000 OA
ATOM      9  H   UNL     1       9.097   9.607  17.300  0.00  0.00    +0.000 HD
BRANCH   7  10
ATOM     10  C   UNL     1       9.615  11.883  18.682  0.00  0.00    +0.000 A 
ATOM     11  C   UNL     1      10.531  12.060  17.644  0.00  0.00    +0.000 A 
ATOM     12  C   UNL     1      10.752  13.351  17.189  0.00  0.00    +0.000 A 
ATOM     13  N   UNL     1      10.139  14.442  17.692  0.00  0.00    +0.000 NA
ATOM     14  C   UNL     1       9.246  14.243  18.684  0.00  0.00    +0.000 A 
ATOM     15  C   UNL     1       8.948  12.994  19.204  0.00  0.00    +0.000 A 
ENDBRANCH   7  10
ENDBRANCH   4   6
ENDBRANCH   1   3
BRANCH   1  16
ATOM     16  S   UNL     1       6.621   4.953  17.590  0.00  0.00    +0.000 S 
BRANCH  16  17
ATOM     17  C   UNL     1       5.010   5.266  18.168  0.00  0.00    +0.000 A 
ATOM     18  N   UNL     1       4.143   4.360  18.574  0.00  0.00    +0.000 NA
ATOM     19  N   UNL     1       2.995   5.050  18.942  0.00  0.00    +0.000 NA
ATOM     20  C   UNL     1       3.236   6.330  18.735  0.00  0.00    +0.000 A 
ATOM     21  O   UNL     1       4.501   6.542  18.246  0.00  0.00    +0.000 OA
BRANCH  20  22
ATOM     22  C   UNL     1       2.375   7.498  18.931  0.00  0.00    +0.000 A 
ATOM     23  C   UNL     1       2.053   8.323  17.840  0.00  0.00    +0.000 A 
ATOM     24  C   UNL     1       1.240   9.457  17.992  0.00  0.00    +0.000 A 
ATOM     25  C   UNL     1       0.742   9.772  19.250  0.00  0.00    +0.000 A 
ATOM     26  C   UNL     1       1.039   8.974  20.347  0.00  0.00    +0.000 A 
ATOM     27  C   UNL     1       1.852   7.844  20.189  0.00  0.00    +0.000 A 
BRANCH  25  28
ATOM     28  O   UNL     1      -0.046  10.863  19.451  0.00  0.00    +0.000 OA
ATOM     29  H   UNL     1      -0.525  11.070  18.632  0.00  0.00    +0.000 HD
ENDBRANCH  25  28
ENDBRANCH  20  22
ENDBRANCH  16  17
ENDBRANCH   1  16
TORSDOF 7
ENDMDL
MODEL 2
REMARK VINA RESULT:      -7.7      0.527      1.037
REMARK  Name = 
REMARK  7 active torsions:
REMARK  status: ('A' for Active; 'I' for Inactive)
REMARK    1  A    between atoms: C_2  and  C_3
REMARK    2  A    between atoms: C_3  and  S_4
REMARK    3  A    between atoms: S_4  and  C_5
REMARK    4  A    between atoms: C_8  and  C_9
REMARK    5  A    between atoms: C_12  and  O_13
REMARK    6  A    between atoms: N_17  and  N_18
REMARK    7  A    between atoms: C_19  and  C_21
REMARK                            x       y       z     vdW  Elec       q    Type
REMARK                         _______ _______ _______ _____ _____    ______ ____
ROOT
ATOM      1  C   UNL     1       7.425   5.792  18.565  0.00  0.00    +0.000 C 
ENDROOT
BRANCH   1   3
ATOM      2  O   UNL     1       7.245   7.418  16.771  0.00  0.00    +0.000 OA
ATOM      3  C   UNL     1       7.695   7.140  17.884  0.00  0.00    +0.000 C 
ATOM      4  N   UNL     1       8.388   8.069  18.643  0.00  0.00    +0.000 N 
ATOM      5  H   UNL     1       8.893   7.810  19.491  0.00  0.00    +0.000 HD
BRANCH   4   6
ATOM      6  N   UNL     1       8.706   9.324  18.091  0.00  0.00    +0.000 N 
ATOM      7  C   UNL     1       9.245  10.276  18.941  0.00  0.00    +0.000 C 
ATOM      8  O   UNL     1       9.467  10.044  20.127  0.00  0.00    +0.000 OA
ATOM      9  H   UNL     1       8.663   9.405  17.077  0.00  0.00    +0.000 HD
BRANCH   7  10
ATOM     10  C   UNL     1       9.569  11.612  18.367  0.00  0.00    +0.000 A 
ATOM     11  C   UNL     1       8.728  12.715  18.522  0.00  0.00    +0.000 A 
ATOM     12  C   UNL     1       9.139  13.925  17.985  0.00  0.00    +0.000 A 
ATOM     13  N   UNL     1      10.300  14.097  17.318  0.00  0.00    +0.000 NA
ATOM     14  C   UNL     1      11.103  13.019  17.195  0.00  0.00    +0.000 A 
ATOM     15  C   UNL     1      10.788  11.770  17.702  0.00  0.00    +0.000 A 
ENDBRANCH   7  10
ENDBRANCH   4   6
ENDBRANCH   1   3
BRANCH   1  16
ATOM     16  S   UNL     1       6.112   4.853  17.725  0.00  0.00    +0.000 S 
BRANCH  16  17
ATOM     17  C   UNL     1       4.675   5.359  18.566  0.00  0.00    +0.000 A 
ATOM     18  N   UNL     1       4.016   4.657  19.465  0.00  0.00    +0.000 NA
ATOM     19  N   UNL     1       2.942   5.440  19.868  0.00  0.00    +0.000 NA
ATOM     20  C   UNL     1       3.017   6.568  19.188  0.00  0.00    +0.000 A 
ATOM     21  O   UNL     1       4.097   6.588  18.343  0.00  0.00    +0.000 OA
BRANCH  20  22
ATOM     22  C   UNL     1       2.137   7.740  19.199  0.00  0.00    +0.000 A 
ATOM     23  C   UNL     1       1.889   8.442  18.007  0.00  0.00    +0.000 A 
ATOM     24  C   UNL     1       1.061   9.574  17.982  0.00  0.00    +0.000 A 
ATOM     25  C   UNL     1       0.473  10.012  19.162  0.00  0.00    +0.000 A 
ATOM     26  C   UNL     1       0.695   9.337  20.354  0.00  0.00    +0.000 A 
ATOM     27  C   UNL     1       1.524   8.207  20.374  0.00  0.00    +0.000 A 
BRANCH  25  28
ATOM     28  O   UNL     1      -0.334  11.108  19.192  0.00  0.00    +0.000 OA
ATOM     29  H   UNL     1      -1.227  10.858  18.901  0.00  0.00    +0.000 HD
ENDBRANCH  25  28
ENDBRANCH  20  22
ENDBRANCH  16  17
ENDBRANCH   1  16
TORSDOF 7
ENDMDL
MODEL 3
REMARK VINA RESULT:      -7.5      3.097      3.611
REMARK  Name = 
REMARK  7 active torsions:
REMARK  status: ('A' for Active; 'I' for Inactive)
REMARK    1  A    between atoms: C_2  and  C_3
REMARK    2  A    between atoms: C_3  and  S_4
REMARK    3  A    between atoms: S_4  and  C_5
REMARK    4  A    between atoms: C_8  and  C_9
REMARK    5  A    between atoms: C_12  and  O_13
REMARK    6  A    between atoms: N_17  and  N_18
REMARK    7  A    between atoms: C_19  and  C_21
REMARK                            x       y       z     vdW  Elec       q    Type
REMARK                         _______ _______ _______ _____ _____    ______ ____
ROOT
ATOM      1  C   UNL     1       7.516   6.425  18.392  0.00  0.00    +0.000 C 
ENDROOT
BRANCH   1   3
ATOM      2  O   UNL     1       7.303   8.418  17.022  0.00  0.00    +0.000 OA
ATOM      3  C   UNL     1       7.843   7.867  17.982  0.00  0.00    +0.000 C 
ATOM      4  N   UNL     1       8.704   8.552  18.826  0.00  0.00    +0.000 N 
ATOM      5  H   UNL     1       9.270   8.074  19.527  0.00  0.00    +0.000 HD
BRANCH   4   6
ATOM      6  N   UNL     1       9.083   9.870  18.516  0.00  0.00    +0.000 N 
ATOM      7  C   UNL     1       9.367  10.718  19.573  0.00  0.00    +0.000 C 
ATOM      8  O   UNL     1       9.320  10.343  20.743  0.00  0.00    +0.000 OA
ATOM      9  H   UNL     1       9.271  10.077  17.536  0.00  0.00    +0.000 HD
BRANCH   7  10
ATOM     10  C   UNL     1       9.754  12.121  19.253  0.00  0.00    +0.000 A 
ATOM     11  C   UNL     1       9.390  12.739  18.055  0.00  0.00    +0.000 A 
ATOM     12  C   UNL     1       9.764  14.061  17.869  0.00  0.00    +0.000 A 
ATOM     13  N   UNL     1      10.461  14.781  18.772  0.00  0.00    +0.000 NA
ATOM     14  C   UNL     1      10.787  14.165  19.929  0.00  0.00    +0.000 A 
ATOM     15  C   UNL     1      10.455  12.852  20.215  0.00  0.00    +0.000 A 
ENDBRANCH   7  10
ENDBRANCH   4   6
ENDBRANCH   1   3
BRANCH   1  16
ATOM     16  S   UNL     1       7.351   5.327  16.951  0.00  0.00    +0.000 S 
BRANCH  16  17
ATOM     17  C   UNL     1       5.783   4.611  17.187  0.00  0.00    +0.000 A 
ATOM     18  N   UNL     1       4.948   4.242  16.237  0.00  0.00    +0.000 NA
ATOM     19  N   UNL     1       3.827   3.726  16.874  0.00  0.00    +0.000 NA
ATOM     20  C   UNL     1       4.051   3.814  18.171  0.00  0.00    +0.000 A 
ATOM     21  O   UNL     1       5.279   4.364  18.444  0.00  0.00    +0.000 OA
BRANCH  20  22
ATOM     22  C   UNL     1       3.204   3.438  19.305  0.00  0.00    +0.000 A 
ATOM     23  C   UNL     1       1.879   3.902  19.375  0.00  0.00    +0.000 A 
ATOM     24  C   UNL     1       1.043   3.571  20.452  0.00  0.00    +0.000 A 
ATOM     25  C   UNL     1       1.534   2.766  21.473  0.00  0.00    +0.000 A 
ATOM     26  C   UNL     1       2.837   2.289  21.429  0.00  0.00    +0.000 A 
ATOM     27  C   UNL     1       3.668   2.623  20.352  0.00  0.00    +0.000 A 
BRANCH  25  28
ATOM     28  O   UNL     1       0.765   2.421  22.541  0.00  0.00    +0.000 OA
ATOM     29  H   UNL     1       0.920   3.049  23.266  0.00  0.00    +0.000 HD
ENDBRANCH  25  28
ENDBRANCH  20  22
ENDBRANCH  16  17
ENDBRANCH   1  16
TORSDOF 7
ENDMDL
MODEL 4
REMARK VINA RESULT:      -7.5      1.635      2.063
REMARK  Name = 
REMARK  7 active torsions:
REMARK  status: ('A' for Active; 'I' for Inactive)
REMARK    1  A    between atoms: C_2  and  C_3
REMARK    2  A    between atoms: C_3  and  S_4
REMARK    3  A    between atoms: S_4  and  C_5
REMARK    4  A    between atoms: C_8  and  C_9
REMARK    5  A    between atoms: C_12  and  O_13
REMARK    6  A    between atoms: N_17  and  N_18
REMARK    7  A    between atoms: C_19  and  C_21
REMARK                            x       y       z     vdW  Elec       q    Type
REMARK                         _______ _______ _______ _____ _____    ______ ____
ROOT
ATOM      1  C   UNL     1       6.845   4.913  17.755  0.00  0.00    +0.000 C 
ENDROOT
BRANCH   1   3
ATOM      2  O   UNL     1       8.257   5.527  19.632  0.00  0.00    +0.000 OA
ATOM      3  C   UNL     1       7.705   5.874  18.586  0.00  0.00    +0.000 C 
ATOM      4  N   UNL     1       7.913   7.127  18.032  0.00  0.00    +0.000 N 
ATOM      5  H   UNL     1       7.349   7.478  17.258  0.00  0.00    +0.000 HD
BRANCH   4   6
ATOM      6  N   UNL     1       8.665   8.085  18.736  0.00  0.00    +0.000 N 
ATOM      7  C   UNL     1       8.531   9.409  18.353  0.00  0.00    +0.000 C 
ATOM      8  O   UNL     1       7.769   9.756  17.453  0.00  0.00    +0.000 OA
ATOM      9  H   UNL     1       9.145   7.768  19.576  0.00  0.00    +0.000 HD
BRANCH   7  10
ATOM     10  C   UNL     1       9.337  10.427  19.083  0.00  0.00    +0.000 A 
ATOM     11  C   UNL     1       9.163  10.680  20.444  0.00  0.00    +0.000 A 
ATOM     12  C   UNL     1       9.991  11.618  21.041  0.00  0.00    +0.000 A 
ATOM     13  N   UNL     1      10.949  12.303  20.383  0.00  0.00    +0.000 NA
ATOM     14  C   UNL     1      11.109  12.029  19.071  0.00  0.00    +0.000 A 
ATOM     15  C   UNL     1      10.339  11.106  18.384  0.00  0.00    +0.000 A 
ENDBRANCH   7  10
ENDBRANCH   4   6
ENDBRANCH   1   3
BRANCH   1  16
ATOM     16  S   UNL     1       5.841   5.793  16.518  0.00  0.00    +0.000 S 
BRANCH  16  17
ATOM     17  C   UNL     1       4.326   6.025  17.342  0.00  0.00    +0.000 A 
ATOM     18  N   UNL     1       3.466   5.080  17.663  0.00  0.00    +0.000 NA
ATOM     19  N   UNL     1       2.406   5.711  18.301  0.00  0.00    +0.000 NA
ATOM     20  C   UNL     1       2.689   7.000  18.326  0.00  0.00    +0.000 A 
ATOM     21  O   UNL     1       3.898   7.272  17.736  0.00  0.00    +0.000 OA
BRANCH  20  22
ATOM     22  C   UNL     1       1.919   8.127  18.857  0.00  0.00    +0.000 A 
ATOM     23  C   UNL     1       1.597   9.211  18.022  0.00  0.00    +0.000 A 
ATOM     24  C   UNL     1       0.871  10.313  18.500  0.00  0.00    +0.000 A 
ATOM     25  C   UNL     1       0.460  10.333  19.827  0.00  0.00    +0.000 A 
ATOM     26  C   UNL     1       0.758   9.275  20.673  0.00  0.00    +0.000 A 
ATOM     27  C   UNL     1       1.485   8.178  20.192  0.00  0.00    +0.000 A 
BRANCH  25  28
ATOM     28  O   UNL     1      -0.243  11.381  20.339  0.00  0.00    +0.000 OA
ATOM     29  H   UNL     1       0.183  11.683  21.159  0.00  0.00    +0.000 HD
ENDBRANCH  25  28
ENDBRANCH  20  22
ENDBRANCH  16  17
ENDBRANCH   1  16
TORSDOF 7
ENDMDL
MODEL 5
REMARK VINA RESULT:      -7.5      2.767      9.386
REMARK  Name = 
REMARK  7 active torsions:
REMARK  status: ('A' for Active; 'I' for Inactive)
REMARK    1  A    between atoms: C_2  and  C_3
REMARK    2  A    between atoms: C_3  and  S_4
REMARK    3  A    between atoms: S_4  and  C_5
REMARK    4  A    between atoms: C_8  and  C_9
REMARK    5  A    between atoms: C_12  and  O_13
REMARK    6  A    between atoms: N_17  and  N_18
REMARK    7  A    between atoms: C_19  and  C_21
REMARK                            x       y       z     vdW  Elec       q    Type
REMARK                         _______ _______ _______ _____ _____    ______ ____
ROOT
ATOM      1  C   UNL     1       8.214   6.958  18.477  0.00  0.00    +0.000 C 
ENDROOT
BRANCH   1   3
ATOM      2  O   UNL     1       7.124   5.375  19.960  0.00  0.00    +0.000 OA
ATOM      3  C   UNL     1       7.121   5.957  18.875  0.00  0.00    +0.000 C 
ATOM      4  N   UNL     1       6.069   5.829  17.982  0.00  0.00    +0.000 N 
ATOM      5  H   UNL     1       6.123   6.180  17.026  0.00  0.00    +0.000 HD
BRANCH   4   6
ATOM      6  N   UNL     1       5.034   4.914  18.249  0.00  0.00    +0.000 N 
ATOM      7  C   UNL     1       3.776   5.431  18.510  0.00  0.00    +0.000 C 
ATOM      8  O   UNL     1       3.548   6.639  18.487  0.00  0.00    +0.000 OA
ATOM      9  H   UNL     1       5.237   3.929  18.087  0.00  0.00    +0.000 HD
BRANCH   7  10
ATOM     10  C   UNL     1       2.680   4.469  18.809  0.00  0.00    +0.000 A 
ATOM     11  C   UNL     1       2.465   3.322  18.043  0.00  0.00    +0.000 A 
ATOM     12  C   UNL     1       1.443   2.467  18.428  0.00  0.00    +0.000 A 
ATOM     13  N   UNL     1       0.644   2.682  19.494  0.00  0.00    +0.000 NA
ATOM     14  C   UNL     1       0.882   3.789  20.228  0.00  0.00    +0.000 A 
ATOM     15  C   UNL     1       1.881   4.701  19.932  0.00  0.00    +0.000 A 
ENDBRANCH   7  10
ENDBRANCH   4   6
ENDBRANCH   1   3
BRANCH   1  16
ATOM     16  S   UNL     1       7.525   8.430  17.659  0.00  0.00    +0.000 S 
BRANCH  16  17
ATOM     17  C   UNL     1       8.538   9.714  18.254  0.00  0.00    +0.000 A 
ATOM     18  N   UNL     1       9.238   9.695  19.370  0.00  0.00    +0.000 NA
ATOM     19  N   UNL     1       9.890  10.919  19.448  0.00  0.00    +0.000 NA
ATOM     20  C   UNL     1       9.544  11.604  18.375  0.00  0.00    +0.000 A 
ATOM     21  O   UNL     1       8.688  10.898  17.569  0.00  0.00    +0.000 OA
BRANCH  20  22
ATOM     22  C   UNL     1       9.917  12.957  17.956  0.00  0.00    +0.000 A 
ATOM     23  C   UNL     1       9.080  14.043  18.264  0.00  0.00    +0.000 A 
ATOM     24  C   UNL     1       9.400  15.351  17.869  0.00  0.00    +0.000 A 
ATOM     25  C   UNL     1      10.571  15.579  17.157  0.00  0.00    +0.000 A 
ATOM     26  C   UNL     1      11.421  14.527  16.843  0.00  0.00    +0.000 A 
ATOM     27  C   UNL     1      11.096  13.223  17.239  0.00  0.00    +0.000 A 
BRANCH  25  28
ATOM     28  O   UNL     1      10.924  16.828  16.747  0.00  0.00    +0.000 OA
ATOM     29  H   UNL     1      11.878  16.847  16.561  0.00  0.00    +0.000 HD
ENDBRANCH  25  28
ENDBRANCH  20  22
ENDBRANCH  16  17
ENDBRANCH   1  16
TORSDOF 7
ENDMDL
MODEL 6
REMARK VINA RESULT:      -7.5      2.122      7.923
REMARK  Name = 
REMARK  7 active torsions:
REMARK  status: ('A' for Active; 'I' for Inactive)
REMARK    1  A    between atoms: C_2  and  C_3
REMARK    2  A    between atoms: C_3  and  S_4
REMARK    3  A    between atoms: S_4  and  C_5
REMARK    4  A    between atoms: C_8  and  C_9
REMARK    5  A    between atoms: C_12  and  O_13
REMARK    6  A    between atoms: N_17  and  N_18
REMARK    7  A    between atoms: C_19  and  C_21
REMARK                            x       y       z     vdW  Elec       q    Type
REMARK                         _______ _______ _______ _____ _____    ______ ____
ROOT
ATOM      1  C   UNL     1       5.852   4.945  17.718  0.00  0.00    +0.000 C 
ENDROOT
BRANCH   1   3
ATOM      2  O   UNL     1       4.630   5.360  19.774  0.00  0.00    +0.000 OA
ATOM      3  C   UNL     1       4.746   5.584  18.568  0.00  0.00    +0.000 C 
ATOM      4  N   UNL     1       3.951   6.515  17.919  0.00  0.00    +0.000 N 
ATOM      5  H   UNL     1       3.933   6.598  16.903  0.00  0.00    +0.000 HD
BRANCH   4   6
ATOM      6  N   UNL     1       2.893   7.133  18.611  0.00  0.00    +0.000 N 
ATOM      7  C   UNL     1       2.409   8.327  18.102  0.00  0.00    +0.000 C 
ATOM      8  O   UNL     1       2.855   8.828  17.073  0.00  0.00    +0.000 OA
ATOM      9  H   UNL     1       2.451   6.593  19.353  0.00  0.00    +0.000 HD
BRANCH   7  10
ATOM     10  C   UNL     1       1.300   8.995  18.839  0.00  0.00    +0.000 A 
ATOM     11  C   UNL     1       1.207   8.968  20.231  0.00  0.00    +0.000 A 
ATOM     12  C   UNL     1       0.160   9.655  20.825  0.00  0.00    +0.000 A 
ATOM     13  N   UNL     1      -0.776  10.341  20.136  0.00  0.00    +0.000 NA
ATOM     14  C   UNL     1      -0.656  10.365  18.792  0.00  0.00    +0.000 A 
ATOM     15  C   UNL     1       0.357   9.719  18.105  0.00  0.00    +0.000 A 
ENDBRANCH   7  10
ENDBRANCH   4   6
ENDBRANCH   1   3
BRANCH   1  16
ATOM     16  S   UNL     1       7.512   5.327  18.356  0.00  0.00    +0.000 S 
BRANCH  16  17
ATOM     17  C   UNL     1       7.662   7.033  18.049  0.00  0.00    +0.000 A 
ATOM     18  N   UNL     1       6.979   7.724  17.159  0.00  0.00    +0.000 NA
ATOM     19  N   UNL     1       7.420   9.037  17.254  0.00  0.00    +0.000 NA
ATOM     20  C   UNL     1       8.344   9.061  18.196  0.00  0.00    +0.000 A 
ATOM     21  O   UNL     1       8.547   7.822  18.748  0.00  0.00    +0.000 OA
BRANCH  20  22
ATOM     22  C   UNL     1       9.154  10.174  18.697  0.00  0.00    +0.000 A 
ATOM     23  C   UNL     1       9.261  10.396  20.081  0.00  0.00    +0.000 A 
ATOM     24  C   UNL     1      10.019  11.458  20.597  0.00  0.00    +0.000 A 
ATOM     25  C   UNL     1      10.681  12.309  19.720  0.00  0.00    +0.000 A 
ATOM     26  C   UNL     1      10.599  12.112  18.349  0.00  0.00    +0.000 A 
ATOM     27  C   UNL     1       9.839  11.051  17.839  0.00  0.00    +0.000 A 
BRANCH  25  28
ATOM     28  O   UNL     1      11.425  13.356  20.170  0.00  0.00    +0.000 OA
ATOM     29  H   UNL     1      11.228  13.512  21.108  0.00  0.00    +0.000 HD
ENDBRANCH  25  28
ENDBRANCH  20  22
ENDBRANCH  16  17
ENDBRANCH   1  16
TORSDOF 7
ENDMDL
MODEL 7
REMARK VINA RESULT:      -7.4      1.624      1.920
REMARK  Name = 
REMARK  7 active torsions:
REMARK  status: ('A' for Active; 'I' for Inactive)
REMARK    1  A    between atoms: C_2  and  C_3
REMARK    2  A    between atoms: C_3  and  S_4
REMARK    3  A    between atoms: S_4  and  C_5
REMARK    4  A    between atoms: C_8  and  C_9
REMARK    5  A    between atoms: C_12  and  O_13
REMARK    6  A    between atoms: N_17  and  N_18
REMARK    7  A    between atoms: C_19  and  C_21
REMARK                            x       y       z     vdW  Elec       q    Type
REMARK                         _______ _______ _______ _____ _____    ______ ____
ROOT
ATOM      1  C   UNL     1       6.414   5.678  17.460  0.00  0.00    +0.000 C 
ENDROOT
BRANCH   1   3
ATOM      2  O   UNL     1       8.154   5.953  19.130  0.00  0.00    +0.000 OA
ATOM      3  C   UNL     1       7.472   6.466  18.243  0.00  0.00    +0.000 C 
ATOM      4  N   UNL     1       7.690   7.767  17.816  0.00  0.00    +0.000 N 
ATOM      5  H   UNL     1       7.040   8.250  17.196  0.00  0.00    +0.000 HD
BRANCH   4   6
ATOM      6  N   UNL     1       8.622   8.576  18.491  0.00  0.00    +0.000 N 
ATOM      7  C   UNL     1       8.604   9.934  18.217  0.00  0.00    +0.000 C 
ATOM      8  O   UNL     1       7.796  10.434  17.438  0.00  0.00    +0.000 OA
ATOM      9  H   UNL     1       9.148   8.141  19.246  0.00  0.00    +0.000 HD
BRANCH   7  10
ATOM     10  C   UNL     1       9.599  10.795  18.917  0.00  0.00    +0.000 A 
ATOM     11  C   UNL     1       9.494  11.102  20.274  0.00  0.00    +0.000 A 
ATOM     12  C   UNL     1      10.493  11.878  20.842  0.00  0.00    +0.000 A 
ATOM     13  N   UNL     1      11.554  12.356  20.160  0.00  0.00    +0.000 NA
ATOM     14  C   UNL     1      11.641  12.032  18.852  0.00  0.00    +0.000 A 
ATOM     15  C   UNL     1      10.701  11.257  18.194  0.00  0.00    +0.000 A 
ENDBRANCH   7  10
ENDBRANCH   4   6
ENDBRANCH   1   3
BRANCH   1  16
ATOM     16  S   UNL     1       5.715   4.314  18.441  0.00  0.00    +0.000 S 
BRANCH  16  17
ATOM     17  C   UNL     1       4.243   5.001  19.066  0.00  0.00    +0.000 A 
ATOM     18  N   UNL     1       3.338   4.370  19.786  0.00  0.00    +0.000 NA
ATOM     19  N   UNL     1       2.339   5.294  20.063  0.00  0.00    +0.000 NA
ATOM     20  C   UNL     1       2.699   6.427  19.492  0.00  0.00    +0.000 A 
ATOM     21  O   UNL     1       3.903   6.315  18.843  0.00  0.00    +0.000 OA
BRANCH  20  22
ATOM     22  C   UNL     1       2.016   7.722  19.445  0.00  0.00    +0.000 A 
ATOM     23  C   UNL     1       1.970   8.448  18.243  0.00  0.00    +0.000 A 
ATOM     24  C   UNL     1       1.334   9.696  18.163  0.00  0.00    +0.000 A 
ATOM     25  C   UNL     1       0.735  10.227  19.299  0.00  0.00    +0.000 A 
ATOM     26  C   UNL     1       0.759   9.531  20.500  0.00  0.00    +0.000 A 
ATOM     27  C   UNL     1       1.397   8.286  20.573  0.00  0.00    +0.000 A 
BRANCH  25  28
ATOM     28  O   UNL     1       0.109  11.436  19.275  0.00  0.00    +0.000 OA
ATOM     29  H   UNL     1      -0.723  11.377  19.773  0.00  0.00    +0.000 HD
ENDBRANCH  25  28
ENDBRANCH  20  22
ENDBRANCH  16  17
ENDBRANCH   1  16
TORSDOF 7
ENDMDL
MODEL 8
REMARK VINA RESULT:      -7.4      1.605      2.157
REMARK  Name = 
REMARK  7 active torsions:
REMARK  status: ('A' for Active; 'I' for Inactive)
REMARK    1  A    between atoms: C_2  and  C_3
REMARK    2  A    between atoms: C_3  and  S_4
REMARK    3  A    between atoms: S_4  and  C_5
REMARK    4  A    between atoms: C_8  and  C_9
REMARK    5  A    between atoms: C_12  and  O_13
REMARK    6  A    between atoms: N_17  and  N_18
REMARK    7  A    between atoms: C_19  and  C_21
REMARK                            x       y       z     vdW  Elec       q    Type
REMARK                         _______ _______ _______ _____ _____    ______ ____
ROOT
ATOM      1  C   UNL     1       6.384   6.060  16.679  0.00  0.00    +0.000 C 
ENDROOT
BRANCH   1   3
ATOM      2  O   UNL     1       7.955   6.091  18.530  0.00  0.00    +0.000 OA
ATOM      3  C   UNL     1       7.369   6.724  17.650  0.00  0.00    +0.000 C 
ATOM      4  N   UNL     1       7.643   8.061  17.408  0.00  0.00    +0.000 N 
ATOM      5  H   UNL     1       7.063   8.631  16.792  0.00  0.00    +0.000 HD
BRANCH   4   6
ATOM      6  N   UNL     1       8.513   8.761  18.264  0.00  0.00    +0.000 N 
ATOM      7  C   UNL     1       8.592  10.135  18.109  0.00  0.00    +0.000 C 
ATOM      8  O   UNL     1       7.915  10.739  17.280  0.00  0.00    +0.000 OA
ATOM      9  H   UNL     1       8.917   8.238  19.039  0.00  0.00    +0.000 HD
BRANCH   7  10
ATOM     10  C   UNL     1       9.523  10.881  19.000  0.00  0.00    +0.000 A 
ATOM     11  C   UNL     1       9.236  11.120  20.345  0.00  0.00    +0.000 A 
ATOM     12  C   UNL     1      10.186  11.788  21.102  0.00  0.00    +0.000 A 
ATOM     13  N   UNL     1      11.367  12.224  20.614  0.00  0.00    +0.000 NA
ATOM     14  C   UNL     1      11.627  11.967  19.315  0.00  0.00    +0.000 A 
ATOM     15  C   UNL     1      10.749  11.301  18.477  0.00  0.00    +0.000 A 
ENDBRANCH   7  10
ENDBRANCH   4   6
ENDBRANCH   1   3
BRANCH   1  16
ATOM     16  S   UNL     1       5.626   4.567  17.390  0.00  0.00    +0.000 S 
BRANCH  16  17
ATOM     17  C   UNL     1       4.399   5.216  18.439  0.00  0.00    +0.000 A 
ATOM     18  N   UNL     1       3.922   4.640  19.524  0.00  0.00    +0.000 NA
ATOM     19  N   UNL     1       2.967   5.505  20.043  0.00  0.00    +0.000 NA
ATOM     20  C   UNL     1       2.923   6.551  19.240  0.00  0.00    +0.000 A 
ATOM     21  O   UNL     1       3.810   6.437  18.200  0.00  0.00    +0.000 OA
BRANCH  20  22
ATOM     22  C   UNL     1       2.086   7.752  19.296  0.00  0.00    +0.000 A 
ATOM     23  C   UNL     1       1.454   8.111  20.499  0.00  0.00    +0.000 A 
ATOM     24  C   UNL     1       0.636   9.248  20.587  0.00  0.00    +0.000 A 
ATOM     25  C   UNL     1       0.447  10.037  19.459  0.00  0.00    +0.000 A 
ATOM     26  C   UNL     1       1.062   9.711  18.258  0.00  0.00    +0.000 A 
ATOM     27  C   UNL     1       1.877   8.574  18.176  0.00  0.00    +0.000 A 
BRANCH  25  28
ATOM     28  O   UNL     1      -0.340  11.147  19.491  0.00  0.00    +0.000 OA
ATOM     29  H   UNL     1      -0.982  11.066  20.215  0.00  0.00    +0.000 HD
ENDBRANCH  25  28
ENDBRANCH  20  22
ENDBRANCH  16  17
ENDBRANCH   1  16
TORSDOF 7
ENDMDL
MODEL 9
REMARK VINA RESULT:      -7.4      1.701      2.432
REMARK  Name = 
REMARK  7 active torsions:
REMARK  status: ('A' for Active; 'I' for Inactive)
REMARK    1  A    between atoms: C_2  and  C_3
REMARK    2  A    between atoms: C_3  and  S_4
REMARK    3  A    between atoms: S_4  and  C_5
REMARK    4  A    between atoms: C_8  and  C_9
REMARK    5  A    between atoms: C_12  and  O_13
REMARK    6  A    between atoms: N_17  and  N_18
REMARK    7  A    between atoms: C_19  and  C_21
REMARK                            x       y       z     vdW  Elec       q    Type
REMARK                         _______ _______ _______ _____ _____    ______ ____
ROOT
ATOM      1  C   UNL     1       6.481   4.432  18.327  0.00  0.00    +0.000 C 
ENDROOT
BRANCH   1   3
ATOM      2  O   UNL     1       7.428   5.642  20.206  0.00  0.00    +0.000 OA
ATOM      3  C   UNL     1       7.210   5.605  18.995  0.00  0.00    +0.000 C 
ATOM      4  N   UNL     1       7.704   6.573  18.135  0.00  0.00    +0.000 N 
ATOM      5  H   UNL     1       7.406   6.638  17.162  0.00  0.00    +0.000 HD
BRANCH   4   6
ATOM      6  N   UNL     1       8.362   7.701  18.658  0.00  0.00    +0.000 N 
ATOM      7  C   UNL     1       8.116   8.922  18.052  0.00  0.00    +0.000 C 
ATOM      8  O   UNL     1       7.335   9.039  17.110  0.00  0.00    +0.000 OA
ATOM      9  H   UNL     1       8.860   7.577  19.538  0.00  0.00    +0.000 HD
BRANCH   7  10
ATOM     10  C   UNL     1       8.822  10.118  18.590  0.00  0.00    +0.000 A 
ATOM     11  C   UNL     1       9.039  11.264  17.823  0.00  0.00    +0.000 A 
ATOM     12  C   UNL     1       9.669  12.339  18.429  0.00  0.00    +0.000 A 
ATOM     13  N   UNL     1      10.089  12.342  19.711  0.00  0.00    +0.000 NA
ATOM     14  C   UNL     1       9.853  11.228  20.437  0.00  0.00    +0.000 A 
ATOM     15  C   UNL     1       9.224  10.104  19.928  0.00  0.00    +0.000 A 
ENDBRANCH   7  10
ENDBRANCH   4   6
ENDBRANCH   1   3
BRANCH   1  16
ATOM     16  S   UNL     1       4.752   4.300  18.878  0.00  0.00    +0.000 S 
BRANCH  16  17
ATOM     17  C   UNL     1       4.071   5.824  18.387  0.00  0.00    +0.000 A 
ATOM     18  N   UNL     1       4.424   6.526  17.329  0.00  0.00    +0.000 NA
ATOM     19  N   UNL     1       3.627   7.664  17.326  0.00  0.00    +0.000 NA
ATOM     20  C   UNL     1       2.841   7.581  18.382  0.00  0.00    +0.000 A 
ATOM     21  O   UNL     1       3.066   6.434  19.102  0.00  0.00    +0.000 OA
BRANCH  20  22
ATOM     22  C   UNL     1       1.821   8.509  18.877  0.00  0.00    +0.000 A 
ATOM     23  C   UNL     1       1.477   8.511  20.240  0.00  0.00    +0.000 A 
ATOM     24  C   UNL     1       0.497   9.378  20.747  0.00  0.00    +0.000 A 
ATOM     25  C   UNL     1      -0.147  10.255  19.884  0.00  0.00    +0.000 A 
ATOM     26  C   UNL     1       0.175  10.280  18.534  0.00  0.00    +0.000 A 
ATOM     27  C   UNL     1       1.153   9.411  18.032  0.00  0.00    +0.000 A 
BRANCH  25  28
ATOM     28  O   UNL     1      -1.108  11.112  20.325  0.00  0.00    +0.000 OA
ATOM     29  H   UNL     1      -1.984  10.757  20.101  0.00  0.00    +0.000 HD
ENDBRANCH  25  28
ENDBRANCH  20  22
ENDBRANCH  16  17
ENDBRANCH   1  16
TORSDOF 7
ENDMDL
