MODEL 1
REMARK VINA RESULT:      -8.8      0.000      0.000
REMARK  Name = 
REMARK  4 active torsions:
REMARK  status: ('A' for Active; 'I' for Inactive)
REMARK    1  A    between atoms: C_2  and  O_3
REMARK    2  A    between atoms: C_2  and  C_4
REMARK    3  A    between atoms: C_7  and  C_8
REMARK    4  A    between atoms: C_14  and  C_15
REMARK                            x       y       z     vdW  Elec       q    Type
REMARK                         _______ _______ _______ _____ _____    ______ ____
ROOT
ATOM      1  C   UNL     1       5.758   5.010  17.699  0.00  0.00    +0.000 A 
ATOM      2  C   UNL     1       6.715   5.868  18.218  0.00  0.00    +0.000 A 
ATOM      3  N   UNL     1       7.600   6.189  17.220  0.00  0.00    +0.000 N 
ATOM      4  C   UNL     1       7.234   5.559  16.064  0.00  0.00    +0.000 A 
ATOM      5  N   UNL     1       7.888   5.688  14.898  0.00  0.00    +0.000 NA
ATOM      6  C   UNL     1       7.315   4.975  13.893  0.00  0.00    +0.000 A 
ATOM      7  C   UNL     1       6.179   4.159  13.972  0.00  0.00    +0.000 A 
ATOM      8  C   UNL     1       5.562   4.084  15.233  0.00  0.00    +0.000 A 
ATOM      9  C   UNL     1       6.096   4.806  16.320  0.00  0.00    +0.000 A 
ATOM     10  H   UNL     1       8.397   6.801  17.293  0.00  0.00    +0.000 HD
ENDROOT
BRANCH   1  14
ATOM     11  C   UNL     1       2.520   3.463  20.035  0.00  0.00    +0.000 A 
ATOM     12  C   UNL     1       2.970   4.770  20.237  0.00  0.00    +0.000 A 
ATOM     13  C   UNL     1       4.014   5.283  19.455  0.00  0.00    +0.000 A 
ATOM     14  C   UNL     1       4.648   4.486  18.490  0.00  0.00    +0.000 A 
ATOM     15  C   UNL     1       4.200   3.171  18.309  0.00  0.00    +0.000 A 
ATOM     16  C   UNL     1       3.141   2.678  19.070  0.00  0.00    +0.000 A 
ATOM     17  F   UNL     1       2.717   1.425  18.840  0.00  0.00    +0.000 F 
BRANCH  11  19
ATOM     18  O   UNL     1       1.551   2.677  22.044  0.00  0.00    +0.000 OA
ATOM     19  C   UNL     1       1.404   2.958  20.866  0.00  0.00    +0.000 C 
BRANCH  19  20
ATOM     20  O   UNL     1       0.211   2.891  20.241  0.00  0.00    +0.000 OA
ATOM     21  H   UNL     1      -0.114   3.734  19.865  0.00  0.00    +0.000 HD
ENDBRANCH  19  20
ENDBRANCH  11  19
ENDBRANCH   1  14
BRANCH   7  22
ATOM     22  C   UNL     1       5.646   3.430  12.798  0.00  0.00    +0.000 A 
ATOM     23  C   UNL     1       4.422   3.786  12.199  0.00  0.00    +0.000 A 
ATOM     24  C   UNL     1       3.911   3.080  11.105  0.00  0.00    +0.000 A 
ATOM     25  C   UNL     1       4.620   2.010  10.570  0.00  0.00    +0.000 A 
ATOM     26  C   UNL     1       5.838   1.644  11.130  0.00  0.00    +0.000 A 
ATOM     27  C   UNL     1       6.340   2.342  12.234  0.00  0.00    +0.000 A 
ENDBRANCH   7  22
TORSDOF 4
ENDMDL
MODEL 2
REMARK VINA RESULT:      -8.7      0.962      1.353
REMARK  Name = 
REMARK  4 active torsions:
REMARK  status: ('A' for Active; 'I' for Inactive)
REMARK    1  A    between atoms: C_2  and  O_3
REMARK    2  A    between atoms: C_2  and  C_4
REMARK    3  A    between atoms: C_7  and  C_8
REMARK    4  A    between atoms: C_14  and  C_15
REMARK                            x       y       z     vdW  Elec       q    Type
REMARK                         _______ _______ _______ _____ _____    ______ ____
ROOT
ATOM      1  C   UNL     1       5.778   5.036  17.749  0.00  0.00    +0.000 A 
ATOM      2  C   UNL     1       6.739   5.891  18.264  0.00  0.00    +0.000 A 
ATOM      3  N   UNL     1       7.620   6.211  17.262  0.00  0.00    +0.000 N 
ATOM      4  C   UNL     1       7.247   5.582  16.108  0.00  0.00    +0.000 A 
ATOM      5  N   UNL     1       7.897   5.709  14.939  0.00  0.00    +0.000 NA
ATOM      6  C   UNL     1       7.317   4.998  13.937  0.00  0.00    +0.000 A 
ATOM      7  C   UNL     1       6.179   4.185  14.021  0.00  0.00    +0.000 A 
ATOM      8  C   UNL     1       5.568   4.111  15.285  0.00  0.00    +0.000 A 
ATOM      9  C   UNL     1       6.109   4.832  16.370  0.00  0.00    +0.000 A 
ATOM     10  H   UNL     1       8.419   6.820  17.332  0.00  0.00    +0.000 HD
ENDROOT
BRANCH   1  14
ATOM     11  C   UNL     1       2.511   3.515  20.063  0.00  0.00    +0.000 A 
ATOM     12  C   UNL     1       3.283   2.650  19.284  0.00  0.00    +0.000 A 
ATOM     13  C   UNL     1       4.366   3.145  18.547  0.00  0.00    +0.000 A 
ATOM     14  C   UNL     1       4.669   4.515  18.546  0.00  0.00    +0.000 A 
ATOM     15  C   UNL     1       3.878   5.376  19.316  0.00  0.00    +0.000 A 
ATOM     16  C   UNL     1       2.820   4.871  20.071  0.00  0.00    +0.000 A 
ATOM     17  F   UNL     1       2.109   5.723  20.826  0.00  0.00    +0.000 F 
BRANCH  11  19
ATOM     18  O   UNL     1       1.516   2.606  22.007  0.00  0.00    +0.000 OA
ATOM     19  C   UNL     1       1.385   2.957  20.845  0.00  0.00    +0.000 C 
BRANCH  19  20
ATOM     20  O   UNL     1       0.202   2.925  20.200  0.00  0.00    +0.000 OA
ATOM     21  H   UNL     1       0.143   3.484  19.399  0.00  0.00    +0.000 HD
ENDBRANCH  19  20
ENDBRANCH  11  19
ENDBRANCH   1  14
BRANCH   7  22
ATOM     22  C   UNL     1       5.638   3.458  12.849  0.00  0.00    +0.000 A 
ATOM     23  C   UNL     1       4.419   3.825  12.248  0.00  0.00    +0.000 A 
ATOM     24  C   UNL     1       3.900   3.121  11.156  0.00  0.00    +0.000 A 
ATOM     25  C   UNL     1       4.598   2.041  10.625  0.00  0.00    +0.000 A 
ATOM     26  C   UNL     1       5.812   1.664  11.188  0.00  0.00    +0.000 A 
ATOM     27  C   UNL     1       6.321   2.360  12.289  0.00  0.00    +0.000 A 
ENDBRANCH   7  22
TORSDOF 4
ENDMDL
MODEL 3
REMARK VINA RESULT:      -8.6      4.616      8.013
REMARK  Name = 
REMARK  4 active torsions:
REMARK  status: ('A' for Active; 'I' for Inactive)
REMARK    1  A    between atoms: C_2  and  O_3
REMARK    2  A    between atoms: C_2  and  C_4
REMARK    3  A    between atoms: C_7  and  C_8
REMARK    4  A    between atoms: C_14  and  C_15
REMARK                            x       y       z     vdW  Elec       q    Type
REMARK                         _______ _______ _______ _____ _____    ______ ____
ROOT
ATOM      1  C   UNL     1       4.551   4.006  18.151  0.00  0.00    +0.000 A 
ATOM      2  C   UNL     1       4.554   2.795  18.826  0.00  0.00    +0.000 A 
ATOM      3  N   UNL     1       3.719   2.897  19.910  0.00  0.00    +0.000 N 
ATOM      4  C   UNL     1       3.173   4.149  19.949  0.00  0.00    +0.000 A 
ATOM      5  N   UNL     1       2.296   4.557  20.881  0.00  0.00    +0.000 NA
ATOM      6  C   UNL     1       1.886   5.839  20.691  0.00  0.00    +0.000 A 
ATOM      7  C   UNL     1       2.289   6.716  19.675  0.00  0.00    +0.000 A 
ATOM      8  C   UNL     1       3.211   6.202  18.747  0.00  0.00    +0.000 A 
ATOM      9  C   UNL     1       3.672   4.875  18.877  0.00  0.00    +0.000 A 
ATOM     10  H   UNL     1       3.511   2.177  20.582  0.00  0.00    +0.000 HD
ENDROOT
BRANCH   1  14
ATOM     11  C   UNL     1       6.795   4.711  14.573  0.00  0.00    +0.000 A 
ATOM     12  C   UNL     1       7.382   4.922  15.824  0.00  0.00    +0.000 A 
ATOM     13  C   UNL     1       6.654   4.667  16.993  0.00  0.00    +0.000 A 
ATOM     14  C   UNL     1       5.320   4.238  16.931  0.00  0.00    +0.000 A 
ATOM     15  C   UNL     1       4.737   4.046  15.672  0.00  0.00    +0.000 A 
ATOM     16  C   UNL     1       5.476   4.272  14.513  0.00  0.00    +0.000 A 
ATOM     17  F   UNL     1       4.893   4.041  13.327  0.00  0.00    +0.000 F 
BRANCH  11  19
ATOM     18  O   UNL     1       7.349   4.429  12.291  0.00  0.00    +0.000 OA
ATOM     19  C   UNL     1       7.597   4.971  13.357  0.00  0.00    +0.000 C 
BRANCH  19  20
ATOM     20  O   UNL     1       8.572   5.890  13.500  0.00  0.00    +0.000 OA
ATOM     21  H   UNL     1       8.268   6.815  13.602  0.00  0.00    +0.000 HD
ENDBRANCH  19  20
ENDBRANCH  11  19
ENDBRANCH   1  14
BRANCH   7  22
ATOM     22  C   UNL     1       1.765   8.098  19.571  0.00  0.00    +0.000 A 
ATOM     23  C   UNL     1       1.140   8.737  20.658  0.00  0.00    +0.000 A 
ATOM     24  C   UNL     1       0.626  10.034  20.548  0.00  0.00    +0.000 A 
ATOM     25  C   UNL     1       0.741  10.732  19.351  0.00  0.00    +0.000 A 
ATOM     26  C   UNL     1       1.367  10.133  18.264  0.00  0.00    +0.000 A 
ATOM     27  C   UNL     1       1.867   8.831  18.372  0.00  0.00    +0.000 A 
ENDBRANCH   7  22
TORSDOF 4
ENDMDL
MODEL 4
REMARK VINA RESULT:      -8.5      0.797      1.266
REMARK  Name = 
REMARK  4 active torsions:
REMARK  status: ('A' for Active; 'I' for Inactive)
REMARK    1  A    between atoms: C_2  and  O_3
REMARK    2  A    between atoms: C_2  and  C_4
REMARK    3  A    between atoms: C_7  and  C_8
REMARK    4  A    between atoms: C_14  and  C_15
REMARK                            x       y       z     vdW  Elec       q    Type
REMARK                         _______ _______ _______ _____ _____    ______ ____
ROOT
ATOM      1  C   UNL     1       5.591   4.945  17.610  0.00  0.00    +0.000 A 
ATOM      2  C   UNL     1       6.528   5.806  18.159  0.00  0.00    +0.000 A 
ATOM      3  N   UNL     1       7.442   6.132  17.190  0.00  0.00    +0.000 N 
ATOM      4  C   UNL     1       7.115   5.501  16.022  0.00  0.00    +0.000 A 
ATOM      5  N   UNL     1       7.805   5.633  14.878  0.00  0.00    +0.000 NA
ATOM      6  C   UNL     1       7.266   4.919  13.855  0.00  0.00    +0.000 A 
ATOM      7  C   UNL     1       6.131   4.098  13.898  0.00  0.00    +0.000 A 
ATOM      8  C   UNL     1       5.475   4.020  15.139  0.00  0.00    +0.000 A 
ATOM      9  C   UNL     1       5.972   4.743  16.243  0.00  0.00    +0.000 A 
ATOM     10  H   UNL     1       8.234   6.746  17.287  0.00  0.00    +0.000 HD
ENDROOT
BRANCH   1  14
ATOM     11  C   UNL     1       2.274   3.414  19.844  0.00  0.00    +0.000 A 
ATOM     12  C   UNL     1       2.061   4.323  18.805  0.00  0.00    +0.000 A 
ATOM     13  C   UNL     1       3.145   4.804  18.059  0.00  0.00    +0.000 A 
ATOM     14  C   UNL     1       4.458   4.416  18.366  0.00  0.00    +0.000 A 
ATOM     15  C   UNL     1       4.661   3.518  19.421  0.00  0.00    +0.000 A 
ATOM     16  C   UNL     1       3.575   3.020  20.140  0.00  0.00    +0.000 A 
ATOM     17  F   UNL     1       3.808   2.133  21.119  0.00  0.00    +0.000 F 
BRANCH  11  19
ATOM     18  O   UNL     1       1.141   2.748  21.811  0.00  0.00    +0.000 OA
ATOM     19  C   UNL     1       1.106   2.911  20.601  0.00  0.00    +0.000 C 
BRANCH  19  20
ATOM     20  O   UNL     1      -0.007   2.708  19.868  0.00  0.00    +0.000 OA
ATOM     21  H   UNL     1      -0.661   2.093  20.257  0.00  0.00    +0.000 HD
ENDBRANCH  19  20
ENDBRANCH  11  19
ENDBRANCH   1  14
BRANCH   7  22
ATOM     22  C   UNL     1       5.637   3.368  12.707  0.00  0.00    +0.000 A 
ATOM     23  C   UNL     1       6.362   2.304  12.137  0.00  0.00    +0.000 A 
ATOM     24  C   UNL     1       5.903   1.633  10.999  0.00  0.00    +0.000 A 
ATOM     25  C   UNL     1       4.697   1.998  10.412  0.00  0.00    +0.000 A 
ATOM     26  C   UNL     1       3.951   3.034  10.960  0.00  0.00    +0.000 A 
ATOM     27  C   UNL     1       4.419   3.714  12.090  0.00  0.00    +0.000 A 
ENDBRANCH   7  22
TORSDOF 4
ENDMDL
MODEL 5
REMARK VINA RESULT:      -8.1      0.951      1.426
REMARK  Name = 
REMARK  4 active torsions:
REMARK  status: ('A' for Active; 'I' for Inactive)
REMARK    1  A    between atoms: C_2  and  O_3
REMARK    2  A    between atoms: C_2  and  C_4
REMARK    3  A    between atoms: C_7  and  C_8
REMARK    4  A    between atoms: C_14  and  C_15
REMARK                            x       y       z     vdW  Elec       q    Type
REMARK                         _______ _______ _______ _____ _____    ______ ____
ROOT
ATOM      1  C   UNL     1       5.636   4.929  17.572  0.00  0.00    +0.000 A 
ATOM      2  C   UNL     1       6.582   5.780  18.123  0.00  0.00    +0.000 A 
ATOM      3  N   UNL     1       7.499   6.098  17.153  0.00  0.00    +0.000 N 
ATOM      4  C   UNL     1       7.164   5.473  15.985  0.00  0.00    +0.000 A 
ATOM      5  N   UNL     1       7.855   5.600  14.840  0.00  0.00    +0.000 NA
ATOM      6  C   UNL     1       7.308   4.893  13.816  0.00  0.00    +0.000 A 
ATOM      7  C   UNL     1       6.165   4.084  13.859  0.00  0.00    +0.000 A 
ATOM      8  C   UNL     1       5.509   4.010  15.100  0.00  0.00    +0.000 A 
ATOM      9  C   UNL     1       6.015   4.727  16.205  0.00  0.00    +0.000 A 
ATOM     10  H   UNL     1       8.297   6.704  17.251  0.00  0.00    +0.000 HD
ENDROOT
BRANCH   1  14
ATOM     11  C   UNL     1       2.300   3.389  19.771  0.00  0.00    +0.000 A 
ATOM     12  C   UNL     1       3.604   3.103  20.182  0.00  0.00    +0.000 A 
ATOM     13  C   UNL     1       4.694   3.628  19.476  0.00  0.00    +0.000 A 
ATOM     14  C   UNL     1       4.498   4.411  18.328  0.00  0.00    +0.000 A 
ATOM     15  C   UNL     1       3.187   4.677  17.916  0.00  0.00    +0.000 A 
ATOM     16  C   UNL     1       2.106   4.176  18.641  0.00  0.00    +0.000 A 
ATOM     17  F   UNL     1       0.865   4.484  18.234  0.00  0.00    +0.000 F 
BRANCH  11  19
ATOM     18  O   UNL     1       1.209   2.736  21.766  0.00  0.00    +0.000 OA
ATOM     19  C   UNL     1       1.169   2.835  20.550  0.00  0.00    +0.000 C 
BRANCH  19  20
ATOM     20  O   UNL     1       0.081   2.509  19.825  0.00  0.00    +0.000 OA
ATOM     21  H   UNL     1       0.257   2.005  19.005  0.00  0.00    +0.000 HD
ENDBRANCH  19  20
ENDBRANCH  11  19
ENDBRANCH   1  14
BRANCH   7  22
ATOM     22  C   UNL     1       5.662   3.361  12.667  0.00  0.00    +0.000 A 
ATOM     23  C   UNL     1       6.387   2.307  12.080  0.00  0.00    +0.000 A 
ATOM     24  C   UNL     1       5.920   1.643  10.941  0.00  0.00    +0.000 A 
ATOM     25  C   UNL     1       4.706   2.005  10.370  0.00  0.00    +0.000 A 
ATOM     26  C   UNL     1       3.960   3.033  10.935  0.00  0.00    +0.000 A 
ATOM     27  C   UNL     1       4.436   3.705  12.066  0.00  0.00    +0.000 A 
ENDBRANCH   7  22
TORSDOF 4
ENDMDL
MODEL 6
REMARK VINA RESULT:      -8.0      4.692      8.224
REMARK  Name = 
REMARK  4 active torsions:
REMARK  status: ('A' for Active; 'I' for Inactive)
REMARK    1  A    between atoms: C_2  and  O_3
REMARK    2  A    between atoms: C_2  and  C_4
REMARK    3  A    between atoms: C_7  and  C_8
REMARK    4  A    between atoms: C_14  and  C_15
REMARK                            x       y       z     vdW  Elec       q    Type
REMARK                         _______ _______ _______ _____ _____    ______ ____
ROOT
ATOM      1  C   UNL     1       4.244   4.015  18.410  0.00  0.00    +0.000 A 
ATOM      2  C   UNL     1       4.175   2.761  18.998  0.00  0.00    +0.000 A 
ATOM      3  N   UNL     1       3.309   2.824  20.059  0.00  0.00    +0.000 N 
ATOM      4  C   UNL     1       2.813   4.092  20.170  0.00  0.00    +0.000 A 
ATOM      5  N   UNL     1       1.922   4.472  21.101  0.00  0.00    +0.000 NA
ATOM      6  C   UNL     1       1.572   5.781  20.989  0.00  0.00    +0.000 A 
ATOM      7  C   UNL     1       2.044   6.708  20.050  0.00  0.00    +0.000 A 
ATOM      8  C   UNL     1       2.975   6.220  19.118  0.00  0.00    +0.000 A 
ATOM      9  C   UNL     1       3.377   4.869  19.167  0.00  0.00    +0.000 A 
ATOM     10  H   UNL     1       3.048   2.068  20.673  0.00  0.00    +0.000 HD
ENDROOT
BRANCH   1  14
ATOM     11  C   UNL     1       6.664   4.826  14.972  0.00  0.00    +0.000 A 
ATOM     12  C   UNL     1       5.680   3.836  14.921  0.00  0.00    +0.000 A 
ATOM     13  C   UNL     1       4.873   3.588  16.038  0.00  0.00    +0.000 A 
ATOM     14  C   UNL     1       5.063   4.297  17.234  0.00  0.00    +0.000 A 
ATOM     15  C   UNL     1       6.064   5.275  17.280  0.00  0.00    +0.000 A 
ATOM     16  C   UNL     1       6.844   5.537  16.154  0.00  0.00    +0.000 A 
ATOM     17  F   UNL     1       7.767   6.508  16.227  0.00  0.00    +0.000 F 
BRANCH  11  19
ATOM     18  O   UNL     1       8.471   5.798  13.796  0.00  0.00    +0.000 OA
ATOM     19  C   UNL     1       7.488   5.075  13.768  0.00  0.00    +0.000 C 
BRANCH  19  20
ATOM     20  O   UNL     1       7.107   4.401  12.665  0.00  0.00    +0.000 OA
ATOM     21  H   UNL     1       7.732   3.714  12.355  0.00  0.00    +0.000 HD
ENDBRANCH  19  20
ENDBRANCH  11  19
ENDBRANCH   1  14
BRANCH   7  22
ATOM     22  C   UNL     1       1.581   8.115  20.027  0.00  0.00    +0.000 A 
ATOM     23  C   UNL     1       1.060   8.742  21.176  0.00  0.00    +0.000 A 
ATOM     24  C   UNL     1       0.602  10.064  21.143  0.00  0.00    +0.000 A 
ATOM     25  C   UNL     1       0.671  10.799  19.965  0.00  0.00    +0.000 A 
ATOM     26  C   UNL     1       1.194  10.212  18.818  0.00  0.00    +0.000 A 
ATOM     27  C   UNL     1       1.637   8.885  18.849  0.00  0.00    +0.000 A 
ENDBRANCH   7  22
TORSDOF 4
ENDMDL
MODEL 7
REMARK VINA RESULT:      -7.9      4.827      6.302
REMARK  Name = 
REMARK  4 active torsions:
REMARK  status: ('A' for Active; 'I' for Inactive)
REMARK    1  A    between atoms: C_2  and  O_3
REMARK    2  A    between atoms: C_2  and  C_4
REMARK    3  A    between atoms: C_7  and  C_8
REMARK    4  A    between atoms: C_14  and  C_15
REMARK                            x       y       z     vdW  Elec       q    Type
REMARK                         _______ _______ _______ _____ _____    ______ ____
ROOT
ATOM      1  C   UNL     1       2.173   6.542  19.781  0.00  0.00    +0.000 A 
ATOM      2  C   UNL     1       1.707   5.847  20.886  0.00  0.00    +0.000 A 
ATOM      3  N   UNL     1       2.249   4.587  20.868  0.00  0.00    +0.000 N 
ATOM      4  C   UNL     1       3.059   4.453  19.776  0.00  0.00    +0.000 A 
ATOM      5  N   UNL     1       3.753   3.340  19.488  0.00  0.00    +0.000 NA
ATOM      6  C   UNL     1       4.499   3.464  18.358  0.00  0.00    +0.000 A 
ATOM      7  C   UNL     1       4.586   4.582  17.518  0.00  0.00    +0.000 A 
ATOM      8  C   UNL     1       3.822   5.699  17.899  0.00  0.00    +0.000 A 
ATOM      9  C   UNL     1       3.033   5.645  19.066  0.00  0.00    +0.000 A 
ATOM     10  H   UNL     1       2.103   3.857  21.547  0.00  0.00    +0.000 HD
ENDROOT
BRANCH   1  14
ATOM     11  C   UNL     1       1.125  10.616  18.977  0.00  0.00    +0.000 A 
ATOM     12  C   UNL     1       1.769   9.850  18.001  0.00  0.00    +0.000 A 
ATOM     13  C   UNL     1       2.089   8.511  18.257  0.00  0.00    +0.000 A 
ATOM     14  C   UNL     1       1.808   7.929  19.502  0.00  0.00    +0.000 A 
ATOM     15  C   UNL     1       1.179   8.712  20.479  0.00  0.00    +0.000 A 
ATOM     16  C   UNL     1       0.836  10.035  20.207  0.00  0.00    +0.000 A 
ATOM     17  F   UNL     1       0.201  10.740  21.156  0.00  0.00    +0.000 F 
BRANCH  11  19
ATOM     18  O   UNL     1       1.558  12.940  18.895  0.00  0.00    +0.000 OA
ATOM     19  C   UNL     1       0.784  12.023  18.668  0.00  0.00    +0.000 C 
BRANCH  19  20
ATOM     20  O   UNL     1      -0.408  12.204  18.068  0.00  0.00    +0.000 OA
ATOM     21  H   UNL     1      -1.110  11.574  18.327  0.00  0.00    +0.000 HD
ENDBRANCH  19  20
ENDBRANCH  11  19
ENDBRANCH   1  14
BRANCH   7  22
ATOM     22  C   UNL     1       5.442   4.598  16.309  0.00  0.00    +0.000 A 
ATOM     23  C   UNL     1       6.738   5.147  16.326  0.00  0.00    +0.000 A 
ATOM     24  C   UNL     1       7.534   5.181  15.176  0.00  0.00    +0.000 A 
ATOM     25  C   UNL     1       7.060   4.649  13.982  0.00  0.00    +0.000 A 
ATOM     26  C   UNL     1       5.790   4.086  13.937  0.00  0.00    +0.000 A 
ATOM     27  C   UNL     1       4.990   4.067  15.085  0.00  0.00    +0.000 A 
ENDBRANCH   7  22
TORSDOF 4
ENDMDL
MODEL 8
REMARK VINA RESULT:      -7.8      4.517      5.988
REMARK  Name = 
REMARK  4 active torsions:
REMARK  status: ('A' for Active; 'I' for Inactive)
REMARK    1  A    between atoms: C_2  and  O_3
REMARK    2  A    between atoms: C_2  and  C_4
REMARK    3  A    between atoms: C_7  and  C_8
REMARK    4  A    between atoms: C_14  and  C_15
REMARK                            x       y       z     vdW  Elec       q    Type
REMARK                         _______ _______ _______ _____ _____    ______ ____
ROOT
ATOM      1  C   UNL     1       2.250   6.064  19.964  0.00  0.00    +0.000 A 
ATOM      2  C   UNL     1       1.811   5.281  21.020  0.00  0.00    +0.000 A 
ATOM      3  N   UNL     1       2.368   4.034  20.899  0.00  0.00    +0.000 N 
ATOM      4  C   UNL     1       3.162   3.993  19.787  0.00  0.00    +0.000 A 
ATOM      5  N   UNL     1       3.864   2.915  19.404  0.00  0.00    +0.000 NA
ATOM      6  C   UNL     1       4.590   3.134  18.276  0.00  0.00    +0.000 A 
ATOM      7  C   UNL     1       4.650   4.314  17.522  0.00  0.00    +0.000 A 
ATOM      8  C   UNL     1       3.879   5.389  17.999  0.00  0.00    +0.000 A 
ATOM      9  C   UNL     1       3.110   5.236  19.170  0.00  0.00    +0.000 A 
ATOM     10  H   UNL     1       2.241   3.252  21.522  0.00  0.00    +0.000 HD
ENDROOT
BRANCH   1  14
ATOM     11  C   UNL     1       1.094  10.157  19.464  0.00  0.00    +0.000 A 
ATOM     12  C   UNL     1       0.816   9.489  20.660  0.00  0.00    +0.000 A 
ATOM     13  C   UNL     1       1.216   8.158  20.831  0.00  0.00    +0.000 A 
ATOM     14  C   UNL     1       1.864   7.463  19.798  0.00  0.00    +0.000 A 
ATOM     15  C   UNL     1       2.122   8.137  18.598  0.00  0.00    +0.000 A 
ATOM     16  C   UNL     1       1.748   9.471  18.445  0.00  0.00    +0.000 A 
ATOM     17  F   UNL     1       2.046  10.093  17.294  0.00  0.00    +0.000 F 
BRANCH  11  19
ATOM     18  O   UNL     1       1.128  12.453  20.031  0.00  0.00    +0.000 OA
ATOM     19  C   UNL     1       0.674  11.569  19.322  0.00  0.00    +0.000 C 
BRANCH  19  20
ATOM     20  O   UNL     1      -0.193  11.810  18.319  0.00  0.00    +0.000 OA
ATOM     21  H   UNL     1      -1.056  11.355  18.390  0.00  0.00    +0.000 HD
ENDBRANCH  19  20
ENDBRANCH  11  19
ENDBRANCH   1  14
BRANCH   7  22
ATOM     22  C   UNL     1       5.486   4.433  16.305  0.00  0.00    +0.000 A 
ATOM     23  C   UNL     1       6.771   5.006  16.342  0.00  0.00    +0.000 A 
ATOM     24  C   UNL     1       7.548   5.138  15.186  0.00  0.00    +0.000 A 
ATOM     25  C   UNL     1       7.065   4.681  13.965  0.00  0.00    +0.000 A 
ATOM     26  C   UNL     1       5.806   4.097  13.898  0.00  0.00    +0.000 A 
ATOM     27  C   UNL     1       5.025   3.980  15.053  0.00  0.00    +0.000 A 
ENDBRANCH   7  22
TORSDOF 4
ENDMDL
MODEL 9
REMARK VINA RESULT:      -7.7      5.522      8.524
REMARK  Name = 
REMARK  4 active torsions:
REMARK  status: ('A' for Active; 'I' for Inactive)
REMARK    1  A    between atoms: C_2  and  O_3
REMARK    2  A    between atoms: C_2  and  C_4
REMARK    3  A    between atoms: C_7  and  C_8
REMARK    4  A    between atoms: C_14  and  C_15
REMARK                            x       y       z     vdW  Elec       q    Type
REMARK                         _______ _______ _______ _____ _____    ______ ____
ROOT
ATOM      1  C   UNL     1       2.965   6.099  19.185  0.00  0.00    +0.000 A 
ATOM      2  C   UNL     1       2.713   5.159  20.172  0.00  0.00    +0.000 A 
ATOM      3  N   UNL     1       1.859   5.713  21.092  0.00  0.00    +0.000 N 
ATOM      4  C   UNL     1       1.550   6.991  20.719  0.00  0.00    +0.000 A 
ATOM      5  N   UNL     1       0.718   7.793  21.402  0.00  0.00    +0.000 NA
ATOM      6  C   UNL     1       0.560   9.008  20.815  0.00  0.00    +0.000 A 
ATOM      7  C   UNL     1       1.167   9.467  19.638  0.00  0.00    +0.000 A 
ATOM      8  C   UNL     1       2.024   8.558  18.993  0.00  0.00    +0.000 A 
ATOM      9  C   UNL     1       2.226   7.274  19.540  0.00  0.00    +0.000 A 
ATOM     10  H   UNL     1       1.488   5.269  21.917  0.00  0.00    +0.000 HD
ENDROOT
BRANCH   1  14
ATOM     11  C   UNL     1       5.459   5.307  15.794  0.00  0.00    +0.000 A 
ATOM     12  C   UNL     1       5.107   6.620  16.117  0.00  0.00    +0.000 A 
ATOM     13  C   UNL     1       4.312   6.879  17.240  0.00  0.00    +0.000 A 
ATOM     14  C   UNL     1       3.824   5.830  18.033  0.00  0.00    +0.000 A 
ATOM     15  C   UNL     1       4.168   4.517  17.690  0.00  0.00    +0.000 A 
ATOM     16  C   UNL     1       4.984   4.268  16.589  0.00  0.00    +0.000 A 
ATOM     17  F   UNL     1       5.322   2.998  16.315  0.00  0.00    +0.000 F 
BRANCH  11  19
ATOM     18  O   UNL     1       7.448   5.518  14.532  0.00  0.00    +0.000 OA
ATOM     19  C   UNL     1       6.316   5.068  14.611  0.00  0.00    +0.000 C 
BRANCH  19  20
ATOM     20  O   UNL     1       5.778   4.273  13.666  0.00  0.00    +0.000 OA
ATOM     21  H   UNL     1       6.400   3.656  13.231  0.00  0.00    +0.000 HD
ENDBRANCH  19  20
ENDBRANCH  11  19
ENDBRANCH   1  14
BRANCH   7  22
ATOM     22  C   UNL     1       0.912  10.821  19.093  0.00  0.00    +0.000 A 
ATOM     23  C   UNL     1       1.962  11.665  18.685  0.00  0.00    +0.000 A 
ATOM     24  C   UNL     1       1.718  12.952  18.193  0.00  0.00    +0.000 A 
ATOM     25  C   UNL     1       0.414  13.420  18.078  0.00  0.00    +0.000 A 
ATOM     26  C   UNL     1      -0.645  12.604  18.458  0.00  0.00    +0.000 A 
ATOM     27  C   UNL     1      -0.398  11.323  18.965  0.00  0.00    +0.000 A 
ENDBRANCH   7  22
TORSDOF 4
ENDMDL
