MODEL 1
REMARK VINA RESULT:      -7.3      0.000      0.000
REMARK  Name = 
REMARK  8 active torsions:
REMARK  status: ('A' for Active; 'I' for Inactive)
REMARK    1  A    between atoms: C_1  and  C_2
REMARK    2  A    between atoms: C_2  and  N_3
REMARK    3  A    between atoms: N_6  and  C_7
REMARK    4  A    between atoms: C_7  and  C_8
REMARK    5  A    between atoms: C_12  and  O_13
REMARK    6  A    between atoms: O_13  and  C_14
REMARK    7  A    between atoms: N_21  and  C_22
REMARK    8  A    between atoms: C_22  and  C_23
REMARK                            x       y       z     vdW  Elec       q    Type
REMARK                         _______ _______ _______ _____ _____    ______ ____
ROOT
ATOM      1  N   UNL     1      -0.473  12.148  20.431  0.00  0.00    +0.000 N 
ATOM      2  C   UNL     1      -0.891  13.190  21.265  0.00  0.00    +0.000 C 
ATOM      3  O   UNL     1      -1.085  14.346  20.945  0.00  0.00    +0.000 OA
ATOM      4  N   UNL     1      -1.083  12.686  22.509  0.00  0.00    +0.000 N 
ATOM      5  C   UNL     1      -0.957  11.335  22.511  0.00  0.00    +0.000 C 
ATOM      6  O   UNL     1      -1.270  10.589  23.429  0.00  0.00    +0.000 OA
ATOM      7  C   UNL     1      -0.223  10.920  21.215  0.00  0.00    +0.000 C 
ATOM      8  C   UNL     1      -0.809   9.655  20.577  0.00  0.00    +0.000 C 
ATOM      9  C   UNL     1      -0.408   8.384  21.334  0.00  0.00    +0.000 C 
ATOM     10  N   UNL     1       1.040   8.255  21.553  0.00  0.00    +0.000 NA
ATOM     11  C   UNL     1       1.528   9.424  22.305  0.00  0.00    +0.000 C 
ATOM     12  C   UNL     1       1.263  10.758  21.591  0.00  0.00    +0.000 C 
ENDROOT
BRANCH   1  14
ATOM     13  C   UNL     1      -0.877  12.548  17.962  0.00  0.00    +0.000 C 
ATOM     14  C   UNL     1       0.114  12.372  19.107  0.00  0.00    +0.000 C 
ENDBRANCH   1  14
BRANCH   4  15
ATOM     15  C   UNL     1      -1.502  13.488  23.638  0.00  0.00    +0.000 C 
BRANCH  15  16
ATOM     16  C   UNL     1      -2.987  13.798  23.596  0.00  0.00    +0.000 A 
ATOM     17  C   UNL     1      -3.439  15.112  23.805  0.00  0.00    +0.000 A 
ATOM     18  C   UNL     1      -4.798  15.416  23.732  0.00  0.00    +0.000 A 
ATOM     19  C   UNL     1      -5.722  14.410  23.455  0.00  0.00    +0.000 A 
ATOM     20  C   UNL     1      -5.300  13.089  23.271  0.00  0.00    +0.000 A 
ATOM     21  C   UNL     1      -3.936  12.788  23.350  0.00  0.00    +0.000 A 
BRANCH  20  22
ATOM     22  O   UNL     1      -6.312  12.205  23.022  0.00  0.00    +0.000 OA
ATOM     23  C   UNL     1      -7.029  12.367  21.807  0.00  0.00    +0.000 C 
ENDBRANCH  20  22
ENDBRANCH  15  16
ENDBRANCH   4  15
BRANCH  10  24
ATOM     24  C   UNL     1       1.844   8.054  20.332  0.00  0.00    +0.000 C 
BRANCH  24  25
ATOM     25  C   UNL     1       1.886   6.643  19.820  0.00  0.00    +0.000 A 
ATOM     26  C   UNL     1       1.522   5.479  20.464  0.00  0.00    +0.000 A 
ATOM     27  C   UNL     1       1.790   4.298  19.694  0.00  0.00    +0.000 A 
ATOM     28  C   UNL     1       1.556   2.936  19.994  0.00  0.00    +0.000 A 
ATOM     29  C   UNL     1       1.940   1.936  19.095  0.00  0.00    +0.000 A 
ATOM     30  C   UNL     1       2.573   2.269  17.906  0.00  0.00    +0.000 A 
ATOM     31  C   UNL     1       2.811   3.606  17.579  0.00  0.00    +0.000 A 
ATOM     32  C   UNL     1       2.400   4.611  18.477  0.00  0.00    +0.000 A 
ATOM     33  S   UNL     1       2.554   6.313  18.279  0.00  0.00    +0.000 S 
ENDBRANCH  24  25
ENDBRANCH  10  24
TORSDOF 6
ENDMDL
MODEL 2
REMARK VINA RESULT:      -7.2      0.872      1.141
REMARK  Name = 
REMARK  8 active torsions:
REMARK  status: ('A' for Active; 'I' for Inactive)
REMARK    1  A    between atoms: C_1  and  C_2
REMARK    2  A    between atoms: C_2  and  N_3
REMARK    3  A    between atoms: N_6  and  C_7
REMARK    4  A    between atoms: C_7  and  C_8
REMARK    5  A    between atoms: C_12  and  O_13
REMARK    6  A    between atoms: O_13  and  C_14
REMARK    7  A    between atoms: N_21  and  C_22
REMARK    8  A    between atoms: C_22  and  C_23
REMARK                            x       y       z     vdW  Elec       q    Type
REMARK                         _______ _______ _______ _____ _____    ______ ____
ROOT
ATOM      1  N   UNL     1      -0.747  11.911  20.132  0.00  0.00    +0.000 N 
ATOM      2  C   UNL     1      -1.262  12.984  20.867  0.00  0.00    +0.000 C 
ATOM      3  O   UNL     1      -1.564  14.081  20.441  0.00  0.00    +0.000 OA
ATOM      4  N   UNL     1      -1.405  12.584  22.156  0.00  0.00    +0.000 N 
ATOM      5  C   UNL     1      -1.152  11.258  22.284  0.00  0.00    +0.000 C 
ATOM      6  O   UNL     1      -1.393  10.577  23.271  0.00  0.00    +0.000 OA
ATOM      7  C   UNL     1      -0.383  10.792  21.026  0.00  0.00    +0.000 C 
ATOM      8  C   UNL     1      -0.847   9.423  20.517  0.00  0.00    +0.000 C 
ATOM      9  C   UNL     1      -0.328   8.273  21.387  0.00  0.00    +0.000 C 
ATOM     10  N   UNL     1       1.126   8.302  21.603  0.00  0.00    +0.000 NA
ATOM     11  C   UNL     1       1.502   9.577  22.236  0.00  0.00    +0.000 C 
ATOM     12  C   UNL     1       1.112  10.807  21.402  0.00  0.00    +0.000 C 
ENDROOT
BRANCH   1  14
ATOM     13  C   UNL     1       1.010  13.001  18.669  0.00  0.00    +0.000 C 
ATOM     14  C   UNL     1      -0.185  12.062  18.787  0.00  0.00    +0.000 C 
ENDBRANCH   1  14
BRANCH   4  15
ATOM     15  C   UNL     1      -1.898  13.447  23.208  0.00  0.00    +0.000 C 
BRANCH  15  16
ATOM     16  C   UNL     1      -3.396  13.308  23.404  0.00  0.00    +0.000 A 
ATOM     17  C   UNL     1      -3.899  12.500  24.437  0.00  0.00    +0.000 A 
ATOM     18  C   UNL     1      -5.274  12.394  24.650  0.00  0.00    +0.000 A 
ATOM     19  C   UNL     1      -6.161  13.089  23.830  0.00  0.00    +0.000 A 
ATOM     20  C   UNL     1      -5.685  13.878  22.776  0.00  0.00    +0.000 A 
ATOM     21  C   UNL     1      -4.306  13.977  22.564  0.00  0.00    +0.000 A 
BRANCH  20  22
ATOM     22  O   UNL     1      -6.664  14.488  22.045  0.00  0.00    +0.000 OA
ATOM     23  C   UNL     1      -6.467  14.574  20.641  0.00  0.00    +0.000 C 
ENDBRANCH  20  22
ENDBRANCH  15  16
ENDBRANCH   4  15
BRANCH  10  24
ATOM     24  C   UNL     1       1.945   8.061  20.400  0.00  0.00    +0.000 C 
BRANCH  24  25
ATOM     25  C   UNL     1       1.921   6.652  19.880  0.00  0.00    +0.000 A 
ATOM     26  C   UNL     1       1.538   5.499  20.532  0.00  0.00    +0.000 A 
ATOM     27  C   UNL     1       1.739   4.313  19.749  0.00  0.00    +0.000 A 
ATOM     28  C   UNL     1       1.468   2.958  20.051  0.00  0.00    +0.000 A 
ATOM     29  C   UNL     1       1.787   1.950  19.136  0.00  0.00    +0.000 A 
ATOM     30  C   UNL     1       2.389   2.268  17.926  0.00  0.00    +0.000 A 
ATOM     31  C   UNL     1       2.662   3.598  17.597  0.00  0.00    +0.000 A 
ATOM     32  C   UNL     1       2.317   4.611  18.513  0.00  0.00    +0.000 A 
ATOM     33  S   UNL     1       2.523   6.308  18.316  0.00  0.00    +0.000 S 
ENDBRANCH  24  25
ENDBRANCH  10  24
TORSDOF 6
ENDMDL
MODEL 3
REMARK VINA RESULT:      -7.2      0.626      1.082
REMARK  Name = 
REMARK  8 active torsions:
REMARK  status: ('A' for Active; 'I' for Inactive)
REMARK    1  A    between atoms: C_1  and  C_2
REMARK    2  A    between atoms: C_2  and  N_3
REMARK    3  A    between atoms: N_6  and  C_7
REMARK    4  A    between atoms: C_7  and  C_8
REMARK    5  A    between atoms: C_12  and  O_13
REMARK    6  A    between atoms: O_13  and  C_14
REMARK    7  A    between atoms: N_21  and  C_22
REMARK    8  A    between atoms: C_22  and  C_23
REMARK                            x       y       z     vdW  Elec       q    Type
REMARK                         _______ _______ _______ _____ _____    ______ ____
ROOT
ATOM      1  N   UNL     1      -0.414  12.193  20.433  0.00  0.00    +0.000 N 
ATOM      2  C   UNL     1      -0.836  13.204  21.302  0.00  0.00    +0.000 C 
ATOM      3  O   UNL     1      -1.010  14.375  21.028  0.00  0.00    +0.000 OA
ATOM      4  N   UNL     1      -1.058  12.650  22.520  0.00  0.00    +0.000 N 
ATOM      5  C   UNL     1      -0.948  11.299  22.467  0.00  0.00    +0.000 C 
ATOM      6  O   UNL     1      -1.288  10.519  23.346  0.00  0.00    +0.000 OA
ATOM      7  C   UNL     1      -0.194  10.930  21.168  0.00  0.00    +0.000 C 
ATOM      8  C   UNL     1      -0.783   9.700  20.467  0.00  0.00    +0.000 C 
ATOM      9  C   UNL     1      -0.412   8.394  21.176  0.00  0.00    +0.000 C 
ATOM     10  N   UNL     1       1.030   8.237  21.417  0.00  0.00    +0.000 NA
ATOM     11  C   UNL     1       1.518   9.367  22.227  0.00  0.00    +0.000 C 
ATOM     12  C   UNL     1       1.282  10.733  21.566  0.00  0.00    +0.000 C 
ENDROOT
BRANCH   1  14
ATOM     13  C   UNL     1      -0.753  12.902  18.024  0.00  0.00    +0.000 C 
ATOM     14  C   UNL     1       0.201  12.465  19.130  0.00  0.00    +0.000 C 
ENDBRANCH   1  14
BRANCH   4  15
ATOM     15  C   UNL     1      -1.490  13.409  23.674  0.00  0.00    +0.000 C 
BRANCH  15  16
ATOM     16  C   UNL     1      -2.974  13.723  23.627  0.00  0.00    +0.000 A 
ATOM     17  C   UNL     1      -3.441  14.982  24.040  0.00  0.00    +0.000 A 
ATOM     18  C   UNL     1      -4.798  15.295  23.966  0.00  0.00    +0.000 A 
ATOM     19  C   UNL     1      -5.705  14.352  23.484  0.00  0.00    +0.000 A 
ATOM     20  C   UNL     1      -5.267  13.082  23.093  0.00  0.00    +0.000 A 
ATOM     21  C   UNL     1      -3.906  12.771  23.173  0.00  0.00    +0.000 A 
BRANCH  20  22
ATOM     22  O   UNL     1      -6.263  12.255  22.656  0.00  0.00    +0.000 OA
ATOM     23  C   UNL     1      -7.555  12.824  22.495  0.00  0.00    +0.000 C 
ENDBRANCH  20  22
ENDBRANCH  15  16
ENDBRANCH   4  15
BRANCH  10  24
ATOM     24  C   UNL     1       1.855   8.077  20.204  0.00  0.00    +0.000 C 
BRANCH  24  25
ATOM     25  C   UNL     1       2.069   6.659  19.758  0.00  0.00    +0.000 A 
ATOM     26  C   UNL     1       2.406   6.190  18.506  0.00  0.00    +0.000 A 
ATOM     27  C   UNL     1       2.431   4.757  18.426  0.00  0.00    +0.000 A 
ATOM     28  C   UNL     1       2.736   3.905  17.339  0.00  0.00    +0.000 A 
ATOM     29  C   UNL     1       2.657   2.516  17.483  0.00  0.00    +0.000 A 
ATOM     30  C   UNL     1       2.260   1.959  18.691  0.00  0.00    +0.000 A 
ATOM     31  C   UNL     1       1.960   2.776  19.784  0.00  0.00    +0.000 A 
ATOM     32  C   UNL     1       2.065   4.174  19.641  0.00  0.00    +0.000 A 
ATOM     33  S   UNL     1       1.782   5.369  20.845  0.00  0.00    +0.000 S 
ENDBRANCH  24  25
ENDBRANCH  10  24
TORSDOF 6
ENDMDL
MODEL 4
REMARK VINA RESULT:      -7.1      1.673      2.239
REMARK  Name = 
REMARK  8 active torsions:
REMARK  status: ('A' for Active; 'I' for Inactive)
REMARK    1  A    between atoms: C_1  and  C_2
REMARK    2  A    between atoms: C_2  and  N_3
REMARK    3  A    between atoms: N_6  and  C_7
REMARK    4  A    between atoms: C_7  and  C_8
REMARK    5  A    between atoms: C_12  and  O_13
REMARK    6  A    between atoms: O_13  and  C_14
REMARK    7  A    between atoms: N_21  and  C_22
REMARK    8  A    between atoms: C_22  and  C_23
REMARK                            x       y       z     vdW  Elec       q    Type
REMARK                         _______ _______ _______ _____ _____    ______ ____
ROOT
ATOM      1  N   UNL     1       0.898  13.528  20.368  0.00  0.00    +0.000 N 
ATOM      2  C   UNL     1      -0.052  14.475  20.767  0.00  0.00    +0.000 C 
ATOM      3  O   UNL     1       0.168  15.583  21.215  0.00  0.00    +0.000 OA
ATOM      4  N   UNL     1      -1.286  13.960  20.537  0.00  0.00    +0.000 N 
ATOM      5  C   UNL     1      -1.204  12.782  19.869  0.00  0.00    +0.000 C 
ATOM      6  O   UNL     1      -2.139  12.190  19.348  0.00  0.00    +0.000 OA
ATOM      7  C   UNL     1       0.243  12.254  20.002  0.00  0.00    +0.000 C 
ATOM      8  C   UNL     1       0.776  11.641  18.702  0.00  0.00    +0.000 C 
ATOM      9  C   UNL     1       0.185  10.254  18.429  0.00  0.00    +0.000 C 
ATOM     10  N   UNL     1       0.316   9.320  19.557  0.00  0.00    +0.000 NA
ATOM     11  C   UNL     1      -0.347   9.889  20.743  0.00  0.00    +0.000 C 
ATOM     12  C   UNL     1       0.231  11.247  21.169  0.00  0.00    +0.000 C 
ENDROOT
BRANCH   1  14
ATOM     13  C   UNL     1       3.213  14.366  19.773  0.00  0.00    +0.000 C 
ATOM     14  C   UNL     1       2.312  13.610  20.743  0.00  0.00    +0.000 C 
ENDBRANCH   1  14
BRANCH   4  15
ATOM     15  C   UNL     1      -2.512  14.662  20.848  0.00  0.00    +0.000 C 
BRANCH  15  16
ATOM     16  C   UNL     1      -3.249  14.031  22.015  0.00  0.00    +0.000 A 
ATOM     17  C   UNL     1      -2.705  14.092  23.309  0.00  0.00    +0.000 A 
ATOM     18  C   UNL     1      -3.390  13.548  24.395  0.00  0.00    +0.000 A 
ATOM     19  C   UNL     1      -4.625  12.931  24.200  0.00  0.00    +0.000 A 
ATOM     20  C   UNL     1      -5.175  12.832  22.917  0.00  0.00    +0.000 A 
ATOM     21  C   UNL     1      -4.481  13.375  21.830  0.00  0.00    +0.000 A 
BRANCH  20  22
ATOM     22  O   UNL     1      -6.380  12.190  22.870  0.00  0.00    +0.000 OA
ATOM     23  C   UNL     1      -7.511  12.899  23.355  0.00  0.00    +0.000 C 
ENDBRANCH  20  22
ENDBRANCH  15  16
ENDBRANCH   4  15
BRANCH  10  24
ATOM     24  C   UNL     1       1.697   8.917  19.881  0.00  0.00    +0.000 C 
BRANCH  24  25
ATOM     25  C   UNL     1       1.948   7.436  19.882  0.00  0.00    +0.000 A 
ATOM     26  C   UNL     1       1.587   6.500  20.828  0.00  0.00    +0.000 A 
ATOM     27  C   UNL     1       2.081   5.184  20.540  0.00  0.00    +0.000 A 
ATOM     28  C   UNL     1       1.922   3.970  21.248  0.00  0.00    +0.000 A 
ATOM     29  C   UNL     1       2.536   2.799  20.793  0.00  0.00    +0.000 A 
ATOM     30  C   UNL     1       3.324   2.819  19.651  0.00  0.00    +0.000 A 
ATOM     31  C   UNL     1       3.492   4.002  18.927  0.00  0.00    +0.000 A 
ATOM     32  C   UNL     1       2.852   5.174  19.376  0.00  0.00    +0.000 A 
ATOM     33  S   UNL     1       2.886   6.728  18.638  0.00  0.00    +0.000 S 
ENDBRANCH  24  25
ENDBRANCH  10  24
TORSDOF 6
ENDMDL
MODEL 5
REMARK VINA RESULT:      -7.1      2.397      3.743
REMARK  Name = 
REMARK  8 active torsions:
REMARK  status: ('A' for Active; 'I' for Inactive)
REMARK    1  A    between atoms: C_1  and  C_2
REMARK    2  A    between atoms: C_2  and  N_3
REMARK    3  A    between atoms: N_6  and  C_7
REMARK    4  A    between atoms: C_7  and  C_8
REMARK    5  A    between atoms: C_12  and  O_13
REMARK    6  A    between atoms: O_13  and  C_14
REMARK    7  A    between atoms: N_21  and  C_22
REMARK    8  A    between atoms: C_22  and  C_23
REMARK                            x       y       z     vdW  Elec       q    Type
REMARK                         _______ _______ _______ _____ _____    ______ ____
ROOT
ATOM      1  N   UNL     1      -1.174  11.475  22.055  0.00  0.00    +0.000 N 
ATOM      2  C   UNL     1      -2.308  12.294  22.017  0.00  0.00    +0.000 C 
ATOM      3  O   UNL     1      -3.041  12.565  22.947  0.00  0.00    +0.000 OA
ATOM      4  N   UNL     1      -2.442  12.774  20.756  0.00  0.00    +0.000 N 
ATOM      5  C   UNL     1      -1.374  12.436  19.991  0.00  0.00    +0.000 C 
ATOM      6  O   UNL     1      -1.114  12.891  18.885  0.00  0.00    +0.000 OA
ATOM      7  C   UNL     1      -0.624  11.282  20.696  0.00  0.00    +0.000 C 
ATOM      8  C   UNL     1       0.900  11.430  20.624  0.00  0.00    +0.000 C 
ATOM      9  C   UNL     1       1.453  11.080  19.238  0.00  0.00    +0.000 C 
ATOM     10  N   UNL     1       1.015   9.769  18.738  0.00  0.00    +0.000 NA
ATOM     11  C   UNL     1      -0.456   9.732  18.681  0.00  0.00    +0.000 C 
ATOM     12  C   UNL     1      -1.123   9.979  20.043  0.00  0.00    +0.000 C 
ENDROOT
BRANCH   1  14
ATOM     13  C   UNL     1       0.078   9.420  22.845  0.00  0.00    +0.000 C 
ATOM     14  C   UNL     1      -0.890  10.554  23.159  0.00  0.00    +0.000 C 
ENDBRANCH   1  14
BRANCH   4  15
ATOM     15  C   UNL     1      -3.523  13.644  20.345  0.00  0.00    +0.000 C 
BRANCH  15  16
ATOM     16  C   UNL     1      -4.870  12.950  20.411  0.00  0.00    +0.000 A 
ATOM     17  C   UNL     1      -5.855  13.403  21.305  0.00  0.00    +0.000 A 
ATOM     18  C   UNL     1      -7.110  12.796  21.347  0.00  0.00    +0.000 A 
ATOM     19  C   UNL     1      -7.394  11.725  20.501  0.00  0.00    +0.000 A 
ATOM     20  C   UNL     1      -6.421  11.237  19.622  0.00  0.00    +0.000 A 
ATOM     21  C   UNL     1      -5.162  11.847  19.586  0.00  0.00    +0.000 A 
BRANCH  20  22
ATOM     22  O   UNL     1      -6.830  10.177  18.864  0.00  0.00    +0.000 OA
ATOM     23  C   UNL     1      -7.115   8.964  19.547  0.00  0.00    +0.000 C 
ENDBRANCH  20  22
ENDBRANCH  15  16
ENDBRANCH   4  15
BRANCH  10  24
ATOM     24  C   UNL     1       1.532   8.607  19.487  0.00  0.00    +0.000 C 
BRANCH  24  25
ATOM     25  C   UNL     1       2.474   7.721  18.723  0.00  0.00    +0.000 A 
ATOM     26  C   UNL     1       3.263   8.034  17.636  0.00  0.00    +0.000 A 
ATOM     27  C   UNL     1       3.967   6.903  17.104  0.00  0.00    +0.000 A 
ATOM     28  C   UNL     1       4.869   6.813  16.017  0.00  0.00    +0.000 A 
ATOM     29  C   UNL     1       5.413   5.579  15.648  0.00  0.00    +0.000 A 
ATOM     30  C   UNL     1       5.060   4.425  16.334  0.00  0.00    +0.000 A 
ATOM     31  C   UNL     1       4.179   4.484  17.416  0.00  0.00    +0.000 A 
ATOM     32  C   UNL     1       3.651   5.734  17.798  0.00  0.00    +0.000 A 
ATOM     33  S   UNL     1       2.582   6.057  19.107  0.00  0.00    +0.000 S 
ENDBRANCH  24  25
ENDBRANCH  10  24
TORSDOF 6
ENDMDL
MODEL 6
REMARK VINA RESULT:      -7.0      1.629      2.335
REMARK  Name = 
REMARK  8 active torsions:
REMARK  status: ('A' for Active; 'I' for Inactive)
REMARK    1  A    between atoms: C_1  and  C_2
REMARK    2  A    between atoms: C_2  and  N_3
REMARK    3  A    between atoms: N_6  and  C_7
REMARK    4  A    between atoms: C_7  and  C_8
REMARK    5  A    between atoms: C_12  and  O_13
REMARK    6  A    between atoms: O_13  and  C_14
REMARK    7  A    between atoms: N_21  and  C_22
REMARK    8  A    between atoms: C_22  and  C_23
REMARK                            x       y       z     vdW  Elec       q    Type
REMARK                         _______ _______ _______ _____ _____    ______ ____
ROOT
ATOM      1  N   UNL     1       0.971  13.338  20.261  0.00  0.00    +0.000 N 
ATOM      2  C   UNL     1       0.038  14.328  20.588  0.00  0.00    +0.000 C 
ATOM      3  O   UNL     1       0.276  15.474  20.916  0.00  0.00    +0.000 OA
ATOM      4  N   UNL     1      -1.205  13.802  20.446  0.00  0.00    +0.000 N 
ATOM      5  C   UNL     1      -1.148  12.562  19.899  0.00  0.00    +0.000 C 
ATOM      6  O   UNL     1      -2.101  11.928  19.467  0.00  0.00    +0.000 OA
ATOM      7  C   UNL     1       0.300  12.039  20.045  0.00  0.00    +0.000 C 
ATOM      8  C   UNL     1       0.792  11.294  18.799  0.00  0.00    +0.000 C 
ATOM      9  C   UNL     1       0.187   9.891  18.685  0.00  0.00    +0.000 C 
ATOM     10  N   UNL     1       0.345   9.075  19.897  0.00  0.00    +0.000 NA
ATOM     11  C   UNL     1      -0.281   9.765  21.038  0.00  0.00    +0.000 C 
ATOM     12  C   UNL     1       0.316  11.155  21.307  0.00  0.00    +0.000 C 
ENDROOT
BRANCH   1  14
ATOM     13  C   UNL     1       3.260  14.158  19.551  0.00  0.00    +0.000 C 
ATOM     14  C   UNL     1       2.396  13.446  20.585  0.00  0.00    +0.000 C 
ENDBRANCH   1  14
BRANCH   4  15
ATOM     15  C   UNL     1      -2.418  14.542  20.720  0.00  0.00    +0.000 C 
BRANCH  15  16
ATOM     16  C   UNL     1      -3.150  14.006  21.936  0.00  0.00    +0.000 A 
ATOM     17  C   UNL     1      -2.608  14.186  23.220  0.00  0.00    +0.000 A 
ATOM     18  C   UNL     1      -3.289  13.730  24.349  0.00  0.00    +0.000 A 
ATOM     19  C   UNL     1      -4.517  13.085  24.208  0.00  0.00    +0.000 A 
ATOM     20  C   UNL     1      -5.064  12.869  22.938  0.00  0.00    +0.000 A 
ATOM     21  C   UNL     1      -4.374  13.324  21.809  0.00  0.00    +0.000 A 
BRANCH  20  22
ATOM     22  O   UNL     1      -6.262  12.213  22.947  0.00  0.00    +0.000 OA
ATOM     23  C   UNL     1      -7.102  12.382  21.814  0.00  0.00    +0.000 C 
ENDBRANCH  20  22
ENDBRANCH  15  16
ENDBRANCH   4  15
BRANCH  10  24
ATOM     24  C   UNL     1       1.733   8.695  20.222  0.00  0.00    +0.000 C 
BRANCH  24  25
ATOM     25  C   UNL     1       2.166   7.353  19.707  0.00  0.00    +0.000 A 
ATOM     26  C   UNL     1       2.855   7.053  18.550  0.00  0.00    +0.000 A 
ATOM     27  C   UNL     1       3.012   5.643  18.334  0.00  0.00    +0.000 A 
ATOM     28  C   UNL     1       3.656   4.942  17.287  0.00  0.00    +0.000 A 
ATOM     29  C   UNL     1       3.651   3.544  17.263  0.00  0.00    +0.000 A 
ATOM     30  C   UNL     1       2.998   2.828  18.257  0.00  0.00    +0.000 A 
ATOM     31  C   UNL     1       2.361   3.493  19.307  0.00  0.00    +0.000 A 
ATOM     32  C   UNL     1       2.389   4.901  19.340  0.00  0.00    +0.000 A 
ATOM     33  S   UNL     1       1.708   5.930  20.540  0.00  0.00    +0.000 S 
ENDBRANCH  24  25
ENDBRANCH  10  24
TORSDOF 6
ENDMDL
MODEL 7
REMARK VINA RESULT:      -6.9      1.944      2.971
REMARK  Name = 
REMARK  8 active torsions:
REMARK  status: ('A' for Active; 'I' for Inactive)
REMARK    1  A    between atoms: C_1  and  C_2
REMARK    2  A    between atoms: C_2  and  N_3
REMARK    3  A    between atoms: N_6  and  C_7
REMARK    4  A    between atoms: C_7  and  C_8
REMARK    5  A    between atoms: C_12  and  O_13
REMARK    6  A    between atoms: O_13  and  C_14
REMARK    7  A    between atoms: N_21  and  C_22
REMARK    8  A    between atoms: C_22  and  C_23
REMARK                            x       y       z     vdW  Elec       q    Type
REMARK                         _______ _______ _______ _____ _____    ______ ____
ROOT
ATOM      1  N   UNL     1       0.928  13.515  19.791  0.00  0.00    +0.000 N 
ATOM      2  C   UNL     1       0.168  14.639  20.131  0.00  0.00    +0.000 C 
ATOM      3  O   UNL     1       0.529  15.799  20.101  0.00  0.00    +0.000 OA
ATOM      4  N   UNL     1      -1.076  14.221  20.474  0.00  0.00    +0.000 N 
ATOM      5  C   UNL     1      -1.226  12.894  20.238  0.00  0.00    +0.000 C 
ATOM      6  O   UNL     1      -2.284  12.280  20.255  0.00  0.00    +0.000 OA
ATOM      7  C   UNL     1       0.182  12.272  20.083  0.00  0.00    +0.000 C 
ATOM      8  C   UNL     1       0.254  11.233  18.958  0.00  0.00    +0.000 C 
ATOM      9  C   UNL     1      -0.402   9.906  19.351  0.00  0.00    +0.000 C 
ATOM     10  N   UNL     1       0.086   9.355  20.624  0.00  0.00    +0.000 NA
ATOM     11  C   UNL     1      -0.147  10.331  21.702  0.00  0.00    +0.000 C 
ATOM     12  C   UNL     1       0.547  11.680  21.459  0.00  0.00    +0.000 C 
ENDROOT
BRANCH   1  14
ATOM     13  C   UNL     1       2.924  13.819  18.262  0.00  0.00    +0.000 C 
ATOM     14  C   UNL     1       2.387  13.547  19.662  0.00  0.00    +0.000 C 
ENDBRANCH   1  14
BRANCH   4  15
ATOM     15  C   UNL     1      -2.128  15.118  20.902  0.00  0.00    +0.000 C 
BRANCH  15  16
ATOM     16  C   UNL     1      -2.352  15.061  22.401  0.00  0.00    +0.000 A 
ATOM     17  C   UNL     1      -3.617  14.728  22.913  0.00  0.00    +0.000 A 
ATOM     18  C   UNL     1      -3.825  14.636  24.289  0.00  0.00    +0.000 A 
ATOM     19  C   UNL     1      -2.773  14.880  25.170  0.00  0.00    +0.000 A 
ATOM     20  C   UNL     1      -1.510  15.241  24.686  0.00  0.00    +0.000 A 
ATOM     21  C   UNL     1      -1.308  15.336  23.305  0.00  0.00    +0.000 A 
BRANCH  20  22
ATOM     22  O   UNL     1      -0.579  15.465  25.659  0.00  0.00    +0.000 OA
ATOM     23  C   UNL     1      -0.862  16.486  26.605  0.00  0.00    +0.000 C 
ENDBRANCH  20  22
ENDBRANCH  15  16
ENDBRANCH   4  15
BRANCH  10  24
ATOM     24  C   UNL     1       1.495   8.917  20.619  0.00  0.00    +0.000 C 
BRANCH  24  25
ATOM     25  C   UNL     1       1.730   7.524  20.111  0.00  0.00    +0.000 A 
ATOM     26  C   UNL     1       1.481   6.322  20.739  0.00  0.00    +0.000 A 
ATOM     27  C   UNL     1       1.924   5.185  19.984  0.00  0.00    +0.000 A 
ATOM     28  C   UNL     1       1.844   3.804  20.276  0.00  0.00    +0.000 A 
ATOM     29  C   UNL     1       2.386   2.861  19.396  0.00  0.00    +0.000 A 
ATOM     30  C   UNL     1       3.025   3.273  18.235  0.00  0.00    +0.000 A 
ATOM     31  C   UNL     1       3.113   4.630  17.917  0.00  0.00    +0.000 A 
ATOM     32  C   UNL     1       2.545   5.575  18.795  0.00  0.00    +0.000 A 
ATOM     33  S   UNL     1       2.500   7.284  18.601  0.00  0.00    +0.000 S 
ENDBRANCH  24  25
ENDBRANCH  10  24
TORSDOF 6
ENDMDL
MODEL 8
REMARK VINA RESULT:      -6.9      2.725      4.211
REMARK  Name = 
REMARK  8 active torsions:
REMARK  status: ('A' for Active; 'I' for Inactive)
REMARK    1  A    between atoms: C_1  and  C_2
REMARK    2  A    between atoms: C_2  and  N_3
REMARK    3  A    between atoms: N_6  and  C_7
REMARK    4  A    between atoms: C_7  and  C_8
REMARK    5  A    between atoms: C_12  and  O_13
REMARK    6  A    between atoms: O_13  and  C_14
REMARK    7  A    between atoms: N_21  and  C_22
REMARK    8  A    between atoms: C_22  and  C_23
REMARK                            x       y       z     vdW  Elec       q    Type
REMARK                         _______ _______ _______ _____ _____    ______ ____
ROOT
ATOM      1  N   UNL     1      -1.122  11.271  22.208  0.00  0.00    +0.000 N 
ATOM      2  C   UNL     1      -2.275  12.063  22.186  0.00  0.00    +0.000 C 
ATOM      3  O   UNL     1      -3.022  12.288  23.118  0.00  0.00    +0.000 OA
ATOM      4  N   UNL     1      -2.410  12.580  20.939  0.00  0.00    +0.000 N 
ATOM      5  C   UNL     1      -1.328  12.292  20.174  0.00  0.00    +0.000 C 
ATOM      6  O   UNL     1      -1.070  12.787  19.085  0.00  0.00    +0.000 OA
ATOM      7  C   UNL     1      -0.557  11.134  20.849  0.00  0.00    +0.000 C 
ATOM      8  C   UNL     1       0.964  11.319  20.795  0.00  0.00    +0.000 C 
ATOM      9  C   UNL     1       1.536  11.026  19.404  0.00  0.00    +0.000 C 
ATOM     10  N   UNL     1       1.133   9.721  18.859  0.00  0.00    +0.000 NA
ATOM     11  C   UNL     1      -0.336   9.652  18.788  0.00  0.00    +0.000 C 
ATOM     12  C   UNL     1      -1.020   9.840  20.151  0.00  0.00    +0.000 C 
ENDROOT
BRANCH   1  14
ATOM     13  C   UNL     1       0.325   9.358  23.023  0.00  0.00    +0.000 C 
ATOM     14  C   UNL     1      -0.826  10.322  23.286  0.00  0.00    +0.000 C 
ENDBRANCH   1  14
BRANCH   4  15
ATOM     15  C   UNL     1      -3.507  13.438  20.547  0.00  0.00    +0.000 C 
BRANCH  15  16
ATOM     16  C   UNL     1      -4.561  12.688  19.754  0.00  0.00    +0.000 A 
ATOM     17  C   UNL     1      -5.851  12.515  20.284  0.00  0.00    +0.000 A 
ATOM     18  C   UNL     1      -6.839  11.860  19.549  0.00  0.00    +0.000 A 
ATOM     19  C   UNL     1      -6.548  11.365  18.278  0.00  0.00    +0.000 A 
ATOM     20  C   UNL     1      -5.263  11.500  17.741  0.00  0.00    +0.000 A 
ATOM     21  C   UNL     1      -4.275  12.153  18.484  0.00  0.00    +0.000 A 
BRANCH  20  22
ATOM     22  O   UNL     1      -5.116  10.956  16.496  0.00  0.00    +0.000 OA
ATOM     23  C   UNL     1      -3.812  10.973  15.932  0.00  0.00    +0.000 C 
ENDBRANCH  20  22
ENDBRANCH  15  16
ENDBRANCH   4  15
BRANCH  10  24
ATOM     24  C   UNL     1       1.671   8.549  19.575  0.00  0.00    +0.000 C 
BRANCH  24  25
ATOM     25  C   UNL     1       2.566   7.658  18.763  0.00  0.00    +0.000 A 
ATOM     26  C   UNL     1       3.377   7.989  17.698  0.00  0.00    +0.000 A 
ATOM     27  C   UNL     1       4.021   6.853  17.102  0.00  0.00    +0.000 A 
ATOM     28  C   UNL     1       4.922   6.777  16.014  0.00  0.00    +0.000 A 
ATOM     29  C   UNL     1       5.399   5.538  15.575  0.00  0.00    +0.000 A 
ATOM     30  C   UNL     1       4.978   4.367  16.191  0.00  0.00    +0.000 A 
ATOM     31  C   UNL     1       4.095   4.412  17.272  0.00  0.00    +0.000 A 
ATOM     32  C   UNL     1       3.636   5.665  17.726  0.00  0.00    +0.000 A 
ATOM     33  S   UNL     1       2.580   5.971  19.049  0.00  0.00    +0.000 S 
ENDBRANCH  24  25
ENDBRANCH  10  24
TORSDOF 6
ENDMDL
MODEL 9
REMARK VINA RESULT:      -6.8      3.159      9.668
REMARK  Name = 
REMARK  8 active torsions:
REMARK  status: ('A' for Active; 'I' for Inactive)
REMARK    1  A    between atoms: C_1  and  C_2
REMARK    2  A    between atoms: C_2  and  N_3
REMARK    3  A    between atoms: N_6  and  C_7
REMARK    4  A    between atoms: C_7  and  C_8
REMARK    5  A    between atoms: C_12  and  O_13
REMARK    6  A    between atoms: O_13  and  C_14
REMARK    7  A    between atoms: N_21  and  C_22
REMARK    8  A    between atoms: C_22  and  C_23
REMARK                            x       y       z     vdW  Elec       q    Type
REMARK                         _______ _______ _______ _____ _____    ______ ____
ROOT
ATOM      1  N   UNL     1      -1.379  10.704  18.925  0.00  0.00    +0.000 N 
ATOM      2  C   UNL     1      -0.433  10.148  18.057  0.00  0.00    +0.000 C 
ATOM      3  O   UNL     1      -0.654   9.590  17.001  0.00  0.00    +0.000 OA
ATOM      4  N   UNL     1       0.800  10.367  18.577  0.00  0.00    +0.000 N 
ATOM      5  C   UNL     1       0.732  11.169  19.670  0.00  0.00    +0.000 C 
ATOM      6  O   UNL     1       1.682  11.702  20.226  0.00  0.00    +0.000 OA
ATOM      7  C   UNL     1      -0.732  11.177  20.168  0.00  0.00    +0.000 C 
ATOM      8  C   UNL     1      -1.202  12.565  20.615  0.00  0.00    +0.000 C 
ATOM      9  C   UNL     1      -0.627  12.962  21.979  0.00  0.00    +0.000 C 
ATOM     10  N   UNL     1      -0.843  11.957  23.030  0.00  0.00    +0.000 NA
ATOM     11  C   UNL     1      -0.238  10.679  22.618  0.00  0.00    +0.000 C 
ATOM     12  C   UNL     1      -0.809  10.133  21.300  0.00  0.00    +0.000 C 
ENDROOT
BRANCH   1  14
ATOM     13  C   UNL     1      -3.642  11.345  17.985  0.00  0.00    +0.000 C 
ATOM     14  C   UNL     1      -2.810  10.401  18.846  0.00  0.00    +0.000 C 
ENDBRANCH   1  14
BRANCH   4  15
ATOM     15  C   UNL     1       2.022   9.911  17.950  0.00  0.00    +0.000 C 
BRANCH  15  16
ATOM     16  C   UNL     1       2.355   8.479  18.326  0.00  0.00    +0.000 A 
ATOM     17  C   UNL     1       3.183   7.706  17.496  0.00  0.00    +0.000 A 
ATOM     18  C   UNL     1       3.526   6.401  17.849  0.00  0.00    +0.000 A 
ATOM     19  C   UNL     1       3.040   5.851  19.035  0.00  0.00    +0.000 A 
ATOM     20  C   UNL     1       2.190   6.591  19.865  0.00  0.00    +0.000 A 
ATOM     21  C   UNL     1       1.846   7.898  19.503  0.00  0.00    +0.000 A 
BRANCH  20  22
ATOM     22  O   UNL     1       1.778   5.924  20.984  0.00  0.00    +0.000 OA
ATOM     23  C   UNL     1       1.907   4.510  20.980  0.00  0.00    +0.000 C 
ENDBRANCH  20  22
ENDBRANCH  15  16
ENDBRANCH   4  15
BRANCH  10  24
ATOM     24  C   UNL     1      -2.250  11.757  23.428  0.00  0.00    +0.000 C 
BRANCH  24  25
ATOM     25  C   UNL     1      -3.061  13.014  23.563  0.00  0.00    +0.000 A 
ATOM     26  C   UNL     1      -2.832  14.106  24.373  0.00  0.00    +0.000 A 
ATOM     27  C   UNL     1      -3.877  15.088  24.308  0.00  0.00    +0.000 A 
ATOM     28  C   UNL     1      -4.007  16.332  24.969  0.00  0.00    +0.000 A 
ATOM     29  C   UNL     1      -5.149  17.117  24.781  0.00  0.00    +0.000 A 
ATOM     30  C   UNL     1      -6.175  16.676  23.957  0.00  0.00    +0.000 A 
ATOM     31  C   UNL     1      -6.070  15.456  23.285  0.00  0.00    +0.000 A 
ATOM     32  C   UNL     1      -4.907  14.679  23.460  0.00  0.00    +0.000 A 
ATOM     33  S   UNL     1      -4.541  13.170  22.718  0.00  0.00    +0.000 S 
ENDBRANCH  24  25
ENDBRANCH  10  24
TORSDOF 6
ENDMDL
