MODEL 1
REMARK VINA RESULT:      -8.6      0.000      0.000
REMARK  Name = 
REMARK  3 active torsions:
REMARK  status: ('A' for Active; 'I' for Inactive)
REMARK    1  A    between atoms: C_2  and  C_20
REMARK    2  A    between atoms: N_3  and  C_4
REMARK    3  A    between atoms: N_7  and  C_8
REMARK                            x       y       z     vdW  Elec       q    Type
REMARK                         _______ _______ _______ _____ _____    ______ ____
ROOT
ATOM      1  C   UNL     1       0.865  10.196  19.431  0.00  0.00    +0.000 C 
ATOM      2  C   UNL     1       1.721  10.261  18.172  0.00  0.00    +0.000 C 
ATOM      3  C   UNL     1       1.844   8.805  17.749  0.00  0.00    +0.000 C 
ATOM      4  N   UNL     1       1.914   8.070  19.002  0.00  0.00    +0.000 N 
ATOM      5  C   UNL     1       1.282   8.851  20.083  0.00  0.00    +0.000 C 
ENDROOT
BRANCH   4   6
ATOM      6  C   UNL     1       2.501   6.831  19.203  0.00  0.00    +0.000 A 
ATOM      7  C   UNL     1       1.998   6.005  20.223  0.00  0.00    +0.000 A 
ATOM      8  C   UNL     1       2.560   4.767  20.471  0.00  0.00    +0.000 A 
ATOM      9  N   UNL     1       3.583   4.261  19.768  0.00  0.00    +0.000 NA
ATOM     10  C   UNL     1       4.083   5.004  18.779  0.00  0.00    +0.000 A 
ATOM     11  C   UNL     1       5.120   4.431  18.052  0.00  0.00    +0.000 A 
ATOM     12  C   UNL     1       5.722   5.095  16.995  0.00  0.00    +0.000 A 
ATOM     13 CL   UNL     1       6.985   4.343  16.103  0.00  0.00    +0.000 Cl
ATOM     14  C   UNL     1       5.297   6.361  16.643  0.00  0.00    +0.000 A 
ATOM     15  C   UNL     1       4.244   6.944  17.352  0.00  0.00    +0.000 A 
ATOM     16  C   UNL     1       3.604   6.304  18.445  0.00  0.00    +0.000 A 
ENDBRANCH   4   6
BRANCH   1  19
ATOM     17  O   UNL     1      -0.512  12.576  19.066  0.00  0.00    +0.000 OA
ATOM     18  C   UNL     1      -1.135  11.531  18.909  0.00  0.00    +0.000 C 
ATOM     19  N   UNL     1      -0.561  10.297  19.133  0.00  0.00    +0.000 N 
ATOM     20  H   UNL     1      -1.090   9.456  18.927  0.00  0.00    +0.000 HD
BRANCH  18  21
ATOM     21  C   UNL     1      -2.549  11.575  18.445  0.00  0.00    +0.000 A 
ATOM     22  C   UNL     1      -3.518  12.090  19.328  0.00  0.00    +0.000 A 
ATOM     23  C   UNL     1      -4.856  12.173  18.939  0.00  0.00    +0.000 A 
ATOM     24  C   UNL     1      -5.229  11.742  17.671  0.00  0.00    +0.000 A 
ATOM     25  F   UNL     1      -6.513  11.826  17.300  0.00  0.00    +0.000 F 
ATOM     26  C   UNL     1      -4.292  11.231  16.785  0.00  0.00    +0.000 A 
ATOM     27  C   UNL     1      -2.957  11.150  17.177  0.00  0.00    +0.000 A 
ATOM     28  F   UNL     1      -2.071  10.662  16.295  0.00  0.00    +0.000 F 
ENDBRANCH  18  21
ENDBRANCH   1  19
TORSDOF 3
ENDMDL
MODEL 2
REMARK VINA RESULT:      -8.4      0.940      1.326
REMARK  Name = 
REMARK  3 active torsions:
REMARK  status: ('A' for Active; 'I' for Inactive)
REMARK    1  A    between atoms: C_2  and  C_20
REMARK    2  A    between atoms: N_3  and  C_4
REMARK    3  A    between atoms: N_7  and  C_8
REMARK                            x       y       z     vdW  Elec       q    Type
REMARK                         _______ _______ _______ _____ _____    ______ ____
ROOT
ATOM      1  C   UNL     1       1.022  10.202  19.495  0.00  0.00    +0.000 C 
ATOM      2  C   UNL     1       1.840  10.243  18.210  0.00  0.00    +0.000 C 
ATOM      3  C   UNL     1       1.903   8.785  17.781  0.00  0.00    +0.000 C 
ATOM      4  N   UNL     1       1.990   8.045  19.030  0.00  0.00    +0.000 N 
ATOM      5  C   UNL     1       1.417   8.843  20.131  0.00  0.00    +0.000 C 
ENDROOT
BRANCH   4   6
ATOM      6  C   UNL     1       2.544   6.787  19.210  0.00  0.00    +0.000 A 
ATOM      7  C   UNL     1       2.038   5.970  20.236  0.00  0.00    +0.000 A 
ATOM      8  C   UNL     1       2.568   4.714  20.463  0.00  0.00    +0.000 A 
ATOM      9  N   UNL     1       3.560   4.183  19.735  0.00  0.00    +0.000 NA
ATOM     10  C   UNL     1       4.061   4.918  18.741  0.00  0.00    +0.000 A 
ATOM     11  C   UNL     1       5.065   4.319  17.989  0.00  0.00    +0.000 A 
ATOM     12  C   UNL     1       5.665   4.973  16.924  0.00  0.00    +0.000 A 
ATOM     13 CL   UNL     1       6.886   4.190  16.000  0.00  0.00    +0.000 Cl
ATOM     14  C   UNL     1       5.270   6.253  16.588  0.00  0.00    +0.000 A 
ATOM     15  C   UNL     1       4.250   6.862  17.323  0.00  0.00    +0.000 A 
ATOM     16  C   UNL     1       3.615   6.233  18.425  0.00  0.00    +0.000 A 
ENDBRANCH   4   6
BRANCH   1  19
ATOM     17  O   UNL     1      -0.267  12.615  19.040  0.00  0.00    +0.000 OA
ATOM     18  C   UNL     1      -0.939  11.591  18.967  0.00  0.00    +0.000 C 
ATOM     19  N   UNL     1      -0.409  10.348  19.242  0.00  0.00    +0.000 N 
ATOM     20  H   UNL     1      -0.980   9.521  19.105  0.00  0.00    +0.000 HD
BRANCH  18  21
ATOM     21  C   UNL     1      -2.366  11.671  18.552  0.00  0.00    +0.000 A 
ATOM     22  C   UNL     1      -2.696  11.277  17.241  0.00  0.00    +0.000 A 
ATOM     23  C   UNL     1      -4.021  11.313  16.803  0.00  0.00    +0.000 A 
ATOM     24  C   UNL     1      -5.017  11.742  17.672  0.00  0.00    +0.000 A 
ATOM     25  F   UNL     1      -6.288  11.772  17.251  0.00  0.00    +0.000 F 
ATOM     26  C   UNL     1      -4.717  12.134  18.968  0.00  0.00    +0.000 A 
ATOM     27  C   UNL     1      -3.392  12.096  19.402  0.00  0.00    +0.000 A 
ATOM     28  F   UNL     1      -3.133  12.470  20.664  0.00  0.00    +0.000 F 
ENDBRANCH  18  21
ENDBRANCH   1  19
TORSDOF 3
ENDMDL
MODEL 3
REMARK VINA RESULT:      -8.1      4.423      8.617
REMARK  Name = 
REMARK  3 active torsions:
REMARK  status: ('A' for Active; 'I' for Inactive)
REMARK    1  A    between atoms: C_2  and  C_20
REMARK    2  A    between atoms: N_3  and  C_4
REMARK    3  A    between atoms: N_7  and  C_8
REMARK                            x       y       z     vdW  Elec       q    Type
REMARK                         _______ _______ _______ _____ _____    ______ ____
ROOT
ATOM      1  C   UNL     1       1.832   8.895  20.143  0.00  0.00    +0.000 C 
ATOM      2  C   UNL     1       1.214   9.117  21.518  0.00  0.00    +0.000 C 
ATOM      3  C   UNL     1      -0.276   9.220  21.227  0.00  0.00    +0.000 C 
ATOM      4  N   UNL     1      -0.346   9.906  19.946  0.00  0.00    +0.000 N 
ATOM      5  C   UNL     1       0.909   9.708  19.197  0.00  0.00    +0.000 C 
ENDROOT
BRANCH   4   6
ATOM      6  C   UNL     1      -1.404  10.666  19.472  0.00  0.00    +0.000 A 
ATOM      7  C   UNL     1      -1.929  11.676  20.296  0.00  0.00    +0.000 A 
ATOM      8  C   UNL     1      -2.993  12.449  19.873  0.00  0.00    +0.000 A 
ATOM      9  N   UNL     1      -3.577  12.318  18.673  0.00  0.00    +0.000 NA
ATOM     10  C   UNL     1      -3.101  11.382  17.851  0.00  0.00    +0.000 A 
ATOM     11  C   UNL     1      -3.711  11.299  16.605  0.00  0.00    +0.000 A 
ATOM     12  C   UNL     1      -3.306  10.373  15.656  0.00  0.00    +0.000 A 
ATOM     13 CL   UNL     1      -4.067  10.318  14.115  0.00  0.00    +0.000 Cl
ATOM     14  C   UNL     1      -2.274   9.500  15.940  0.00  0.00    +0.000 A 
ATOM     15  C   UNL     1      -1.639   9.581  17.182  0.00  0.00    +0.000 A 
ATOM     16  C   UNL     1      -2.026  10.508  18.184  0.00  0.00    +0.000 A 
ENDBRANCH   4   6
BRANCH   1  19
ATOM     17  O   UNL     1       3.209   7.880  17.960  0.00  0.00    +0.000 OA
ATOM     18  C   UNL     1       2.693   7.075  18.730  0.00  0.00    +0.000 C 
ATOM     19  N   UNL     1       1.931   7.477  19.806  0.00  0.00    +0.000 N 
ATOM     20  H   UNL     1       1.579   6.782  20.456  0.00  0.00    +0.000 HD
BRANCH  18  21
ATOM     21  C   UNL     1       2.902   5.616  18.523  0.00  0.00    +0.000 A 
ATOM     22  C   UNL     1       1.900   4.895  17.846  0.00  0.00    +0.000 A 
ATOM     23  C   UNL     1       2.052   3.527  17.607  0.00  0.00    +0.000 A 
ATOM     24  C   UNL     1       3.201   2.879  18.044  0.00  0.00    +0.000 A 
ATOM     25  F   UNL     1       3.345   1.568  17.810  0.00  0.00    +0.000 F 
ATOM     26  C   UNL     1       4.201   3.568  18.713  0.00  0.00    +0.000 A 
ATOM     27  C   UNL     1       4.047   4.934  18.949  0.00  0.00    +0.000 A 
ATOM     28  F   UNL     1       5.036   5.577  19.588  0.00  0.00    +0.000 F 
ENDBRANCH  18  21
ENDBRANCH   1  19
TORSDOF 3
ENDMDL
MODEL 4
REMARK VINA RESULT:      -8.0      3.986      8.512
REMARK  Name = 
REMARK  3 active torsions:
REMARK  status: ('A' for Active; 'I' for Inactive)
REMARK    1  A    between atoms: C_2  and  C_20
REMARK    2  A    between atoms: N_3  and  C_4
REMARK    3  A    between atoms: N_7  and  C_8
REMARK                            x       y       z     vdW  Elec       q    Type
REMARK                         _______ _______ _______ _____ _____    ______ ____
ROOT
ATOM      1  C   UNL     1       1.985   8.558  20.467  0.00  0.00    +0.000 C 
ATOM      2  C   UNL     1       1.347   8.771  21.834  0.00  0.00    +0.000 C 
ATOM      3  C   UNL     1      -0.125   8.978  21.512  0.00  0.00    +0.000 C 
ATOM      4  N   UNL     1      -0.120   9.710  20.255  0.00  0.00    +0.000 N 
ATOM      5  C   UNL     1       1.140   9.459  19.529  0.00  0.00    +0.000 C 
ENDROOT
BRANCH   4   6
ATOM      6  C   UNL     1      -1.116  10.551  19.783  0.00  0.00    +0.000 A 
ATOM      7  C   UNL     1      -1.575  11.584  20.618  0.00  0.00    +0.000 A 
ATOM      8  C   UNL     1      -2.577  12.438  20.197  0.00  0.00    +0.000 A 
ATOM      9  N   UNL     1      -3.157  12.367  18.991  0.00  0.00    +0.000 NA
ATOM     10  C   UNL     1      -2.741  11.411  18.159  0.00  0.00    +0.000 A 
ATOM     11  C   UNL     1      -3.343  11.390  16.907  0.00  0.00    +0.000 A 
ATOM     12  C   UNL     1      -2.997  10.451  15.948  0.00  0.00    +0.000 A 
ATOM     13 CL   UNL     1      -3.746  10.474  14.399  0.00  0.00    +0.000 Cl
ATOM     14  C   UNL     1      -2.033   9.502  16.226  0.00  0.00    +0.000 A 
ATOM     15  C   UNL     1      -1.406   9.520  17.475  0.00  0.00    +0.000 A 
ATOM     16  C   UNL     1      -1.735  10.457  18.488  0.00  0.00    +0.000 A 
ENDBRANCH   4   6
BRANCH   1  19
ATOM     17  O   UNL     1       3.334   7.536  18.270  0.00  0.00    +0.000 OA
ATOM     18  C   UNL     1       2.759   6.738  19.004  0.00  0.00    +0.000 C 
ATOM     19  N   UNL     1       2.005   7.149  20.082  0.00  0.00    +0.000 N 
ATOM     20  H   UNL     1       1.601   6.455  20.703  0.00  0.00    +0.000 HD
BRANCH  18  21
ATOM     21  C   UNL     1       2.884   5.277  18.749  0.00  0.00    +0.000 A 
ATOM     22  C   UNL     1       3.931   4.583  19.384  0.00  0.00    +0.000 A 
ATOM     23  C   UNL     1       4.085   3.208  19.197  0.00  0.00    +0.000 A 
ATOM     24  C   UNL     1       3.195   2.525  18.376  0.00  0.00    +0.000 A 
ATOM     25  F   UNL     1       3.342   1.206  18.201  0.00  0.00    +0.000 F 
ATOM     26  C   UNL     1       2.155   3.187  17.741  0.00  0.00    +0.000 A 
ATOM     27  C   UNL     1       2.005   4.560  17.931  0.00  0.00    +0.000 A 
ATOM     28  F   UNL     1       0.983   5.172  17.312  0.00  0.00    +0.000 F 
ENDBRANCH  18  21
ENDBRANCH   1  19
TORSDOF 3
ENDMDL
MODEL 5
REMARK VINA RESULT:      -7.8      1.652      2.582
REMARK  Name = 
REMARK  3 active torsions:
REMARK  status: ('A' for Active; 'I' for Inactive)
REMARK    1  A    between atoms: C_2  and  C_20
REMARK    2  A    between atoms: N_3  and  C_4
REMARK    3  A    between atoms: N_7  and  C_8
REMARK                            x       y       z     vdW  Elec       q    Type
REMARK                         _______ _______ _______ _____ _____    ______ ____
ROOT
ATOM      1  C   UNL     1       0.951  10.201  19.477  0.00  0.00    +0.000 C 
ATOM      2  C   UNL     1       1.830  10.689  18.333  0.00  0.00    +0.000 C 
ATOM      3  C   UNL     1       2.104   9.427  17.529  0.00  0.00    +0.000 C 
ATOM      4  N   UNL     1       2.211   8.378  18.531  0.00  0.00    +0.000 N 
ATOM      5  C   UNL     1       1.477   8.767  19.751  0.00  0.00    +0.000 C 
ENDROOT
BRANCH   4   6
ATOM      6  C   UNL     1       2.909   7.186  18.410  0.00  0.00    +0.000 A 
ATOM      7  C   UNL     1       3.909   7.090  17.427  0.00  0.00    +0.000 A 
ATOM      8  C   UNL     1       4.621   5.918  17.258  0.00  0.00    +0.000 A 
ATOM      9  N   UNL     1       4.438   4.821  18.008  0.00  0.00    +0.000 NA
ATOM     10  C   UNL     1       3.509   4.874  18.965  0.00  0.00    +0.000 A 
ATOM     11  C   UNL     1       3.372   3.729  19.741  0.00  0.00    +0.000 A 
ATOM     12  C   UNL     1       2.447   3.656  20.772  0.00  0.00    +0.000 A 
ATOM     13 CL   UNL     1       2.325   2.231  21.729  0.00  0.00    +0.000 Cl
ATOM     14  C   UNL     1       1.631   4.735  21.046  0.00  0.00    +0.000 A 
ATOM     15  C   UNL     1       1.768   5.899  20.286  0.00  0.00    +0.000 A 
ATOM     16  C   UNL     1       2.695   6.015  19.217  0.00  0.00    +0.000 A 
ENDBRANCH   4   6
BRANCH   1  19
ATOM     17  O   UNL     1      -0.590  12.507  19.518  0.00  0.00    +0.000 OA
ATOM     18  C   UNL     1      -1.128  11.471  19.137  0.00  0.00    +0.000 C 
ATOM     19  N   UNL     1      -0.470  10.260  19.143  0.00  0.00    +0.000 N 
ATOM     20  H   UNL     1      -0.928   9.441  18.758  0.00  0.00    +0.000 HD
BRANCH  18  21
ATOM     21  C   UNL     1      -2.527  11.508  18.631  0.00  0.00    +0.000 A 
ATOM     22  C   UNL     1      -3.510  12.098  19.450  0.00  0.00    +0.000 A 
ATOM     23  C   UNL     1      -4.836  12.177  19.018  0.00  0.00    +0.000 A 
ATOM     24  C   UNL     1      -5.182  11.669  17.771  0.00  0.00    +0.000 A 
ATOM     25  F   UNL     1      -6.453  11.749  17.359  0.00  0.00    +0.000 F 
ATOM     26  C   UNL     1      -4.231  11.084  16.948  0.00  0.00    +0.000 A 
ATOM     27  C   UNL     1      -2.908  11.007  17.382  0.00  0.00    +0.000 A 
ATOM     28  F   UNL     1      -2.008  10.447  16.560  0.00  0.00    +0.000 F 
ENDBRANCH  18  21
ENDBRANCH   1  19
TORSDOF 3
ENDMDL
MODEL 6
REMARK VINA RESULT:      -7.8      4.368      8.534
REMARK  Name = 
REMARK  3 active torsions:
REMARK  status: ('A' for Active; 'I' for Inactive)
REMARK    1  A    between atoms: C_2  and  C_20
REMARK    2  A    between atoms: N_3  and  C_4
REMARK    3  A    between atoms: N_7  and  C_8
REMARK                            x       y       z     vdW  Elec       q    Type
REMARK                         _______ _______ _______ _____ _____    ______ ____
ROOT
ATOM      1  C   UNL     1       1.706   8.781  21.141  0.00  0.00    +0.000 C 
ATOM      2  C   UNL     1       1.146   9.201  22.494  0.00  0.00    +0.000 C 
ATOM      3  C   UNL     1      -0.322   9.475  22.204  0.00  0.00    +0.000 C 
ATOM      4  N   UNL     1      -0.323  10.051  20.868  0.00  0.00    +0.000 N 
ATOM      5  C   UNL     1       0.882   9.624  20.131  0.00  0.00    +0.000 C 
ENDROOT
BRANCH   4   6
ATOM      6  C   UNL     1      -1.280  10.901  20.334  0.00  0.00    +0.000 A 
ATOM      7  C   UNL     1      -1.742  11.970  21.120  0.00  0.00    +0.000 A 
ATOM      8  C   UNL     1      -2.706  12.835  20.637  0.00  0.00    +0.000 A 
ATOM      9  N   UNL     1      -3.244  12.741  19.413  0.00  0.00    +0.000 NA
ATOM     10  C   UNL     1      -2.823  11.749  18.627  0.00  0.00    +0.000 A 
ATOM     11  C   UNL     1      -3.380  11.704  17.354  0.00  0.00    +0.000 A 
ATOM     12  C   UNL     1      -3.023  10.727  16.437  0.00  0.00    +0.000 A 
ATOM     13 CL   UNL     1      -3.715  10.720  14.862  0.00  0.00    +0.000 Cl
ATOM     14  C   UNL     1      -2.095   9.764  16.780  0.00  0.00    +0.000 A 
ATOM     15  C   UNL     1      -1.513   9.805  18.049  0.00  0.00    +0.000 A 
ATOM     16  C   UNL     1      -1.854  10.782  19.021  0.00  0.00    +0.000 A 
ENDBRANCH   4   6
BRANCH   1  19
ATOM     17  O   UNL     1       2.653   7.445  18.903  0.00  0.00    +0.000 OA
ATOM     18  C   UNL     1       2.171   6.768  19.806  0.00  0.00    +0.000 C 
ATOM     19  N   UNL     1       1.612   7.339  20.929  0.00  0.00    +0.000 N 
ATOM     20  H   UNL     1       1.284   6.743  21.682  0.00  0.00    +0.000 HD
BRANCH  18  21
ATOM     21  C   UNL     1       2.199   5.283  19.712  0.00  0.00    +0.000 A 
ATOM     22  C   UNL     1       1.206   4.559  20.401  0.00  0.00    +0.000 A 
ATOM     23  C   UNL     1       1.172   3.165  20.334  0.00  0.00    +0.000 A 
ATOM     24  C   UNL     1       2.128   2.492  19.581  0.00  0.00    +0.000 A 
ATOM     25  F   UNL     1       2.091   1.155  19.515  0.00  0.00    +0.000 F 
ATOM     26  C   UNL     1       3.115   3.184  18.894  0.00  0.00    +0.000 A 
ATOM     27  C   UNL     1       3.145   4.576  18.963  0.00  0.00    +0.000 A 
ATOM     28  F   UNL     1       4.104   5.218  18.279  0.00  0.00    +0.000 F 
ENDBRANCH  18  21
ENDBRANCH   1  19
TORSDOF 3
ENDMDL
MODEL 7
REMARK VINA RESULT:      -7.7      4.945      9.287
REMARK  Name = 
REMARK  3 active torsions:
REMARK  status: ('A' for Active; 'I' for Inactive)
REMARK    1  A    between atoms: C_2  and  C_20
REMARK    2  A    between atoms: N_3  and  C_4
REMARK    3  A    between atoms: N_7  and  C_8
REMARK                            x       y       z     vdW  Elec       q    Type
REMARK                         _______ _______ _______ _____ _____    ______ ____
ROOT
ATOM      1  C   UNL     1       1.935   8.621  20.542  0.00  0.00    +0.000 C 
ATOM      2  C   UNL     1       1.240   8.775  21.889  0.00  0.00    +0.000 C 
ATOM      3  C   UNL     1      -0.227   8.938  21.517  0.00  0.00    +0.000 C 
ATOM      4  N   UNL     1      -0.202   9.703  20.281  0.00  0.00    +0.000 N 
ATOM      5  C   UNL     1       1.092   9.517  19.596  0.00  0.00    +0.000 C 
ENDROOT
BRANCH   4   6
ATOM      6  C   UNL     1      -1.210  10.521  19.794  0.00  0.00    +0.000 A 
ATOM      7  C   UNL     1      -1.730  10.257  18.515  0.00  0.00    +0.000 A 
ATOM      8  C   UNL     1      -2.725  11.054  17.980  0.00  0.00    +0.000 A 
ATOM      9  N   UNL     1      -3.273  12.094  18.625  0.00  0.00    +0.000 NA
ATOM     10  C   UNL     1      -2.820  12.371  19.849  0.00  0.00    +0.000 A 
ATOM     11  C   UNL     1      -3.435  13.435  20.498  0.00  0.00    +0.000 A 
ATOM     12  C   UNL     1      -3.062  13.822  21.776  0.00  0.00    +0.000 A 
ATOM     13 CL   UNL     1      -3.865  15.128  22.557  0.00  0.00    +0.000 Cl
ATOM     14  C   UNL     1      -2.055  13.147  22.436  0.00  0.00    +0.000 A 
ATOM     15  C   UNL     1      -1.438  12.063  21.805  0.00  0.00    +0.000 A 
ATOM     16  C   UNL     1      -1.782  11.639  20.495  0.00  0.00    +0.000 A 
ENDBRANCH   4   6
BRANCH   1  19
ATOM     17  O   UNL     1       3.117   7.743  18.191  0.00  0.00    +0.000 OA
ATOM     18  C   UNL     1       2.684   6.891  18.961  0.00  0.00    +0.000 C 
ATOM     19  N   UNL     1       2.019   7.225  20.122  0.00  0.00    +0.000 N 
ATOM     20  H   UNL     1       1.737   6.491  20.764  0.00  0.00    +0.000 HD
BRANCH  18  21
ATOM     21  C   UNL     1       2.890   5.449  18.659  0.00  0.00    +0.000 A 
ATOM     22  C   UNL     1       1.875   4.769  17.959  0.00  0.00    +0.000 A 
ATOM     23  C   UNL     1       2.023   3.419  17.632  0.00  0.00    +0.000 A 
ATOM     24  C   UNL     1       3.182   2.748  18.003  0.00  0.00    +0.000 A 
ATOM     25  F   UNL     1       3.323   1.455  17.685  0.00  0.00    +0.000 F 
ATOM     26  C   UNL     1       4.196   3.397  18.692  0.00  0.00    +0.000 A 
ATOM     27  C   UNL     1       4.044   4.744  19.017  0.00  0.00    +0.000 A 
ATOM     28  F   UNL     1       5.046   5.349  19.674  0.00  0.00    +0.000 F 
ENDBRANCH  18  21
ENDBRANCH   1  19
TORSDOF 3
ENDMDL
MODEL 8
REMARK VINA RESULT:      -7.7      4.287      8.626
REMARK  Name = 
REMARK  3 active torsions:
REMARK  status: ('A' for Active; 'I' for Inactive)
REMARK    1  A    between atoms: C_2  and  C_20
REMARK    2  A    between atoms: N_3  and  C_4
REMARK    3  A    between atoms: N_7  and  C_8
REMARK                            x       y       z     vdW  Elec       q    Type
REMARK                         _______ _______ _______ _____ _____    ______ ____
ROOT
ATOM      1  C   UNL     1       1.341   9.802  19.859  0.00  0.00    +0.000 C 
ATOM      2  C   UNL     1       0.924  10.562  21.112  0.00  0.00    +0.000 C 
ATOM      3  C   UNL     1      -0.596  10.515  21.067  0.00  0.00    +0.000 C 
ATOM      4  N   UNL     1      -0.918  10.611  19.652  0.00  0.00    +0.000 N 
ATOM      5  C   UNL     1       0.220  10.139  18.841  0.00  0.00    +0.000 C 
ENDROOT
BRANCH   4   6
ATOM      6  C   UNL     1      -2.096  11.092  19.102  0.00  0.00    +0.000 A 
ATOM      7  C   UNL     1      -2.889  11.964  19.869  0.00  0.00    +0.000 A 
ATOM      8  C   UNL     1      -4.079  12.458  19.369  0.00  0.00    +0.000 A 
ATOM      9  N   UNL     1      -4.548  12.174  18.146  0.00  0.00    +0.000 NA
ATOM     10  C   UNL     1      -3.820  11.362  17.378  0.00  0.00    +0.000 A 
ATOM     11  C   UNL     1      -4.322  11.117  16.105  0.00  0.00    +0.000 A 
ATOM     12  C   UNL     1      -3.659  10.296  15.206  0.00  0.00    +0.000 A 
ATOM     13 CL   UNL     1      -4.299  10.038  13.631  0.00  0.00    +0.000 Cl
ATOM     14  C   UNL     1      -2.470   9.695  15.567  0.00  0.00    +0.000 A 
ATOM     15  C   UNL     1      -1.942   9.945  16.836  0.00  0.00    +0.000 A 
ATOM     16  C   UNL     1      -2.591  10.771  17.790  0.00  0.00    +0.000 A 
ENDBRANCH   4   6
BRANCH   1  19
ATOM     17  O   UNL     1       2.740   8.055  18.220  0.00  0.00    +0.000 OA
ATOM     18  C   UNL     1       2.275   7.605  19.263  0.00  0.00    +0.000 C 
ATOM     19  N   UNL     1       1.507   8.373  20.112  0.00  0.00    +0.000 N 
ATOM     20  H   UNL     1       1.198   7.982  20.996  0.00  0.00    +0.000 HD
BRANCH  18  21
ATOM     21  C   UNL     1       2.554   6.195  19.648  0.00  0.00    +0.000 A 
ATOM     22  C   UNL     1       1.628   5.544  20.487  0.00  0.00    +0.000 A 
ATOM     23  C   UNL     1       1.829   4.215  20.866  0.00  0.00    +0.000 A 
ATOM     24  C   UNL     1       2.952   3.536  20.408  0.00  0.00    +0.000 A 
ATOM     25  F   UNL     1       3.140   2.260  20.770  0.00  0.00    +0.000 F 
ATOM     26  C   UNL     1       3.877   4.155  19.581  0.00  0.00    +0.000 A 
ATOM     27  C   UNL     1       3.672   5.482  19.205  0.00  0.00    +0.000 A 
ATOM     28  F   UNL     1       4.578   6.052  18.395  0.00  0.00    +0.000 F 
ENDBRANCH  18  21
ENDBRANCH   1  19
TORSDOF 3
ENDMDL
MODEL 9
REMARK VINA RESULT:      -7.7      2.459      2.876
REMARK  Name = 
REMARK  3 active torsions:
REMARK  status: ('A' for Active; 'I' for Inactive)
REMARK    1  A    between atoms: C_2  and  C_20
REMARK    2  A    between atoms: N_3  and  C_4
REMARK    3  A    between atoms: N_7  and  C_8
REMARK                            x       y       z     vdW  Elec       q    Type
REMARK                         _______ _______ _______ _____ _____    ______ ____
ROOT
ATOM      1  C   UNL     1       0.909  10.613  21.106  0.00  0.00    +0.000 C 
ATOM      2  C   UNL     1       1.185  10.763  19.615  0.00  0.00    +0.000 C 
ATOM      3  C   UNL     1       0.945   9.364  19.066  0.00  0.00    +0.000 C 
ATOM      4  N   UNL     1       1.424   8.478  20.115  0.00  0.00    +0.000 N 
ATOM      5  C   UNL     1       1.385   9.170  21.419  0.00  0.00    +0.000 C 
ENDROOT
BRANCH   4   6
ATOM      6  C   UNL     1       1.885   7.181  19.956  0.00  0.00    +0.000 A 
ATOM      7  C   UNL     1       1.441   6.195  20.855  0.00  0.00    +0.000 A 
ATOM      8  C   UNL     1       1.884   4.890  20.745  0.00  0.00    +0.000 A 
ATOM      9  N   UNL     1       2.727   4.468  19.792  0.00  0.00    +0.000 NA
ATOM     10  C   UNL     1       3.161   5.368  18.908  0.00  0.00    +0.000 A 
ATOM     11  C   UNL     1       4.007   4.885  17.916  0.00  0.00    +0.000 A 
ATOM     12  C   UNL     1       4.524   5.714  16.933  0.00  0.00    +0.000 A 
ATOM     13 CL   UNL     1       5.547   5.075  15.706  0.00  0.00    +0.000 Cl
ATOM     14  C   UNL     1       4.204   7.057  16.923  0.00  0.00    +0.000 A 
ATOM     15  C   UNL     1       3.341   7.555  17.903  0.00  0.00    +0.000 A 
ATOM     16  C   UNL     1       2.796   6.744  18.932  0.00  0.00    +0.000 A 
ENDBRANCH   4   6
BRANCH   1  19
ATOM     17  O   UNL     1      -0.041  12.908  22.341  0.00  0.00    +0.000 OA
ATOM     18  C   UNL     1      -0.865  12.067  21.995  0.00  0.00    +0.000 C 
ATOM     19  N   UNL     1      -0.491  10.864  21.436  0.00  0.00    +0.000 N 
ATOM     20  H   UNL     1      -1.206  10.225  21.103  0.00  0.00    +0.000 HD
BRANCH  18  21
ATOM     21  C   UNL     1      -2.318  12.345  22.160  0.00  0.00    +0.000 A 
ATOM     22  C   UNL     1      -2.843  12.363  23.466  0.00  0.00    +0.000 A 
ATOM     23  C   UNL     1      -4.195  12.637  23.681  0.00  0.00    +0.000 A 
ATOM     24  C   UNL     1      -5.024  12.892  22.594  0.00  0.00    +0.000 A 
ATOM     25  F   UNL     1      -6.319  13.158  22.804  0.00  0.00    +0.000 F 
ATOM     26  C   UNL     1      -4.529  12.880  21.299  0.00  0.00    +0.000 A 
ATOM     27  C   UNL     1      -3.178  12.607  21.089  0.00  0.00    +0.000 A 
ATOM     28  F   UNL     1      -2.725  12.614  19.825  0.00  0.00    +0.000 F 
ENDBRANCH  18  21
ENDBRANCH   1  19
TORSDOF 3
ENDMDL
