MODEL 1
REMARK VINA RESULT:      -8.0      0.000      0.000
REMARK  Name = 
REMARK  8 active torsions:
REMARK  status: ('A' for Active; 'I' for Inactive)
REMARK    1  A    between atoms: C_1  and  S_2
REMARK    2  A    between atoms: S_2  and  N_5
REMARK    3  A    between atoms: N_5  and  C_6
REMARK    4  A    between atoms: C_9  and  N_10
REMARK    5  A    between atoms: C_14  and  O_15
REMARK    6  A    between atoms: O_15  and  C_16
REMARK    7  A    between atoms: C_16  and  C_17
REMARK    8  A    between atoms: C_22  and  C_23
REMARK                            x       y       z     vdW  Elec       q    Type
REMARK                         _______ _______ _______ _____ _____    ______ ____
ROOT
ATOM      1  C   UNL     1      -0.602  10.255  18.563  0.00  0.00    +0.000 A 
ATOM      2  C   UNL     1      -1.301  11.062  19.469  0.00  0.00    +0.000 A 
ATOM      3  C   UNL     1      -1.006  11.037  20.831  0.00  0.00    +0.000 A 
ATOM      4  C   UNL     1      -0.008  10.175  21.296  0.00  0.00    +0.000 A 
ATOM      5  C   UNL     1       0.686   9.353  20.409  0.00  0.00    +0.000 A 
ATOM      6  C   UNL     1       0.393   9.374  19.037  0.00  0.00    +0.000 A 
ENDROOT
BRANCH   4   7
ATOM      7  N   UNL     1       0.326  10.159  22.727  0.00  0.00    +0.000 N 
ATOM      8  O   UNL     1       1.348   9.546  23.070  0.00  0.00    +0.000 OA
ATOM      9  O   UNL     1      -0.429  10.765  23.499  0.00  0.00    +0.000 OA
ENDBRANCH   4   7
BRANCH   1  10
ATOM     10  N   UNL     1      -0.991  10.438  17.203  0.00  0.00    +0.000 N 
ATOM     11  H   UNL     1      -0.450  11.078  16.625  0.00  0.00    +0.000 HD
BRANCH  10  13
ATOM     12  C   UNL     1      -2.512   9.992  15.052  0.00  0.00    +0.000 C 
ATOM     13  S   UNL     1      -2.622  10.363  16.790  0.00  0.00    +0.000 S 
ATOM     14  O   UNL     1      -3.115  11.721  16.913  0.00  0.00    +0.000 OA
ATOM     15  O   UNL     1      -3.252   9.254  17.462  0.00  0.00    +0.000 OA
ENDBRANCH  10  13
ENDBRANCH   1  10
BRANCH   6  16
ATOM     16  O   UNL     1       1.242   8.569  18.327  0.00  0.00    +0.000 OA
BRANCH  16  17
ATOM     17  C   UNL     1       2.178   7.769  19.043  0.00  0.00    +0.000 C 
BRANCH  17  18
ATOM     18  C   UNL     1       3.098   6.977  18.133  0.00  0.00    +0.000 A 
ATOM     19  C   UNL     1       3.913   7.691  17.222  0.00  0.00    +0.000 A 
ATOM     20  C   UNL     1       4.763   7.035  16.338  0.00  0.00    +0.000 A 
ATOM     21  C   UNL     1       4.805   5.652  16.343  0.00  0.00    +0.000 A 
ATOM     22  C   UNL     1       4.009   4.927  17.238  0.00  0.00    +0.000 A 
ATOM     23  C   UNL     1       3.149   5.552  18.170  0.00  0.00    +0.000 A 
BRANCH  23  24
ATOM     24  C   UNL     1       2.407   4.697  19.159  0.00  0.00    +0.000 A 
ATOM     25  C   UNL     1       1.376   3.834  18.740  0.00  0.00    +0.000 A 
ATOM     26  C   UNL     1       0.721   2.970  19.630  0.00  0.00    +0.000 A 
ATOM     27  C   UNL     1       1.113   2.905  20.961  0.00  0.00    +0.000 A 
ATOM     28  C   UNL     1       2.099   3.766  21.418  0.00  0.00    +0.000 A 
ATOM     29  C   UNL     1       2.680   4.685  20.538  0.00  0.00    +0.000 A 
ENDBRANCH  23  24
ENDBRANCH  17  18
ENDBRANCH  16  17
ENDBRANCH   6  16
TORSDOF 7
ENDMDL
MODEL 2
REMARK VINA RESULT:      -8.0      5.272      8.786
REMARK  Name = 
REMARK  8 active torsions:
REMARK  status: ('A' for Active; 'I' for Inactive)
REMARK    1  A    between atoms: C_1  and  S_2
REMARK    2  A    between atoms: S_2  and  N_5
REMARK    3  A    between atoms: N_5  and  C_6
REMARK    4  A    between atoms: C_9  and  N_10
REMARK    5  A    between atoms: C_14  and  O_15
REMARK    6  A    between atoms: O_15  and  C_16
REMARK    7  A    between atoms: C_16  and  C_17
REMARK    8  A    between atoms: C_22  and  C_23
REMARK                            x       y       z     vdW  Elec       q    Type
REMARK                         _______ _______ _______ _____ _____    ______ ____
ROOT
ATOM      1  C   UNL     1       6.925   4.835  15.498  0.00  0.00    +0.000 A 
ATOM      2  C   UNL     1       7.497   5.090  14.245  0.00  0.00    +0.000 A 
ATOM      3  C   UNL     1       6.983   4.511  13.087  0.00  0.00    +0.000 A 
ATOM      4  C   UNL     1       5.887   3.647  13.186  0.00  0.00    +0.000 A 
ATOM      5  C   UNL     1       5.315   3.371  14.427  0.00  0.00    +0.000 A 
ATOM      6  C   UNL     1       5.830   3.950  15.597  0.00  0.00    +0.000 A 
ENDROOT
BRANCH   4   7
ATOM      7  N   UNL     1       5.322   3.051  11.968  0.00  0.00    +0.000 N 
ATOM      8  O   UNL     1       5.936   2.104  11.456  0.00  0.00    +0.000 OA
ATOM      9  O   UNL     1       4.264   3.528  11.533  0.00  0.00    +0.000 OA
ENDBRANCH   4   7
BRANCH   1  10
ATOM     10  N   UNL     1       7.538   5.545  16.572  0.00  0.00    +0.000 N 
ATOM     11  H   UNL     1       8.212   5.055  17.156  0.00  0.00    +0.000 HD
BRANCH  10  13
ATOM     12  C   UNL     1       7.929   7.944  17.681  0.00  0.00    +0.000 C 
ATOM     13  S   UNL     1       6.662   6.727  17.391  0.00  0.00    +0.000 S 
ATOM     14  O   UNL     1       6.325   6.139  18.673  0.00  0.00    +0.000 OA
ATOM     15  O   UNL     1       5.664   7.295  16.521  0.00  0.00    +0.000 OA
ENDBRANCH  10  13
ENDBRANCH   1  10
BRANCH   6  16
ATOM     16  O   UNL     1       5.077   3.629  16.693  0.00  0.00    +0.000 OA
BRANCH  16  17
ATOM     17  C   UNL     1       3.898   4.384  16.953  0.00  0.00    +0.000 C 
BRANCH  17  18
ATOM     18  C   UNL     1       2.993   3.732  17.982  0.00  0.00    +0.000 A 
ATOM     19  C   UNL     1       2.974   2.320  18.057  0.00  0.00    +0.000 A 
ATOM     20  C   UNL     1       2.153   1.649  18.957  0.00  0.00    +0.000 A 
ATOM     21  C   UNL     1       1.327   2.381  19.792  0.00  0.00    +0.000 A 
ATOM     22  C   UNL     1       1.332   3.780  19.736  0.00  0.00    +0.000 A 
ATOM     23  C   UNL     1       2.168   4.504  18.854  0.00  0.00    +0.000 A 
BRANCH  23  24
ATOM     24  C   UNL     1       2.179   6.005  18.935  0.00  0.00    +0.000 A 
ATOM     25  C   UNL     1       2.424   6.789  17.791  0.00  0.00    +0.000 A 
ATOM     26  C   UNL     1       2.364   8.190  17.822  0.00  0.00    +0.000 A 
ATOM     27  C   UNL     1       2.006   8.851  18.991  0.00  0.00    +0.000 A 
ATOM     28  C   UNL     1       1.793   8.114  20.146  0.00  0.00    +0.000 A 
ATOM     29  C   UNL     1       1.945   6.723  20.120  0.00  0.00    +0.000 A 
ENDBRANCH  23  24
ENDBRANCH  17  18
ENDBRANCH  16  17
ENDBRANCH   6  16
TORSDOF 7
ENDMDL
MODEL 3
REMARK VINA RESULT:      -7.9      5.319      8.819
REMARK  Name = 
REMARK  8 active torsions:
REMARK  status: ('A' for Active; 'I' for Inactive)
REMARK    1  A    between atoms: C_1  and  S_2
REMARK    2  A    between atoms: S_2  and  N_5
REMARK    3  A    between atoms: N_5  and  C_6
REMARK    4  A    between atoms: C_9  and  N_10
REMARK    5  A    between atoms: C_14  and  O_15
REMARK    6  A    between atoms: O_15  and  C_16
REMARK    7  A    between atoms: C_16  and  C_17
REMARK    8  A    between atoms: C_22  and  C_23
REMARK                            x       y       z     vdW  Elec       q    Type
REMARK                         _______ _______ _______ _____ _____    ______ ____
ROOT
ATOM      1  C   UNL     1       5.990   5.095  16.530  0.00  0.00    +0.000 A 
ATOM      2  C   UNL     1       6.801   5.633  15.522  0.00  0.00    +0.000 A 
ATOM      3  C   UNL     1       6.785   5.111  14.230  0.00  0.00    +0.000 A 
ATOM      4  C   UNL     1       5.957   4.020  13.946  0.00  0.00    +0.000 A 
ATOM      5  C   UNL     1       5.155   3.463  14.943  0.00  0.00    +0.000 A 
ATOM      6  C   UNL     1       5.168   3.984  16.245  0.00  0.00    +0.000 A 
ENDROOT
BRANCH   4   7
ATOM      7  N   UNL     1       5.915   3.478  12.581  0.00  0.00    +0.000 N 
ATOM      8  O   UNL     1       4.802   3.208  12.106  0.00  0.00    +0.000 OA
ATOM      9  O   UNL     1       6.993   3.333  11.988  0.00  0.00    +0.000 OA
ENDBRANCH   4   7
BRANCH   1  10
ATOM     10  N   UNL     1       6.089   5.776  17.779  0.00  0.00    +0.000 N 
ATOM     11  H   UNL     1       5.706   6.717  17.852  0.00  0.00    +0.000 HD
BRANCH  10  13
ATOM     12  C   UNL     1       8.266   7.075  18.624  0.00  0.00    +0.000 C 
ATOM     13  S   UNL     1       7.428   5.510  18.765  0.00  0.00    +0.000 S 
ATOM     14  O   UNL     1       8.232   4.524  18.068  0.00  0.00    +0.000 OA
ATOM     15  O   UNL     1       7.009   5.330  20.132  0.00  0.00    +0.000 OA
ENDBRANCH  10  13
ENDBRANCH   1  10
BRANCH   6  16
ATOM     16  O   UNL     1       4.251   3.363  17.046  0.00  0.00    +0.000 OA
BRANCH  16  17
ATOM     17  C   UNL     1       3.005   4.012  17.285  0.00  0.00    +0.000 C 
BRANCH  17  18
ATOM     18  C   UNL     1       2.443   3.727  18.665  0.00  0.00    +0.000 A 
ATOM     19  C   UNL     1       2.371   2.379  19.091  0.00  0.00    +0.000 A 
ATOM     20  C   UNL     1       1.846   2.036  20.333  0.00  0.00    +0.000 A 
ATOM     21  C   UNL     1       1.373   3.035  21.165  0.00  0.00    +0.000 A 
ATOM     22  C   UNL     1       1.437   4.375  20.763  0.00  0.00    +0.000 A 
ATOM     23  C   UNL     1       1.985   4.772  19.521  0.00  0.00    +0.000 A 
BRANCH  23  24
ATOM     24  C   UNL     1       2.104   6.239  19.218  0.00  0.00    +0.000 A 
ATOM     25  C   UNL     1       2.602   6.683  17.978  0.00  0.00    +0.000 A 
ATOM     26  C   UNL     1       2.652   8.044  17.640  0.00  0.00    +0.000 A 
ATOM     27  C   UNL     1       2.157   9.003  18.515  0.00  0.00    +0.000 A 
ATOM     28  C   UNL     1       1.693   8.606  19.760  0.00  0.00    +0.000 A 
ATOM     29  C   UNL     1       1.734   7.254  20.117  0.00  0.00    +0.000 A 
ENDBRANCH  23  24
ENDBRANCH  17  18
ENDBRANCH  16  17
ENDBRANCH   6  16
TORSDOF 7
ENDMDL
MODEL 4
REMARK VINA RESULT:      -7.8      1.560      3.281
REMARK  Name = 
REMARK  8 active torsions:
REMARK  status: ('A' for Active; 'I' for Inactive)
REMARK    1  A    between atoms: C_1  and  S_2
REMARK    2  A    between atoms: S_2  and  N_5
REMARK    3  A    between atoms: N_5  and  C_6
REMARK    4  A    between atoms: C_9  and  N_10
REMARK    5  A    between atoms: C_14  and  O_15
REMARK    6  A    between atoms: O_15  and  C_16
REMARK    7  A    between atoms: C_16  and  C_17
REMARK    8  A    between atoms: C_22  and  C_23
REMARK                            x       y       z     vdW  Elec       q    Type
REMARK                         _______ _______ _______ _____ _____    ______ ____
ROOT
ATOM      1  C   UNL     1      -0.067   9.798  18.733  0.00  0.00    +0.000 A 
ATOM      2  C   UNL     1      -0.736  10.512  19.736  0.00  0.00    +0.000 A 
ATOM      3  C   UNL     1      -0.329  10.438  21.066  0.00  0.00    +0.000 A 
ATOM      4  C   UNL     1       0.756   9.621  21.401  0.00  0.00    +0.000 A 
ATOM      5  C   UNL     1       1.423   8.892  20.417  0.00  0.00    +0.000 A 
ATOM      6  C   UNL     1       1.016   8.962  19.077  0.00  0.00    +0.000 A 
ENDROOT
BRANCH   4   7
ATOM      7  N   UNL     1       1.209   9.555  22.798  0.00  0.00    +0.000 N 
ATOM      8  O   UNL     1       0.344   9.623  23.684  0.00  0.00    +0.000 OA
ATOM      9  O   UNL     1       2.424   9.429  23.002  0.00  0.00    +0.000 OA
ENDBRANCH   4   7
BRANCH   1  10
ATOM     10  N   UNL     1      -0.578  10.023  17.421  0.00  0.00    +0.000 N 
ATOM     11  H   UNL     1       0.014  10.497  16.743  0.00  0.00    +0.000 HD
BRANCH  10  13
ATOM     12  C   UNL     1      -2.427   9.899  15.495  0.00  0.00    +0.000 C 
ATOM     13  S   UNL     1      -2.223  10.323  17.212  0.00  0.00    +0.000 S 
ATOM     14  O   UNL     1      -2.371  11.762  17.324  0.00  0.00    +0.000 OA
ATOM     15  O   UNL     1      -2.998   9.408  18.011  0.00  0.00    +0.000 OA
ENDBRANCH  10  13
ENDBRANCH   1  10
BRANCH   6  16
ATOM     16  O   UNL     1       1.850   8.251  18.258  0.00  0.00    +0.000 OA
BRANCH  16  17
ATOM     17  C   UNL     1       2.805   7.378  18.854  0.00  0.00    +0.000 C 
BRANCH  17  18
ATOM     18  C   UNL     1       2.753   5.970  18.289  0.00  0.00    +0.000 A 
ATOM     19  C   UNL     1       1.484   5.376  18.091  0.00  0.00    +0.000 A 
ATOM     20  C   UNL     1       1.356   4.081  17.600  0.00  0.00    +0.000 A 
ATOM     21  C   UNL     1       2.497   3.353  17.310  0.00  0.00    +0.000 A 
ATOM     22  C   UNL     1       3.762   3.924  17.496  0.00  0.00    +0.000 A 
ATOM     23  C   UNL     1       3.939   5.244  17.969  0.00  0.00    +0.000 A 
BRANCH  23  24
ATOM     24  C   UNL     1       5.331   5.807  18.042  0.00  0.00    +0.000 A 
ATOM     25  C   UNL     1       5.747   6.825  17.163  0.00  0.00    +0.000 A 
ATOM     26  C   UNL     1       7.014   7.420  17.260  0.00  0.00    +0.000 A 
ATOM     27  C   UNL     1       7.888   7.049  18.275  0.00  0.00    +0.000 A 
ATOM     28  C   UNL     1       7.527   6.024  19.136  0.00  0.00    +0.000 A 
ATOM     29  C   UNL     1       6.297   5.379  18.969  0.00  0.00    +0.000 A 
ENDBRANCH  23  24
ENDBRANCH  17  18
ENDBRANCH  16  17
ENDBRANCH   6  16
TORSDOF 7
ENDMDL
MODEL 5
REMARK VINA RESULT:      -7.8      0.637      1.102
REMARK  Name = 
REMARK  8 active torsions:
REMARK  status: ('A' for Active; 'I' for Inactive)
REMARK    1  A    between atoms: C_1  and  S_2
REMARK    2  A    between atoms: S_2  and  N_5
REMARK    3  A    between atoms: N_5  and  C_6
REMARK    4  A    between atoms: C_9  and  N_10
REMARK    5  A    between atoms: C_14  and  O_15
REMARK    6  A    between atoms: O_15  and  C_16
REMARK    7  A    between atoms: C_16  and  C_17
REMARK    8  A    between atoms: C_22  and  C_23
REMARK                            x       y       z     vdW  Elec       q    Type
REMARK                         _______ _______ _______ _____ _____    ______ ____
ROOT
ATOM      1  C   UNL     1      -0.316  10.167  18.739  0.00  0.00    +0.000 A 
ATOM      2  C   UNL     1      -0.975  10.812  19.794  0.00  0.00    +0.000 A 
ATOM      3  C   UNL     1      -0.552  10.651  21.112  0.00  0.00    +0.000 A 
ATOM      4  C   UNL     1       0.537   9.816  21.381  0.00  0.00    +0.000 A 
ATOM      5  C   UNL     1       1.194   9.155  20.344  0.00  0.00    +0.000 A 
ATOM      6  C   UNL     1       0.772   9.312  19.015  0.00  0.00    +0.000 A 
ENDROOT
BRANCH   4   7
ATOM      7  N   UNL     1       1.005   9.660  22.765  0.00  0.00    +0.000 N 
ATOM      8  O   UNL     1       2.212   9.434  22.939  0.00  0.00    +0.000 OA
ATOM      9  O   UNL     1       0.167   9.771  23.670  0.00  0.00    +0.000 OA
ENDBRANCH   4   7
BRANCH   1  10
ATOM     10  N   UNL     1      -0.842  10.477  17.450  0.00  0.00    +0.000 N 
ATOM     11  H   UNL     1      -0.342  11.146  16.869  0.00  0.00    +0.000 HD
BRANCH  10  13
ATOM     12  C   UNL     1      -2.603  10.330  15.446  0.00  0.00    +0.000 C 
ATOM     13  S   UNL     1      -2.510  10.488  17.216  0.00  0.00    +0.000 S 
ATOM     14  O   UNL     1      -2.939  11.832  17.555  0.00  0.00    +0.000 OA
ATOM     15  O   UNL     1      -3.102   9.320  17.818  0.00  0.00    +0.000 OA
ENDBRANCH  10  13
ENDBRANCH   1  10
BRANCH   6  16
ATOM     16  O   UNL     1       1.598   8.658  18.143  0.00  0.00    +0.000 OA
BRANCH  16  17
ATOM     17  C   UNL     1       1.687   7.239  18.226  0.00  0.00    +0.000 C 
BRANCH  17  18
ATOM     18  C   UNL     1       3.083   6.716  17.940  0.00  0.00    +0.000 A 
ATOM     19  C   UNL     1       3.971   7.545  17.213  0.00  0.00    +0.000 A 
ATOM     20  C   UNL     1       5.258   7.126  16.892  0.00  0.00    +0.000 A 
ATOM     21  C   UNL     1       5.675   5.866  17.282  0.00  0.00    +0.000 A 
ATOM     22  C   UNL     1       4.813   5.031  18.004  0.00  0.00    +0.000 A 
ATOM     23  C   UNL     1       3.506   5.425  18.374  0.00  0.00    +0.000 A 
BRANCH  23  24
ATOM     24  C   UNL     1       2.689   4.503  19.234  0.00  0.00    +0.000 A 
ATOM     25  C   UNL     1       2.825   4.510  20.636  0.00  0.00    +0.000 A 
ATOM     26  C   UNL     1       2.021   3.715  21.466  0.00  0.00    +0.000 A 
ATOM     27  C   UNL     1       1.017   2.923  20.921  0.00  0.00    +0.000 A 
ATOM     28  C   UNL     1       0.878   2.862  19.544  0.00  0.00    +0.000 A 
ATOM     29  C   UNL     1       1.748   3.591  18.725  0.00  0.00    +0.000 A 
ENDBRANCH  23  24
ENDBRANCH  17  18
ENDBRANCH  16  17
ENDBRANCH   6  16
TORSDOF 7
ENDMDL
MODEL 6
REMARK VINA RESULT:      -7.8      5.334      8.830
REMARK  Name = 
REMARK  8 active torsions:
REMARK  status: ('A' for Active; 'I' for Inactive)
REMARK    1  A    between atoms: C_1  and  S_2
REMARK    2  A    between atoms: S_2  and  N_5
REMARK    3  A    between atoms: N_5  and  C_6
REMARK    4  A    between atoms: C_9  and  N_10
REMARK    5  A    between atoms: C_14  and  O_15
REMARK    6  A    between atoms: O_15  and  C_16
REMARK    7  A    between atoms: C_16  and  C_17
REMARK    8  A    between atoms: C_22  and  C_23
REMARK                            x       y       z     vdW  Elec       q    Type
REMARK                         _______ _______ _______ _____ _____    ______ ____
ROOT
ATOM      1  C   UNL     1       7.016   5.015  15.346  0.00  0.00    +0.000 A 
ATOM      2  C   UNL     1       7.532   5.191  14.056  0.00  0.00    +0.000 A 
ATOM      3  C   UNL     1       6.982   4.523  12.964  0.00  0.00    +0.000 A 
ATOM      4  C   UNL     1       5.909   3.649  13.170  0.00  0.00    +0.000 A 
ATOM      5  C   UNL     1       5.394   3.452  14.450  0.00  0.00    +0.000 A 
ATOM      6  C   UNL     1       5.945   4.121  15.553  0.00  0.00    +0.000 A 
ENDROOT
BRANCH   4   7
ATOM      7  N   UNL     1       5.306   2.959  12.021  0.00  0.00    +0.000 N 
ATOM      8  O   UNL     1       4.252   3.423  11.563  0.00  0.00    +0.000 OA
ATOM      9  O   UNL     1       5.894   1.962  11.578  0.00  0.00    +0.000 OA
ENDBRANCH   4   7
BRANCH   1  10
ATOM     10  N   UNL     1       7.659   5.809  16.341  0.00  0.00    +0.000 N 
ATOM     11  H   UNL     1       8.489   5.438  16.799  0.00  0.00    +0.000 HD
BRANCH  10  13
ATOM     12  C   UNL     1       7.899   8.111  17.677  0.00  0.00    +0.000 C 
ATOM     13  S   UNL     1       6.732   6.813  17.326  0.00  0.00    +0.000 S 
ATOM     14  O   UNL     1       6.529   6.070  18.555  0.00  0.00    +0.000 OA
ATOM     15  O   UNL     1       5.635   7.368  16.574  0.00  0.00    +0.000 OA
ENDBRANCH  10  13
ENDBRANCH   1  10
BRANCH   6  16
ATOM     16  O   UNL     1       5.245   3.864  16.700  0.00  0.00    +0.000 OA
BRANCH  16  17
ATOM     17  C   UNL     1       3.882   4.273  16.771  0.00  0.00    +0.000 C 
BRANCH  17  18
ATOM     18  C   UNL     1       3.110   3.571  17.873  0.00  0.00    +0.000 A 
ATOM     19  C   UNL     1       3.216   2.163  17.970  0.00  0.00    +0.000 A 
ATOM     20  C   UNL     1       2.520   1.447  18.938  0.00  0.00    +0.000 A 
ATOM     21  C   UNL     1       1.696   2.126  19.818  0.00  0.00    +0.000 A 
ATOM     22  C   UNL     1       1.579   3.519  19.740  0.00  0.00    +0.000 A 
ATOM     23  C   UNL     1       2.286   4.290  18.790  0.00  0.00    +0.000 A 
BRANCH  23  24
ATOM     24  C   UNL     1       2.176   5.788  18.845  0.00  0.00    +0.000 A 
ATOM     25  C   UNL     1       1.868   6.447  20.051  0.00  0.00    +0.000 A 
ATOM     26  C   UNL     1       1.834   7.845  20.148  0.00  0.00    +0.000 A 
ATOM     27  C   UNL     1       2.159   8.632  19.049  0.00  0.00    +0.000 A 
ATOM     28  C   UNL     1       2.431   8.020  17.836  0.00  0.00    +0.000 A 
ATOM     29  C   UNL     1       2.371   6.626  17.734  0.00  0.00    +0.000 A 
ENDBRANCH  23  24
ENDBRANCH  17  18
ENDBRANCH  16  17
ENDBRANCH   6  16
TORSDOF 7
ENDMDL
MODEL 7
REMARK VINA RESULT:      -7.7      1.637      3.978
REMARK  Name = 
REMARK  8 active torsions:
REMARK  status: ('A' for Active; 'I' for Inactive)
REMARK    1  A    between atoms: C_1  and  S_2
REMARK    2  A    between atoms: S_2  and  N_5
REMARK    3  A    between atoms: N_5  and  C_6
REMARK    4  A    between atoms: C_9  and  N_10
REMARK    5  A    between atoms: C_14  and  O_15
REMARK    6  A    between atoms: O_15  and  C_16
REMARK    7  A    between atoms: C_16  and  C_17
REMARK    8  A    between atoms: C_22  and  C_23
REMARK                            x       y       z     vdW  Elec       q    Type
REMARK                         _______ _______ _______ _____ _____    ______ ____
ROOT
ATOM      1  C   UNL     1       0.218  10.204  19.602  0.00  0.00    +0.000 A 
ATOM      2  C   UNL     1      -1.065  10.748  19.744  0.00  0.00    +0.000 A 
ATOM      3  C   UNL     1      -1.987  10.700  18.701  0.00  0.00    +0.000 A 
ATOM      4  C   UNL     1      -1.612  10.115  17.487  0.00  0.00    +0.000 A 
ATOM      5  C   UNL     1      -0.334   9.583  17.324  0.00  0.00    +0.000 A 
ATOM      6  C   UNL     1       0.599   9.629  18.370  0.00  0.00    +0.000 A 
ENDROOT
BRANCH   4   7
ATOM      7  N   UNL     1      -2.586  10.039  16.389  0.00  0.00    +0.000 N 
ATOM      8  O   UNL     1      -3.668  10.625  16.541  0.00  0.00    +0.000 OA
ATOM      9  O   UNL     1      -2.261   9.401  15.377  0.00  0.00    +0.000 OA
ENDBRANCH   4   7
BRANCH   1  10
ATOM     10  N   UNL     1       1.019  10.290  20.779  0.00  0.00    +0.000 N 
ATOM     11  H   UNL     1       2.025  10.397  20.675  0.00  0.00    +0.000 HD
BRANCH  10  13
ATOM     12  C   UNL     1      -0.595  10.560  22.891  0.00  0.00    +0.000 C 
ATOM     13  S   UNL     1       0.565   9.429  22.154  0.00  0.00    +0.000 S 
ATOM     14  O   UNL     1       1.743   9.404  23.000  0.00  0.00    +0.000 OA
ATOM     15  O   UNL     1      -0.134   8.227  21.777  0.00  0.00    +0.000 OA
ENDBRANCH  10  13
ENDBRANCH   1  10
BRANCH   6  16
ATOM     16  O   UNL     1       1.756   8.977  18.045  0.00  0.00    +0.000 OA
BRANCH  16  17
ATOM     17  C   UNL     1       2.040   7.736  18.684  0.00  0.00    +0.000 C 
BRANCH  17  18
ATOM     18  C   UNL     1       3.091   6.921  17.953  0.00  0.00    +0.000 A 
ATOM     19  C   UNL     1       3.943   7.591  17.044  0.00  0.00    +0.000 A 
ATOM     20  C   UNL     1       4.915   6.909  16.319  0.00  0.00    +0.000 A 
ATOM     21  C   UNL     1       5.043   5.541  16.484  0.00  0.00    +0.000 A 
ATOM     22  C   UNL     1       4.212   4.859  17.381  0.00  0.00    +0.000 A 
ATOM     23  C   UNL     1       3.228   5.515  18.156  0.00  0.00    +0.000 A 
BRANCH  23  24
ATOM     24  C   UNL     1       2.451   4.718  19.165  0.00  0.00    +0.000 A 
ATOM     25  C   UNL     1       1.387   3.886  18.766  0.00  0.00    +0.000 A 
ATOM     26  C   UNL     1       0.696   3.073  19.677  0.00  0.00    +0.000 A 
ATOM     27  C   UNL     1       1.081   3.031  21.012  0.00  0.00    +0.000 A 
ATOM     28  C   UNL     1       2.099   3.864  21.448  0.00  0.00    +0.000 A 
ATOM     29  C   UNL     1       2.718   4.735  20.545  0.00  0.00    +0.000 A 
ENDBRANCH  23  24
ENDBRANCH  17  18
ENDBRANCH  16  17
ENDBRANCH   6  16
TORSDOF 7
ENDMDL
MODEL 8
REMARK VINA RESULT:      -7.7      0.829      1.128
REMARK  Name = 
REMARK  8 active torsions:
REMARK  status: ('A' for Active; 'I' for Inactive)
REMARK    1  A    between atoms: C_1  and  S_2
REMARK    2  A    between atoms: S_2  and  N_5
REMARK    3  A    between atoms: N_5  and  C_6
REMARK    4  A    between atoms: C_9  and  N_10
REMARK    5  A    between atoms: C_14  and  O_15
REMARK    6  A    between atoms: O_15  and  C_16
REMARK    7  A    between atoms: C_16  and  C_17
REMARK    8  A    between atoms: C_22  and  C_23
REMARK                            x       y       z     vdW  Elec       q    Type
REMARK                         _______ _______ _______ _____ _____    ______ ____
ROOT
ATOM      1  C   UNL     1      -0.267   9.996  18.595  0.00  0.00    +0.000 A 
ATOM      2  C   UNL     1      -0.963  10.765  19.537  0.00  0.00    +0.000 A 
ATOM      3  C   UNL     1      -0.635  10.716  20.890  0.00  0.00    +0.000 A 
ATOM      4  C   UNL     1       0.395   9.868  21.311  0.00  0.00    +0.000 A 
ATOM      5  C   UNL     1       1.087   9.085  20.388  0.00  0.00    +0.000 A 
ATOM      6  C   UNL     1       0.760   9.130  19.025  0.00  0.00    +0.000 A 
ENDROOT
BRANCH   4   7
ATOM      7  N   UNL     1       0.765   9.827  22.733  0.00  0.00    +0.000 N 
ATOM      8  O   UNL     1      -0.113  10.111  23.561  0.00  0.00    +0.000 OA
ATOM      9  O   UNL     1       1.928   9.506  23.014  0.00  0.00    +0.000 OA
ENDBRANCH   4   7
BRANCH   1  10
ATOM     10  N   UNL     1      -0.693  10.201  17.250  0.00  0.00    +0.000 N 
ATOM     11  H   UNL     1      -0.162  10.841  16.663  0.00  0.00    +0.000 HD
BRANCH  10  13
ATOM     12  C   UNL     1      -2.858  11.754  17.457  0.00  0.00    +0.000 C 
ATOM     13  S   UNL     1      -2.337  10.152  16.884  0.00  0.00    +0.000 S 
ATOM     14  O   UNL     1      -2.903   9.164  17.783  0.00  0.00    +0.000 OA
ATOM     15  O   UNL     1      -2.524  10.086  15.457  0.00  0.00    +0.000 OA
ENDBRANCH  10  13
ENDBRANCH   1  10
BRANCH   6  16
ATOM     16  O   UNL     1       1.610   8.362  18.276  0.00  0.00    +0.000 OA
BRANCH  16  17
ATOM     17  C   UNL     1       2.522   7.501  18.952  0.00  0.00    +0.000 C 
BRANCH  17  18
ATOM     18  C   UNL     1       3.352   6.657  18.002  0.00  0.00    +0.000 A 
ATOM     19  C   UNL     1       4.186   7.322  17.072  0.00  0.00    +0.000 A 
ATOM     20  C   UNL     1       4.957   6.617  16.154  0.00  0.00    +0.000 A 
ATOM     21  C   UNL     1       4.899   5.235  16.143  0.00  0.00    +0.000 A 
ATOM     22  C   UNL     1       4.083   4.558  17.057  0.00  0.00    +0.000 A 
ATOM     23  C   UNL     1       3.301   5.231  18.023  0.00  0.00    +0.000 A 
BRANCH  23  24
ATOM     24  C   UNL     1       2.533   4.419  19.028  0.00  0.00    +0.000 A 
ATOM     25  C   UNL     1       1.449   3.613  18.630  0.00  0.00    +0.000 A 
ATOM     26  C   UNL     1       0.764   2.787  19.534  0.00  0.00    +0.000 A 
ATOM     27  C   UNL     1       1.176   2.703  20.858  0.00  0.00    +0.000 A 
ATOM     28  C   UNL     1       2.215   3.510  21.295  0.00  0.00    +0.000 A 
ATOM     29  C   UNL     1       2.829   4.395  20.402  0.00  0.00    +0.000 A 
ENDBRANCH  23  24
ENDBRANCH  17  18
ENDBRANCH  16  17
ENDBRANCH   6  16
TORSDOF 7
ENDMDL
MODEL 9
REMARK VINA RESULT:      -7.7      3.747      6.426
REMARK  Name = 
REMARK  8 active torsions:
REMARK  status: ('A' for Active; 'I' for Inactive)
REMARK    1  A    between atoms: C_1  and  S_2
REMARK    2  A    between atoms: S_2  and  N_5
REMARK    3  A    between atoms: N_5  and  C_6
REMARK    4  A    between atoms: C_9  and  N_10
REMARK    5  A    between atoms: C_14  and  O_15
REMARK    6  A    between atoms: O_15  and  C_16
REMARK    7  A    between atoms: C_16  and  C_17
REMARK    8  A    between atoms: C_22  and  C_23
REMARK                            x       y       z     vdW  Elec       q    Type
REMARK                         _______ _______ _______ _____ _____    ______ ____
ROOT
ATOM      1  C   UNL     1       2.828   5.197  19.433  0.00  0.00    +0.000 A 
ATOM      2  C   UNL     1       2.373   6.084  20.417  0.00  0.00    +0.000 A 
ATOM      3  C   UNL     1       2.045   7.401  20.102  0.00  0.00    +0.000 A 
ATOM      4  C   UNL     1       2.194   7.844  18.784  0.00  0.00    +0.000 A 
ATOM      5  C   UNL     1       2.661   6.977  17.796  0.00  0.00    +0.000 A 
ATOM      6  C   UNL     1       2.992   5.650  18.107  0.00  0.00    +0.000 A 
ENDROOT
BRANCH   4   7
ATOM      7  N   UNL     1       1.829   9.224  18.438  0.00  0.00    +0.000 N 
ATOM      8  O   UNL     1       2.223   9.666  17.348  0.00  0.00    +0.000 OA
ATOM      9  O   UNL     1       1.143   9.858  19.253  0.00  0.00    +0.000 OA
ENDBRANCH   4   7
BRANCH   1  10
ATOM     10  N   UNL     1       3.069   3.875  19.910  0.00  0.00    +0.000 N 
ATOM     11  H   UNL     1       3.991   3.467  19.769  0.00  0.00    +0.000 HD
BRANCH  10  13
ATOM     12  C   UNL     1       1.558   2.508  21.639  0.00  0.00    +0.000 C 
ATOM     13  S   UNL     1       1.819   2.746  19.894  0.00  0.00    +0.000 S 
ATOM     14  O   UNL     1       2.405   1.527  19.373  0.00  0.00    +0.000 OA
ATOM     15  O   UNL     1       0.632   3.332  19.324  0.00  0.00    +0.000 OA
ENDBRANCH  10  13
ENDBRANCH   1  10
BRANCH   6  16
ATOM     16  O   UNL     1       3.340   4.942  16.990  0.00  0.00    +0.000 OA
BRANCH  16  17
ATOM     17  C   UNL     1       4.538   4.173  17.018  0.00  0.00    +0.000 C 
BRANCH  17  18
ATOM     18  C   UNL     1       5.344   4.285  15.737  0.00  0.00    +0.000 A 
ATOM     19  C   UNL     1       4.806   3.717  14.557  0.00  0.00    +0.000 A 
ATOM     20  C   UNL     1       5.496   3.758  13.350  0.00  0.00    +0.000 A 
ATOM     21  C   UNL     1       6.741   4.358  13.305  0.00  0.00    +0.000 A 
ATOM     22  C   UNL     1       7.291   4.928  14.460  0.00  0.00    +0.000 A 
ATOM     23  C   UNL     1       6.615   4.931  15.702  0.00  0.00    +0.000 A 
BRANCH  23  24
ATOM     24  C   UNL     1       7.238   5.654  16.863  0.00  0.00    +0.000 A 
ATOM     25  C   UNL     1       7.419   7.050  16.834  0.00  0.00    +0.000 A 
ATOM     26  C   UNL     1       7.927   7.758  17.933  0.00  0.00    +0.000 A 
ATOM     27  C   UNL     1       8.222   7.096  19.118  0.00  0.00    +0.000 A 
ATOM     28  C   UNL     1       8.092   5.717  19.173  0.00  0.00    +0.000 A 
ATOM     29  C   UNL     1       7.670   5.015  18.038  0.00  0.00    +0.000 A 
ENDBRANCH  23  24
ENDBRANCH  17  18
ENDBRANCH  16  17
ENDBRANCH   6  16
TORSDOF 7
ENDMDL
