MODEL 1
REMARK VINA RESULT:      -7.9      0.000      0.000
REMARK  Name = 
REMARK  2 active torsions:
REMARK  status: ('A' for Active; 'I' for Inactive)
REMARK    1  A    between atoms: N_10  and  C_11
REMARK    2  A    between atoms: C_11  and  C_12
REMARK                            x       y       z     vdW  Elec       q    Type
REMARK                         _______ _______ _______ _____ _____    ______ ____
ROOT
ATOM      1  N   UNL     1       5.806   3.360  17.682  0.00  0.00    +0.000 NA
ATOM      2  C   UNL     1       5.402   4.584  17.567  0.00  0.00    +0.000 A 
ATOM      3  C   UNL     1       4.233   5.095  18.285  0.00  0.00    +0.000 A 
ATOM      4  C   UNL     1       3.383   4.479  19.275  0.00  0.00    +0.000 A 
ATOM      5  C   UNL     1       2.356   5.329  19.650  0.00  0.00    +0.000 A 
ATOM      6  S   UNL     1       2.440   6.848  18.901  0.00  0.00    +0.000 S 
ATOM      7  C   UNL     1       3.818   6.395  18.001  0.00  0.00    +0.000 A 
ATOM      8  N   UNL     1       4.370   7.272  17.111  0.00  0.00    +0.000 NA
ATOM      9  C   UNL     1       5.430   6.781  16.539  0.00  0.00    +0.000 A 
ATOM     10  N   UNL     1       5.976   5.529  16.744  0.00  0.00    +0.000 N 
ATOM     11  C   UNL     1       1.272   5.001  20.632  0.00  0.00    +0.000 C 
ATOM     12  C   UNL     1       1.194   3.483  20.847  0.00  0.00    +0.000 C 
ATOM     13  C   UNL     1       2.588   2.895  21.077  0.00  0.00    +0.000 C 
ATOM     14  C   UNL     1       3.482   3.092  19.846  0.00  0.00    +0.000 C 
ATOM     15  H   UNL     1       5.223   2.827  18.309  0.00  0.00    +0.000 HD
ENDROOT
BRANCH  10  16
ATOM     16  C   UNL     1       7.167   5.127  15.996  0.00  0.00    +0.000 C 
BRANCH  16  17
ATOM     17  C   UNL     1       6.887   4.796  14.547  0.00  0.00    +0.000 A 
ATOM     18  C   UNL     1       7.701   5.311  13.523  0.00  0.00    +0.000 A 
ATOM     19  C   UNL     1       7.561   4.865  12.208  0.00  0.00    +0.000 A 
ATOM     20  C   UNL     1       6.591   3.917  11.896  0.00  0.00    +0.000 A 
ATOM     21  C   UNL     1       5.734   3.446  12.891  0.00  0.00    +0.000 A 
ATOM     22  C   UNL     1       5.876   3.889  14.208  0.00  0.00    +0.000 A 
ENDBRANCH  16  17
ENDBRANCH  10  16
TORSDOF 2
ENDMDL
MODEL 2
REMARK VINA RESULT:      -7.8      4.659      7.109
REMARK  Name = 
REMARK  2 active torsions:
REMARK  status: ('A' for Active; 'I' for Inactive)
REMARK    1  A    between atoms: N_10  and  C_11
REMARK    2  A    between atoms: C_11  and  C_12
REMARK                            x       y       z     vdW  Elec       q    Type
REMARK                         _______ _______ _______ _____ _____    ______ ____
ROOT
ATOM      1  N   UNL     1       1.358   7.775  21.609  0.00  0.00    +0.000 NA
ATOM      2  C   UNL     1       1.399   8.329  20.440  0.00  0.00    +0.000 A 
ATOM      3  C   UNL     1       0.654   9.549  20.124  0.00  0.00    +0.000 A 
ATOM      4  C   UNL     1      -0.145  10.416  20.955  0.00  0.00    +0.000 A 
ATOM      5  C   UNL     1      -0.709  11.440  20.212  0.00  0.00    +0.000 A 
ATOM      6  S   UNL     1      -0.241  11.417  18.582  0.00  0.00    +0.000 S 
ATOM      7  C   UNL     1       0.680   9.997  18.803  0.00  0.00    +0.000 A 
ATOM      8  N   UNL     1       1.320   9.426  17.740  0.00  0.00    +0.000 NA
ATOM      9  C   UNL     1       2.001   8.375  18.091  0.00  0.00    +0.000 A 
ATOM     10  N   UNL     1       2.097   7.836  19.359  0.00  0.00    +0.000 N 
ATOM     11  C   UNL     1      -1.621  12.501  20.748  0.00  0.00    +0.000 C 
ATOM     12  C   UNL     1      -2.188  12.074  22.109  0.00  0.00    +0.000 C 
ATOM     13  C   UNL     1      -1.077  11.541  23.017  0.00  0.00    +0.000 C 
ATOM     14  C   UNL     1      -0.434  10.282  22.424  0.00  0.00    +0.000 C 
ATOM     15  H   UNL     1       0.760   8.280  22.245  0.00  0.00    +0.000 HD
ENDROOT
BRANCH  10  16
ATOM     16  C   UNL     1       2.895   6.629  19.574  0.00  0.00    +0.000 C 
BRANCH  16  17
ATOM     17  C   UNL     1       2.146   5.348  19.277  0.00  0.00    +0.000 A 
ATOM     18  C   UNL     1       2.164   4.790  17.987  0.00  0.00    +0.000 A 
ATOM     19  C   UNL     1       1.631   3.521  17.753  0.00  0.00    +0.000 A 
ATOM     20  C   UNL     1       1.054   2.806  18.798  0.00  0.00    +0.000 A 
ATOM     21  C   UNL     1       0.973   3.376  20.068  0.00  0.00    +0.000 A 
ATOM     22  C   UNL     1       1.508   4.644  20.306  0.00  0.00    +0.000 A 
ENDBRANCH  16  17
ENDBRANCH  10  16
TORSDOF 2
ENDMDL
MODEL 3
REMARK VINA RESULT:      -7.7      3.732      5.493
REMARK  Name = 
REMARK  2 active torsions:
REMARK  status: ('A' for Active; 'I' for Inactive)
REMARK    1  A    between atoms: N_10  and  C_11
REMARK    2  A    between atoms: C_11  and  C_12
REMARK                            x       y       z     vdW  Elec       q    Type
REMARK                         _______ _______ _______ _____ _____    ______ ____
ROOT
ATOM      1  N   UNL     1       1.970   6.381  20.562  0.00  0.00    +0.000 NA
ATOM      2  C   UNL     1       2.068   7.317  19.674  0.00  0.00    +0.000 A 
ATOM      3  C   UNL     1       1.488   8.647  19.868  0.00  0.00    +0.000 A 
ATOM      4  C   UNL     1       0.823   9.235  21.005  0.00  0.00    +0.000 A 
ATOM      5  C   UNL     1       0.390  10.520  20.721  0.00  0.00    +0.000 A 
ATOM      6  S   UNL     1       0.827  11.043  19.168  0.00  0.00    +0.000 S 
ATOM      7  C   UNL     1       1.554   9.542  18.801  0.00  0.00    +0.000 A 
ATOM      8  N   UNL     1       2.096   9.330  17.565  0.00  0.00    +0.000 NA
ATOM      9  C   UNL     1       2.637   8.151  17.468  0.00  0.00    +0.000 A 
ATOM     10  N   UNL     1       2.678   7.177  18.445  0.00  0.00    +0.000 N 
ATOM     11  C   UNL     1      -0.365  11.410  21.661  0.00  0.00    +0.000 C 
ATOM     12  C   UNL     1      -0.964  10.582  22.807  0.00  0.00    +0.000 C 
ATOM     13  C   UNL     1       0.079   9.626  23.388  0.00  0.00    +0.000 C 
ATOM     14  C   UNL     1       0.540   8.606  22.340  0.00  0.00    +0.000 C 
ATOM     15  H   UNL     1       1.454   6.683  21.374  0.00  0.00    +0.000 HD
ENDROOT
BRANCH  10  16
ATOM     16  C   UNL     1       3.312   5.890  18.158  0.00  0.00    +0.000 C 
BRANCH  16  17
ATOM     17  C   UNL     1       4.823   5.944  18.173  0.00  0.00    +0.000 A 
ATOM     18  C   UNL     1       5.525   6.682  17.204  0.00  0.00    +0.000 A 
ATOM     19  C   UNL     1       6.901   6.886  17.320  0.00  0.00    +0.000 A 
ATOM     20  C   UNL     1       7.596   6.334  18.392  0.00  0.00    +0.000 A 
ATOM     21  C   UNL     1       6.923   5.546  19.325  0.00  0.00    +0.000 A 
ATOM     22  C   UNL     1       5.545   5.344  19.212  0.00  0.00    +0.000 A 
ENDBRANCH  16  17
ENDBRANCH  10  16
TORSDOF 2
ENDMDL
MODEL 4
REMARK VINA RESULT:      -7.7      3.788      5.597
REMARK  Name = 
REMARK  2 active torsions:
REMARK  status: ('A' for Active; 'I' for Inactive)
REMARK    1  A    between atoms: N_10  and  C_11
REMARK    2  A    between atoms: C_11  and  C_12
REMARK                            x       y       z     vdW  Elec       q    Type
REMARK                         _______ _______ _______ _____ _____    ______ ____
ROOT
ATOM      1  N   UNL     1       1.960   6.489  20.536  0.00  0.00    +0.000 NA
ATOM      2  C   UNL     1       2.021   7.443  19.663  0.00  0.00    +0.000 A 
ATOM      3  C   UNL     1       1.416   8.756  19.893  0.00  0.00    +0.000 A 
ATOM      4  C   UNL     1       0.761   9.310  21.053  0.00  0.00    +0.000 A 
ATOM      5  C   UNL     1       0.295  10.589  20.800  0.00  0.00    +0.000 A 
ATOM      6  S   UNL     1       0.691  11.149  19.249  0.00  0.00    +0.000 S 
ATOM      7  C   UNL     1       1.442   9.672  18.841  0.00  0.00    +0.000 A 
ATOM      8  N   UNL     1       1.965   9.494  17.592  0.00  0.00    +0.000 NA
ATOM      9  C   UNL     1       2.529   8.328  17.463  0.00  0.00    +0.000 A 
ATOM     10  N   UNL     1       2.609   7.337  18.421  0.00  0.00    +0.000 N 
ATOM     11  C   UNL     1      -0.460  11.446  21.770  0.00  0.00    +0.000 C 
ATOM     12  C   UNL     1      -1.020  10.586  22.912  0.00  0.00    +0.000 C 
ATOM     13  C   UNL     1       0.055   9.641  23.456  0.00  0.00    +0.000 C 
ATOM     14  C   UNL     1       0.517   8.650  22.381  0.00  0.00    +0.000 C 
ATOM     15  H   UNL     1       1.453   6.766  21.363  0.00  0.00    +0.000 HD
ENDROOT
BRANCH  10  16
ATOM     16  C   UNL     1       3.265   6.070  18.099  0.00  0.00    +0.000 C 
BRANCH  16  17
ATOM     17  C   UNL     1       4.772   6.122  18.217  0.00  0.00    +0.000 A 
ATOM     18  C   UNL     1       5.427   5.524  19.307  0.00  0.00    +0.000 A 
ATOM     19  C   UNL     1       6.818   5.410  19.328  0.00  0.00    +0.000 A 
ATOM     20  C   UNL     1       7.572   5.912  18.271  0.00  0.00    +0.000 A 
ATOM     21  C   UNL     1       6.938   6.565  17.214  0.00  0.00    +0.000 A 
ATOM     22  C   UNL     1       5.546   6.677  17.190  0.00  0.00    +0.000 A 
ENDBRANCH  16  17
ENDBRANCH  10  16
TORSDOF 2
ENDMDL
MODEL 5
REMARK VINA RESULT:      -7.7      4.784      7.290
REMARK  Name = 
REMARK  2 active torsions:
REMARK  status: ('A' for Active; 'I' for Inactive)
REMARK    1  A    between atoms: N_10  and  C_11
REMARK    2  A    between atoms: C_11  and  C_12
REMARK                            x       y       z     vdW  Elec       q    Type
REMARK                         _______ _______ _______ _____ _____    ______ ____
ROOT
ATOM      1  N   UNL     1       1.476   8.109  21.693  0.00  0.00    +0.000 NA
ATOM      2  C   UNL     1       1.366   8.556  20.483  0.00  0.00    +0.000 A 
ATOM      3  C   UNL     1       0.492   9.678  20.137  0.00  0.00    +0.000 A 
ATOM      4  C   UNL     1      -0.305  10.550  20.965  0.00  0.00    +0.000 A 
ATOM      5  C   UNL     1      -1.019  11.453  20.196  0.00  0.00    +0.000 A 
ATOM      6  S   UNL     1      -0.697  11.318  18.537  0.00  0.00    +0.000 S 
ATOM      7  C   UNL     1       0.362  10.003  18.788  0.00  0.00    +0.000 A 
ATOM      8  N   UNL     1       0.953   9.390  17.720  0.00  0.00    +0.000 NA
ATOM      9  C   UNL     1       1.753   8.433  18.091  0.00  0.00    +0.000 A 
ATOM     10  N   UNL     1       2.006   8.022  19.385  0.00  0.00    +0.000 N 
ATOM     11  C   UNL     1      -1.971  12.483  20.726  0.00  0.00    +0.000 C 
ATOM     12  C   UNL     1      -2.377  12.138  22.165  0.00  0.00    +0.000 C 
ATOM     13  C   UNL     1      -1.147  11.781  23.005  0.00  0.00    +0.000 C 
ATOM     14  C   UNL     1      -0.450  10.528  22.461  0.00  0.00    +0.000 C 
ATOM     15  H   UNL     1       0.895   8.621  22.338  0.00  0.00    +0.000 HD
ENDROOT
BRANCH  10  16
ATOM     16  C   UNL     1       2.924   6.908  19.624  0.00  0.00    +0.000 C 
BRANCH  16  17
ATOM     17  C   UNL     1       2.300   5.550  19.388  0.00  0.00    +0.000 A 
ATOM     18  C   UNL     1       1.680   4.854  20.440  0.00  0.00    +0.000 A 
ATOM     19  C   UNL     1       0.946   3.692  20.192  0.00  0.00    +0.000 A 
ATOM     20  C   UNL     1       0.844   3.200  18.894  0.00  0.00    +0.000 A 
ATOM     21  C   UNL     1       1.508   3.846  17.852  0.00  0.00    +0.000 A 
ATOM     22  C   UNL     1       2.240   5.010  18.098  0.00  0.00    +0.000 A 
ENDBRANCH  16  17
ENDBRANCH  10  16
TORSDOF 2
ENDMDL
MODEL 6
REMARK VINA RESULT:      -7.6      0.255      1.083
REMARK  Name = 
REMARK  2 active torsions:
REMARK  status: ('A' for Active; 'I' for Inactive)
REMARK    1  A    between atoms: N_10  and  C_11
REMARK    2  A    between atoms: C_11  and  C_12
REMARK                            x       y       z     vdW  Elec       q    Type
REMARK                         _______ _______ _______ _____ _____    ______ ____
ROOT
ATOM      1  N   UNL     1       6.008   3.520  17.964  0.00  0.00    +0.000 NA
ATOM      2  C   UNL     1       5.459   4.668  17.731  0.00  0.00    +0.000 A 
ATOM      3  C   UNL     1       4.198   5.076  18.351  0.00  0.00    +0.000 A 
ATOM      4  C   UNL     1       3.379   4.431  19.349  0.00  0.00    +0.000 A 
ATOM      5  C   UNL     1       2.233   5.166  19.606  0.00  0.00    +0.000 A 
ATOM      6  S   UNL     1       2.167   6.622  18.740  0.00  0.00    +0.000 S 
ATOM      7  C   UNL     1       3.638   6.286  17.943  0.00  0.00    +0.000 A 
ATOM      8  N   UNL     1       4.124   7.157  17.009  0.00  0.00    +0.000 NA
ATOM      9  C   UNL     1       5.268   6.766  16.529  0.00  0.00    +0.000 A 
ATOM     10  N   UNL     1       5.954   5.615  16.860  0.00  0.00    +0.000 N 
ATOM     11  C   UNL     1       1.147   4.775  20.562  0.00  0.00    +0.000 C 
ATOM     12  C   UNL     1       1.249   3.281  20.897  0.00  0.00    +0.000 C 
ATOM     13  C   UNL     1       2.692   2.898  21.237  0.00  0.00    +0.000 C 
ATOM     14  C   UNL     1       3.620   3.116  20.036  0.00  0.00    +0.000 C 
ATOM     15  H   UNL     1       5.463   2.964  18.606  0.00  0.00    +0.000 HD
ENDROOT
BRANCH  10  16
ATOM     16  C   UNL     1       7.226   5.316  16.202  0.00  0.00    +0.000 C 
BRANCH  16  17
ATOM     17  C   UNL     1       7.069   4.802  14.788  0.00  0.00    +0.000 A 
ATOM     18  C   UNL     1       6.088   3.844  14.478  0.00  0.00    +0.000 A 
ATOM     19  C   UNL     1       5.817   3.504  13.152  0.00  0.00    +0.000 A 
ATOM     20  C   UNL     1       6.540   4.099  12.121  0.00  0.00    +0.000 A 
ATOM     21  C   UNL     1       7.560   5.002  12.419  0.00  0.00    +0.000 A 
ATOM     22  C   UNL     1       7.829   5.346  13.746  0.00  0.00    +0.000 A 
ENDBRANCH  16  17
ENDBRANCH  10  16
TORSDOF 2
ENDMDL
MODEL 7
REMARK VINA RESULT:      -7.5      3.510      5.104
REMARK  Name = 
REMARK  2 active torsions:
REMARK  status: ('A' for Active; 'I' for Inactive)
REMARK    1  A    between atoms: N_10  and  C_11
REMARK    2  A    between atoms: C_11  and  C_12
REMARK                            x       y       z     vdW  Elec       q    Type
REMARK                         _______ _______ _______ _____ _____    ______ ____
ROOT
ATOM      1  N   UNL     1       1.903   6.109  20.851  0.00  0.00    +0.000 NA
ATOM      2  C   UNL     1       2.157   6.894  19.855  0.00  0.00    +0.000 A 
ATOM      3  C   UNL     1       1.669   8.274  19.798  0.00  0.00    +0.000 A 
ATOM      4  C   UNL     1       0.951   9.067  20.766  0.00  0.00    +0.000 A 
ATOM      5  C   UNL     1       0.650  10.320  20.259  0.00  0.00    +0.000 A 
ATOM      6  S   UNL     1       1.269  10.577  18.701  0.00  0.00    +0.000 S 
ATOM      7  C   UNL     1       1.904   8.994  18.628  0.00  0.00    +0.000 A 
ATOM      8  N   UNL     1       2.540   8.566  17.497  0.00  0.00    +0.000 NA
ATOM      9  C   UNL     1       2.992   7.353  17.624  0.00  0.00    +0.000 A 
ATOM     10  N   UNL     1       2.864   6.533  18.728  0.00  0.00    +0.000 N 
ATOM     11  C   UNL     1      -0.116  11.388  20.981  0.00  0.00    +0.000 C 
ATOM     12  C   UNL     1      -0.883  10.781  22.164  0.00  0.00    +0.000 C 
ATOM     13  C   UNL     1       0.023   9.855  22.980  0.00  0.00    +0.000 C 
ATOM     14  C   UNL     1       0.496   8.662  22.140  0.00  0.00    +0.000 C 
ATOM     15  H   UNL     1       1.340   6.562  21.555  0.00  0.00    +0.000 HD
ENDROOT
BRANCH  10  16
ATOM     16  C   UNL     1       3.417   5.180  18.693  0.00  0.00    +0.000 C 
BRANCH  16  17
ATOM     17  C   UNL     1       4.804   5.109  18.093  0.00  0.00    +0.000 A 
ATOM     18  C   UNL     1       5.930   5.497  18.840  0.00  0.00    +0.000 A 
ATOM     19  C   UNL     1       7.220   5.263  18.361  0.00  0.00    +0.000 A 
ATOM     20  C   UNL     1       7.400   4.661  17.119  0.00  0.00    +0.000 A 
ATOM     21  C   UNL     1       6.292   4.330  16.340  0.00  0.00    +0.000 A 
ATOM     22  C   UNL     1       5.000   4.560  16.820  0.00  0.00    +0.000 A 
ENDBRANCH  16  17
ENDBRANCH  10  16
TORSDOF 2
ENDMDL
MODEL 8
REMARK VINA RESULT:      -7.3      3.422      5.125
REMARK  Name = 
REMARK  2 active torsions:
REMARK  status: ('A' for Active; 'I' for Inactive)
REMARK    1  A    between atoms: N_10  and  C_11
REMARK    2  A    between atoms: C_11  and  C_12
REMARK                            x       y       z     vdW  Elec       q    Type
REMARK                         _______ _______ _______ _____ _____    ______ ____
ROOT
ATOM      1  N   UNL     1       1.903   5.949  20.857  0.00  0.00    +0.000 NA
ATOM      2  C   UNL     1       2.193   6.703  19.846  0.00  0.00    +0.000 A 
ATOM      3  C   UNL     1       1.744   8.093  19.749  0.00  0.00    +0.000 A 
ATOM      4  C   UNL     1       1.035   8.928  20.688  0.00  0.00    +0.000 A 
ATOM      5  C   UNL     1       0.775  10.177  20.147  0.00  0.00    +0.000 A 
ATOM      6  S   UNL     1       1.423  10.379  18.593  0.00  0.00    +0.000 S 
ATOM      7  C   UNL     1       2.016   8.778  18.566  0.00  0.00    +0.000 A 
ATOM      8  N   UNL     1       2.656   8.306  17.455  0.00  0.00    +0.000 NA
ATOM      9  C   UNL     1       3.072   7.084  17.617  0.00  0.00    +0.000 A 
ATOM     10  N   UNL     1       2.906   6.296  18.739  0.00  0.00    +0.000 N 
ATOM     11  C   UNL     1       0.030  11.282  20.833  0.00  0.00    +0.000 C 
ATOM     12  C   UNL     1      -0.770  10.724  22.018  0.00  0.00    +0.000 C 
ATOM     13  C   UNL     1       0.098   9.794  22.869  0.00  0.00    +0.000 C 
ATOM     14  C   UNL     1       0.550   8.569  22.064  0.00  0.00    +0.000 C 
ATOM     15  H   UNL     1       1.343   6.434  21.541  0.00  0.00    +0.000 HD
ENDROOT
BRANCH  10  16
ATOM     16  C   UNL     1       3.422   4.927  18.743  0.00  0.00    +0.000 C 
BRANCH  16  17
ATOM     17  C   UNL     1       4.881   4.830  18.355  0.00  0.00    +0.000 A 
ATOM     18  C   UNL     1       5.258   4.311  17.104  0.00  0.00    +0.000 A 
ATOM     19  C   UNL     1       6.582   4.389  16.669  0.00  0.00    +0.000 A 
ATOM     20  C   UNL     1       7.549   4.962  17.490  0.00  0.00    +0.000 A 
ATOM     21  C   UNL     1       7.201   5.422  18.759  0.00  0.00    +0.000 A 
ATOM     22  C   UNL     1       5.875   5.348  19.194  0.00  0.00    +0.000 A 
ENDBRANCH  16  17
ENDBRANCH  10  16
TORSDOF 2
ENDMDL
MODEL 9
REMARK VINA RESULT:      -7.3      4.407      7.549
REMARK  Name = 
REMARK  2 active torsions:
REMARK  status: ('A' for Active; 'I' for Inactive)
REMARK    1  A    between atoms: N_10  and  C_11
REMARK    2  A    between atoms: C_11  and  C_12
REMARK                            x       y       z     vdW  Elec       q    Type
REMARK                         _______ _______ _______ _____ _____    ______ ____
ROOT
ATOM      1  N   UNL     1       2.555   8.595  17.356  0.00  0.00    +0.000 NA
ATOM      2  C   UNL     1       2.193   8.227  18.543  0.00  0.00    +0.000 A 
ATOM      3  C   UNL     1       2.475   6.890  19.070  0.00  0.00    +0.000 A 
ATOM      4  C   UNL     1       3.232   5.793  18.518  0.00  0.00    +0.000 A 
ATOM      5  C   UNL     1       3.192   4.689  19.354  0.00  0.00    +0.000 A 
ATOM      6  S   UNL     1       2.341   4.972  20.793  0.00  0.00    +0.000 S 
ATOM      7  C   UNL     1       1.942   6.562  20.315  0.00  0.00    +0.000 A 
ATOM      8  N   UNL     1       1.165   7.342  21.123  0.00  0.00    +0.000 NA
ATOM      9  C   UNL     1       0.988   8.531  20.626  0.00  0.00    +0.000 A 
ATOM     10  N   UNL     1       1.479   9.007  19.426  0.00  0.00    +0.000 N 
ATOM     11  C   UNL     1       3.841   3.366  19.077  0.00  0.00    +0.000 C 
ATOM     12  C   UNL     1       4.187   3.248  17.586  0.00  0.00    +0.000 C 
ATOM     13  C   UNL     1       4.880   4.519  17.087  0.00  0.00    +0.000 C 
ATOM     14  C   UNL     1       3.953   5.735  17.200  0.00  0.00    +0.000 C 
ATOM     15  H   UNL     1       3.036   7.859  16.863  0.00  0.00    +0.000 HD
ENDROOT
BRANCH  10  16
ATOM     16  C   UNL     1       1.164  10.373  19.006  0.00  0.00    +0.000 C 
BRANCH  16  17
ATOM     17  C   UNL     1      -0.311  10.603  18.757  0.00  0.00    +0.000 A 
ATOM     18  C   UNL     1      -1.026  11.549  19.511  0.00  0.00    +0.000 A 
ATOM     19  C   UNL     1      -2.334  11.896  19.165  0.00  0.00    +0.000 A 
ATOM     20  C   UNL     1      -2.949  11.283  18.078  0.00  0.00    +0.000 A 
ATOM     21  C   UNL     1      -2.273  10.295  17.362  0.00  0.00    +0.000 A 
ATOM     22  C   UNL     1      -0.963   9.950  17.704  0.00  0.00    +0.000 A 
ENDBRANCH  16  17
ENDBRANCH  10  16
TORSDOF 2
ENDMDL
