MODEL 1
REMARK VINA RESULT:      -8.8      0.000      0.000
REMARK  Name = 
REMARK  4 active torsions:
REMARK  status: ('A' for Active; 'I' for Inactive)
REMARK    1  A    between atoms: C_1  and  C_2
REMARK    2  A    between atoms: N_7  and  C_8
REMARK    3  A    between atoms: C_8  and  C_9
REMARK    4  A    between atoms: N_11  and  C_12
REMARK                            x       y       z     vdW  Elec       q    Type
REMARK                         _______ _______ _______ _____ _____    ______ ____
ROOT
ATOM      1  C   UNL     1       5.640   5.204  18.477  0.00  0.00    +0.000 C 
ATOM      2  O   UNL     1       6.104   4.619  19.457  0.00  0.00    +0.000 OA
ATOM      3  N   UNL     1       4.285   5.282  18.180  0.00  0.00    +0.000 N 
ATOM      4  H   UNL     1       4.082   5.331  17.176  0.00  0.00    +0.000 HD
ENDROOT
BRANCH   3   5
ATOM      5  C   UNL     1       3.329   4.644  19.006  0.00  0.00    +0.000 A 
ATOM      6  C   UNL     1       2.663   5.355  20.017  0.00  0.00    +0.000 A 
ATOM      7  F   UNL     1       2.813   6.683  20.127  0.00  0.00    +0.000 F 
ATOM      8  C   UNL     1       1.784   4.720  20.888  0.00  0.00    +0.000 A 
ATOM      9  C   UNL     1       1.570   3.358  20.747  0.00  0.00    +0.000 A 
ATOM     10  F   UNL     1       0.756   2.728  21.603  0.00  0.00    +0.000 F 
ATOM     11  C   UNL     1       2.180   2.632  19.729  0.00  0.00    +0.000 A 
ATOM     12  C   UNL     1       3.043   3.282  18.842  0.00  0.00    +0.000 A 
ATOM     13 BR   UNL     1       3.881   2.244  17.491  0.00  0.00    +0.000 Br
ENDBRANCH   3   5
BRANCH   1  14
ATOM     14  C   UNL     1       6.551   5.917  17.505  0.00  0.00    +0.000 C 
BRANCH  14  21
ATOM     15  C   UNL     1       6.001   1.926  11.688  0.00  0.00    +0.000 C 
ATOM     16  C   UNL     1       5.827   3.421  11.981  0.00  0.00    +0.000 C 
ATOM     17  C   UNL     1       7.172   4.172  11.775  0.00  0.00    +0.000 C 
ATOM     18  C   UNL     1       7.823   4.953  12.926  0.00  0.00    +0.000 C 
ATOM     19  C   UNL     1       7.021   4.998  14.164  0.00  0.00    +0.000 A 
ATOM     20  N   UNL     1       7.426   5.647  15.259  0.00  0.00    +0.000 NA
ATOM     21  N   UNL     1       6.443   5.403  16.155  0.00  0.00    +0.000 N 
ATOM     22  C   UNL     1       5.434   4.635  15.647  0.00  0.00    +0.000 A 
ATOM     23  C   UNL     1       5.779   4.371  14.340  0.00  0.00    +0.000 A 
ATOM     24  C   UNL     1       5.052   3.614  13.305  0.00  0.00    +0.000 C 
ENDBRANCH  14  21
ENDBRANCH   1  14
TORSDOF 3
ENDMDL
MODEL 2
REMARK VINA RESULT:      -8.7      1.561      1.857
REMARK  Name = 
REMARK  4 active torsions:
REMARK  status: ('A' for Active; 'I' for Inactive)
REMARK    1  A    between atoms: C_1  and  C_2
REMARK    2  A    between atoms: N_7  and  C_8
REMARK    3  A    between atoms: C_8  and  C_9
REMARK    4  A    between atoms: N_11  and  C_12
REMARK                            x       y       z     vdW  Elec       q    Type
REMARK                         _______ _______ _______ _____ _____    ______ ____
ROOT
ATOM      1  C   UNL     1       5.656   5.043  18.427  0.00  0.00    +0.000 C 
ATOM      2  O   UNL     1       6.096   4.493  19.438  0.00  0.00    +0.000 OA
ATOM      3  N   UNL     1       4.312   5.085  18.078  0.00  0.00    +0.000 N 
ATOM      4  H   UNL     1       4.145   5.104  17.066  0.00  0.00    +0.000 HD
ENDROOT
BRANCH   3   5
ATOM      5  C   UNL     1       3.339   4.447  18.885  0.00  0.00    +0.000 A 
ATOM      6  C   UNL     1       3.251   3.047  18.935  0.00  0.00    +0.000 A 
ATOM      7  F   UNL     1       4.176   2.284  18.332  0.00  0.00    +0.000 F 
ATOM      8  C   UNL     1       2.249   2.411  19.659  0.00  0.00    +0.000 A 
ATOM      9  C   UNL     1       1.322   3.184  20.340  0.00  0.00    +0.000 A 
ATOM     10  F   UNL     1       0.329   2.585  21.009  0.00  0.00    +0.000 F 
ATOM     11  C   UNL     1       1.407   4.573  20.347  0.00  0.00    +0.000 A 
ATOM     12  C   UNL     1       2.431   5.205  19.637  0.00  0.00    +0.000 A 
ATOM     13 BR   UNL     1       2.486   7.103  19.646  0.00  0.00    +0.000 Br
ENDBRANCH   3   5
BRANCH   1  14
ATOM     14  C   UNL     1       6.588   5.751  17.471  0.00  0.00    +0.000 C 
BRANCH  14  21
ATOM     15  C   UNL     1       6.196   1.856  11.575  0.00  0.00    +0.000 C 
ATOM     16  C   UNL     1       5.892   3.321  11.914  0.00  0.00    +0.000 C 
ATOM     17  C   UNL     1       7.150   4.202  11.678  0.00  0.00    +0.000 C 
ATOM     18  C   UNL     1       7.768   5.017  12.825  0.00  0.00    +0.000 C 
ATOM     19  C   UNL     1       7.014   4.956  14.092  0.00  0.00    +0.000 A 
ATOM     20  N   UNL     1       7.398   5.616  15.188  0.00  0.00    +0.000 NA
ATOM     21  N   UNL     1       6.478   5.259  16.113  0.00  0.00    +0.000 N 
ATOM     22  C   UNL     1       5.528   4.409  15.622  0.00  0.00    +0.000 A 
ATOM     23  C   UNL     1       5.845   4.208  14.297  0.00  0.00    +0.000 A 
ATOM     24  C   UNL     1       5.154   3.409  13.269  0.00  0.00    +0.000 C 
ENDBRANCH  14  21
ENDBRANCH   1  14
TORSDOF 3
ENDMDL
MODEL 3
REMARK VINA RESULT:      -8.6      1.549      1.821
REMARK  Name = 
REMARK  4 active torsions:
REMARK  status: ('A' for Active; 'I' for Inactive)
REMARK    1  A    between atoms: C_1  and  C_2
REMARK    2  A    between atoms: N_7  and  C_8
REMARK    3  A    between atoms: C_8  and  C_9
REMARK    4  A    between atoms: N_11  and  C_12
REMARK                            x       y       z     vdW  Elec       q    Type
REMARK                         _______ _______ _______ _____ _____    ______ ____
ROOT
ATOM      1  C   UNL     1       6.156   4.712  18.806  0.00  0.00    +0.000 C 
ATOM      2  O   UNL     1       6.002   5.565  19.682  0.00  0.00    +0.000 OA
ATOM      3  N   UNL     1       5.283   3.655  18.579  0.00  0.00    +0.000 N 
ATOM      4  H   UNL     1       5.739   2.810  18.219  0.00  0.00    +0.000 HD
ENDROOT
BRANCH   3   5
ATOM      5  C   UNL     1       4.138   3.481  19.391  0.00  0.00    +0.000 A 
ATOM      6  C   UNL     1       4.120   2.518  20.414  0.00  0.00    +0.000 A 
ATOM      7  F   UNL     1       5.235   1.844  20.733  0.00  0.00    +0.000 F 
ATOM      8  C   UNL     1       2.973   2.281  21.164  0.00  0.00    +0.000 A 
ATOM      9  C   UNL     1       1.830   3.015  20.887  0.00  0.00    +0.000 A 
ATOM     10  F   UNL     1       0.708   2.769  21.576  0.00  0.00    +0.000 F 
ATOM     11  C   UNL     1       1.826   4.006  19.911  0.00  0.00    +0.000 A 
ATOM     12  C   UNL     1       2.989   4.255  19.177  0.00  0.00    +0.000 A 
ATOM     13 BR   UNL     1       2.927   5.593  17.831  0.00  0.00    +0.000 Br
ENDBRANCH   3   5
BRANCH   1  14
ATOM     14  C   UNL     1       7.346   4.771  17.877  0.00  0.00    +0.000 C 
BRANCH  14  21
ATOM     15  C   UNL     1       5.765   2.209  11.472  0.00  0.00    +0.000 C 
ATOM     16  C   UNL     1       5.597   3.574  12.151  0.00  0.00    +0.000 C 
ATOM     17  C   UNL     1       6.840   4.467  11.883  0.00  0.00    +0.000 C 
ATOM     18  C   UNL     1       7.684   5.014  13.045  0.00  0.00    +0.000 C 
ATOM     19  C   UNL     1       7.154   4.699  14.385  0.00  0.00    +0.000 A 
ATOM     20  N   UNL     1       7.750   5.108  15.508  0.00  0.00    +0.000 NA
ATOM     21  N   UNL     1       6.983   4.577  16.488  0.00  0.00    +0.000 N 
ATOM     22  C   UNL     1       5.921   3.863  16.009  0.00  0.00    +0.000 A 
ATOM     23  C   UNL     1       5.999   3.941  14.636  0.00  0.00    +0.000 A 
ATOM     24  C   UNL     1       5.105   3.386  13.605  0.00  0.00    +0.000 C 
ENDBRANCH  14  21
ENDBRANCH   1  14
TORSDOF 3
ENDMDL
MODEL 4
REMARK VINA RESULT:      -8.0      4.285      7.974
REMARK  Name = 
REMARK  4 active torsions:
REMARK  status: ('A' for Active; 'I' for Inactive)
REMARK    1  A    between atoms: C_1  and  C_2
REMARK    2  A    between atoms: N_7  and  C_8
REMARK    3  A    between atoms: C_8  and  C_9
REMARK    4  A    between atoms: N_11  and  C_12
REMARK                            x       y       z     vdW  Elec       q    Type
REMARK                         _______ _______ _______ _____ _____    ______ ____
ROOT
ATOM      1  C   UNL     1       3.157   6.883  17.997  0.00  0.00    +0.000 C 
ATOM      2  O   UNL     1       4.310   6.802  18.423  0.00  0.00    +0.000 OA
ATOM      3  N   UNL     1       2.315   5.795  17.803  0.00  0.00    +0.000 N 
ATOM      4  H   UNL     1       1.648   5.918  17.033  0.00  0.00    +0.000 HD
ENDROOT
BRANCH   3   5
ATOM      5  C   UNL     1       2.766   4.480  18.070  0.00  0.00    +0.000 A 
ATOM      6  C   UNL     1       3.622   3.817  17.176  0.00  0.00    +0.000 A 
ATOM      7  F   UNL     1       4.143   4.466  16.124  0.00  0.00    +0.000 F 
ATOM      8  C   UNL     1       4.004   2.497  17.387  0.00  0.00    +0.000 A 
ATOM      9  C   UNL     1       3.524   1.831  18.504  0.00  0.00    +0.000 A 
ATOM     10  F   UNL     1       3.854   0.548  18.697  0.00  0.00    +0.000 F 
ATOM     11  C   UNL     1       2.709   2.473  19.432  0.00  0.00    +0.000 A 
ATOM     12  C   UNL     1       2.348   3.807  19.226  0.00  0.00    +0.000 A 
ATOM     13 BR   UNL     1       1.206   4.630  20.500  0.00  0.00    +0.000 Br
ENDBRANCH   3   5
BRANCH   1  14
ATOM     14  C   UNL     1       2.555   8.227  17.659  0.00  0.00    +0.000 C 
BRANCH  14  21
ATOM     15  C   UNL     1      -0.698  12.216  22.514  0.00  0.00    +0.000 C 
ATOM     16  C   UNL     1      -0.970  10.835  21.905  0.00  0.00    +0.000 C 
ATOM     17  C   UNL     1      -0.285   9.727  22.753  0.00  0.00    +0.000 C 
ATOM     18  C   UNL     1       0.758   8.788  22.128  0.00  0.00    +0.000 C 
ATOM     19  C   UNL     1       0.957   8.976  20.677  0.00  0.00    +0.000 A 
ATOM     20  N   UNL     1       1.813   8.236  19.968  0.00  0.00    +0.000 NA
ATOM     21  N   UNL     1       1.723   8.753  18.722  0.00  0.00    +0.000 N 
ATOM     22  C   UNL     1       0.829   9.781  18.631  0.00  0.00    +0.000 A 
ATOM     23  C   UNL     1       0.300   9.937  19.893  0.00  0.00    +0.000 A 
ATOM     24  C   UNL     1      -0.730  10.873  20.379  0.00  0.00    +0.000 C 
ENDBRANCH  14  21
ENDBRANCH   1  14
TORSDOF 3
ENDMDL
MODEL 5
REMARK VINA RESULT:      -8.0      1.426      1.471
REMARK  Name = 
REMARK  4 active torsions:
REMARK  status: ('A' for Active; 'I' for Inactive)
REMARK    1  A    between atoms: C_1  and  C_2
REMARK    2  A    between atoms: N_7  and  C_8
REMARK    3  A    between atoms: C_8  and  C_9
REMARK    4  A    between atoms: N_11  and  C_12
REMARK                            x       y       z     vdW  Elec       q    Type
REMARK                         _______ _______ _______ _____ _____    ______ ____
ROOT
ATOM      1  C   UNL     1       5.682   4.760  18.512  0.00  0.00    +0.000 C 
ATOM      2  O   UNL     1       5.312   5.673  19.253  0.00  0.00    +0.000 OA
ATOM      3  N   UNL     1       4.955   3.599  18.275  0.00  0.00    +0.000 N 
ATOM      4  H   UNL     1       5.537   2.776  18.085  0.00  0.00    +0.000 HD
ENDROOT
BRANCH   3   5
ATOM      5  C   UNL     1       3.713   3.384  18.919  0.00  0.00    +0.000 A 
ATOM      6  C   UNL     1       2.548   4.024  18.466  0.00  0.00    +0.000 A 
ATOM      7  F   UNL     1       2.561   4.739  17.332  0.00  0.00    +0.000 F 
ATOM      8  C   UNL     1       1.340   3.885  19.140  0.00  0.00    +0.000 A 
ATOM      9  C   UNL     1       1.296   3.098  20.280  0.00  0.00    +0.000 A 
ATOM     10  F   UNL     1       0.147   2.987  20.959  0.00  0.00    +0.000 F 
ATOM     11  C   UNL     1       2.422   2.415  20.730  0.00  0.00    +0.000 A 
ATOM     12  C   UNL     1       3.627   2.540  20.034  0.00  0.00    +0.000 A 
ATOM     13 BR   UNL     1       5.146   1.619  20.705  0.00  0.00    +0.000 Br
ENDBRANCH   3   5
BRANCH   1  14
ATOM     14  C   UNL     1       6.996   4.855  17.773  0.00  0.00    +0.000 C 
BRANCH  14  21
ATOM     15  C   UNL     1       6.752   2.242  11.202  0.00  0.00    +0.000 C 
ATOM     16  C   UNL     1       6.246   3.530  11.862  0.00  0.00    +0.000 C 
ATOM     17  C   UNL     1       7.322   4.647  11.763  0.00  0.00    +0.000 C 
ATOM     18  C   UNL     1       7.893   5.305  13.029  0.00  0.00    +0.000 C 
ATOM     19  C   UNL     1       7.266   4.855  14.287  0.00  0.00    +0.000 A 
ATOM     20  N   UNL     1       7.627   5.334  15.480  0.00  0.00    +0.000 NA
ATOM     21  N   UNL     1       6.855   4.640  16.348  0.00  0.00    +0.000 N 
ATOM     22  C   UNL     1       6.017   3.756  15.730  0.00  0.00    +0.000 A 
ATOM     23  C   UNL     1       6.252   3.889  14.380  0.00  0.00    +0.000 A 
ATOM     24  C   UNL     1       5.617   3.209  13.237  0.00  0.00    +0.000 C 
ENDBRANCH  14  21
ENDBRANCH   1  14
TORSDOF 3
ENDMDL
MODEL 6
REMARK VINA RESULT:      -7.9      1.431      1.699
REMARK  Name = 
REMARK  4 active torsions:
REMARK  status: ('A' for Active; 'I' for Inactive)
REMARK    1  A    between atoms: C_1  and  C_2
REMARK    2  A    between atoms: N_7  and  C_8
REMARK    3  A    between atoms: C_8  and  C_9
REMARK    4  A    between atoms: N_11  and  C_12
REMARK                            x       y       z     vdW  Elec       q    Type
REMARK                         _______ _______ _______ _____ _____    ______ ____
ROOT
ATOM      1  C   UNL     1       6.330   5.116  18.652  0.00  0.00    +0.000 C 
ATOM      2  O   UNL     1       6.563   5.700  19.712  0.00  0.00    +0.000 OA
ATOM      3  N   UNL     1       5.056   4.880  18.150  0.00  0.00    +0.000 N 
ATOM      4  H   UNL     1       4.981   4.020  17.596  0.00  0.00    +0.000 HD
ENDROOT
BRANCH   3   5
ATOM      5  C   UNL     1       3.911   5.291  18.873  0.00  0.00    +0.000 A 
ATOM      6  C   UNL     1       3.394   6.588  18.725  0.00  0.00    +0.000 A 
ATOM      7  F   UNL     1       3.889   7.416  17.792  0.00  0.00    +0.000 F 
ATOM      8  C   UNL     1       2.321   7.030  19.490  0.00  0.00    +0.000 A 
ATOM      9  C   UNL     1       1.758   6.165  20.416  0.00  0.00    +0.000 A 
ATOM     10  F   UNL     1       0.749   6.591  21.185  0.00  0.00    +0.000 F 
ATOM     11  C   UNL     1       2.218   4.859  20.556  0.00  0.00    +0.000 A 
ATOM     12  C   UNL     1       3.281   4.414  19.766  0.00  0.00    +0.000 A 
ATOM     13 BR   UNL     1       3.898   2.636  20.018  0.00  0.00    +0.000 Br
ENDBRANCH   3   5
BRANCH   1  14
ATOM     14  C   UNL     1       7.463   4.612  17.788  0.00  0.00    +0.000 C 
BRANCH  14  21
ATOM     15  C   UNL     1       5.758   2.180  11.365  0.00  0.00    +0.000 C 
ATOM     16  C   UNL     1       5.623   3.537  12.067  0.00  0.00    +0.000 C 
ATOM     17  C   UNL     1       6.879   4.412  11.797  0.00  0.00    +0.000 C 
ATOM     18  C   UNL     1       7.747   4.924  12.956  0.00  0.00    +0.000 C 
ATOM     19  C   UNL     1       7.227   4.598  14.299  0.00  0.00    +0.000 A 
ATOM     20  N   UNL     1       7.844   4.979  15.420  0.00  0.00    +0.000 NA
ATOM     21  N   UNL     1       7.079   4.447  16.400  0.00  0.00    +0.000 N 
ATOM     22  C   UNL     1       5.999   3.760  15.924  0.00  0.00    +0.000 A 
ATOM     23  C   UNL     1       6.062   3.858  14.552  0.00  0.00    +0.000 A 
ATOM     24  C   UNL     1       5.145   3.335  13.523  0.00  0.00    +0.000 C 
ENDBRANCH  14  21
ENDBRANCH   1  14
TORSDOF 3
ENDMDL
MODEL 7
REMARK VINA RESULT:      -7.9      3.999      7.678
REMARK  Name = 
REMARK  4 active torsions:
REMARK  status: ('A' for Active; 'I' for Inactive)
REMARK    1  A    between atoms: C_1  and  C_2
REMARK    2  A    between atoms: N_7  and  C_8
REMARK    3  A    between atoms: C_8  and  C_9
REMARK    4  A    between atoms: N_11  and  C_12
REMARK                            x       y       z     vdW  Elec       q    Type
REMARK                         _______ _______ _______ _____ _____    ______ ____
ROOT
ATOM      1  C   UNL     1       3.417   5.490  19.496  0.00  0.00    +0.000 C 
ATOM      2  O   UNL     1       4.553   5.369  19.957  0.00  0.00    +0.000 OA
ATOM      3  N   UNL     1       3.093   5.320  18.155  0.00  0.00    +0.000 N 
ATOM      4  H   UNL     1       2.308   5.900  17.840  0.00  0.00    +0.000 HD
ENDROOT
BRANCH   3   5
ATOM      5  C   UNL     1       4.097   5.012  17.206  0.00  0.00    +0.000 A 
ATOM      6  C   UNL     1       4.778   6.032  16.522  0.00  0.00    +0.000 A 
ATOM      7  F   UNL     1       4.592   7.318  16.857  0.00  0.00    +0.000 F 
ATOM      8  C   UNL     1       5.706   5.742  15.529  0.00  0.00    +0.000 A 
ATOM      9  C   UNL     1       5.956   4.415  15.214  0.00  0.00    +0.000 A 
ATOM     10  F   UNL     1       6.819   4.123  14.234  0.00  0.00    +0.000 F 
ATOM     11  C   UNL     1       5.331   3.379  15.903  0.00  0.00    +0.000 A 
ATOM     12  C   UNL     1       4.417   3.679  16.916  0.00  0.00    +0.000 A 
ATOM     13 BR   UNL     1       3.562   2.234  17.803  0.00  0.00    +0.000 Br
ENDBRANCH   3   5
BRANCH   1  14
ATOM     14  C   UNL     1       2.253   5.830  20.398  0.00  0.00    +0.000 C 
BRANCH  14  21
ATOM     15  C   UNL     1      -1.393  11.875  19.914  0.00  0.00    +0.000 C 
ATOM     16  C   UNL     1       0.089  11.530  20.110  0.00  0.00    +0.000 C 
ATOM     17  C   UNL     1       0.807  11.435  18.736  0.00  0.00    +0.000 C 
ATOM     18  C   UNL     1       1.504  10.137  18.299  0.00  0.00    +0.000 C 
ATOM     19  C   UNL     1       1.505   9.071  19.320  0.00  0.00    +0.000 A 
ATOM     20  N   UNL     1       2.080   7.883  19.117  0.00  0.00    +0.000 NA
ATOM     21  N   UNL     1       1.818   7.204  20.257  0.00  0.00    +0.000 N 
ATOM     22  C   UNL     1       1.111   7.938  21.167  0.00  0.00    +0.000 A 
ATOM     23  C   UNL     1       0.908   9.170  20.586  0.00  0.00    +0.000 A 
ATOM     24  C   UNL     1       0.233  10.367  21.118  0.00  0.00    +0.000 C 
ENDBRANCH  14  21
ENDBRANCH   1  14
TORSDOF 3
ENDMDL
MODEL 8
REMARK VINA RESULT:      -7.8      4.735      8.482
REMARK  Name = 
REMARK  4 active torsions:
REMARK  status: ('A' for Active; 'I' for Inactive)
REMARK    1  A    between atoms: C_1  and  C_2
REMARK    2  A    between atoms: N_7  and  C_8
REMARK    3  A    between atoms: C_8  and  C_9
REMARK    4  A    between atoms: N_11  and  C_12
REMARK                            x       y       z     vdW  Elec       q    Type
REMARK                         _______ _______ _______ _____ _____    ______ ____
ROOT
ATOM      1  C   UNL     1       2.277   7.399  18.248  0.00  0.00    +0.000 C 
ATOM      2  O   UNL     1       1.670   6.630  17.500  0.00  0.00    +0.000 OA
ATOM      3  N   UNL     1       3.183   6.994  19.221  0.00  0.00    +0.000 N 
ATOM      4  H   UNL     1       3.217   7.610  20.040  0.00  0.00    +0.000 HD
ENDROOT
BRANCH   3   5
ATOM      5  C   UNL     1       3.447   5.619  19.430  0.00  0.00    +0.000 A 
ATOM      6  C   UNL     1       2.614   4.843  20.252  0.00  0.00    +0.000 A 
ATOM      7  F   UNL     1       1.474   5.353  20.741  0.00  0.00    +0.000 F 
ATOM      8  C   UNL     1       2.910   3.513  20.531  0.00  0.00    +0.000 A 
ATOM      9  C   UNL     1       4.053   2.952  19.982  0.00  0.00    +0.000 A 
ATOM     10  F   UNL     1       4.369   1.685  20.273  0.00  0.00    +0.000 F 
ATOM     11  C   UNL     1       4.875   3.681  19.128  0.00  0.00    +0.000 A 
ATOM     12  C   UNL     1       4.559   5.010  18.833  0.00  0.00    +0.000 A 
ATOM     13 BR   UNL     1       5.730   5.975  17.691  0.00  0.00    +0.000 Br
ENDBRANCH   3   5
BRANCH   1  14
ATOM     14  C   UNL     1       2.077   8.892  18.141  0.00  0.00    +0.000 C 
BRANCH  14  21
ATOM     15  C   UNL     1      -1.141  12.849  23.046  0.00  0.00    +0.000 C 
ATOM     16  C   UNL     1      -1.479  11.529  22.344  0.00  0.00    +0.000 C 
ATOM     17  C   UNL     1      -0.927  10.327  23.160  0.00  0.00    +0.000 C 
ATOM     18  C   UNL     1       0.078   9.346  22.536  0.00  0.00    +0.000 C 
ATOM     19  C   UNL     1       0.371   9.597  21.111  0.00  0.00    +0.000 A 
ATOM     20  N   UNL     1       1.209   8.832  20.405  0.00  0.00    +0.000 NA
ATOM     21  N   UNL     1       1.228   9.422  19.188  0.00  0.00    +0.000 N 
ATOM     22  C   UNL     1       0.418  10.519  19.112  0.00  0.00    +0.000 A 
ATOM     23  C   UNL     1      -0.168  10.646  20.352  0.00  0.00    +0.000 A 
ATOM     24  C   UNL     1      -1.151  11.631  20.837  0.00  0.00    +0.000 C 
ENDBRANCH  14  21
ENDBRANCH   1  14
TORSDOF 3
ENDMDL
MODEL 9
REMARK VINA RESULT:      -7.8      5.800      7.704
REMARK  Name = 
REMARK  4 active torsions:
REMARK  status: ('A' for Active; 'I' for Inactive)
REMARK    1  A    between atoms: C_1  and  C_2
REMARK    2  A    between atoms: N_7  and  C_8
REMARK    3  A    between atoms: C_8  and  C_9
REMARK    4  A    between atoms: N_11  and  C_12
REMARK                            x       y       z     vdW  Elec       q    Type
REMARK                         _______ _______ _______ _____ _____    ______ ____
ROOT
ATOM      1  C   UNL     1       0.785  10.122  19.036  0.00  0.00    +0.000 C 
ATOM      2  O   UNL     1      -0.402   9.998  18.729  0.00  0.00    +0.000 OA
ATOM      3  N   UNL     1       1.233  10.614  20.256  0.00  0.00    +0.000 N 
ATOM      4  H   UNL     1       2.128  11.111  20.200  0.00  0.00    +0.000 HD
ENDROOT
BRANCH   3   5
ATOM      5  C   UNL     1       0.311  11.041  21.241  0.00  0.00    +0.000 A 
ATOM      6  C   UNL     1      -0.206  10.138  22.184  0.00  0.00    +0.000 A 
ATOM      7  F   UNL     1       0.271   8.887  22.260  0.00  0.00    +0.000 F 
ATOM      8  C   UNL     1      -1.173  10.528  23.103  0.00  0.00    +0.000 A 
ATOM      9  C   UNL     1      -1.632  11.836  23.078  0.00  0.00    +0.000 A 
ATOM     10  F   UNL     1      -2.591  12.213  23.933  0.00  0.00    +0.000 F 
ATOM     11  C   UNL     1      -1.109  12.767  22.186  0.00  0.00    +0.000 A 
ATOM     12  C   UNL     1      -0.119  12.375  21.281  0.00  0.00    +0.000 A 
ATOM     13 BR   UNL     1       0.538  13.670  20.058  0.00  0.00    +0.000 Br
ENDBRANCH   3   5
BRANCH   1  14
ATOM     14  C   UNL     1       1.874   9.715  18.071  0.00  0.00    +0.000 C 
BRANCH  14  21
ATOM     15  C   UNL     1       3.409   2.814  17.760  0.00  0.00    +0.000 C 
ATOM     16  C   UNL     1       3.939   3.993  18.585  0.00  0.00    +0.000 C 
ATOM     17  C   UNL     1       3.143   4.123  19.913  0.00  0.00    +0.000 C 
ATOM     18  C   UNL     1       2.378   5.412  20.251  0.00  0.00    +0.000 C 
ATOM     19  C   UNL     1       2.555   6.501  19.271  0.00  0.00    +0.000 A 
ATOM     20  N   UNL     1       1.977   7.697  19.414  0.00  0.00    +0.000 NA
ATOM     21  N   UNL     1       2.353   8.367  18.300  0.00  0.00    +0.000 N 
ATOM     22  C   UNL     1       3.156   7.630  17.478  0.00  0.00    +0.000 A 
ATOM     23  C   UNL     1       3.319   6.411  18.097  0.00  0.00    +0.000 A 
ATOM     24  C   UNL     1       4.108   5.237  17.683  0.00  0.00    +0.000 C 
ENDBRANCH  14  21
ENDBRANCH   1  14
TORSDOF 3
ENDMDL
