MODEL 1
REMARK VINA RESULT:      -7.2      0.000      0.000
REMARK  Name = 
REMARK  6 active torsions:
REMARK  status: ('A' for Active; 'I' for Inactive)
REMARK    1  A    between atoms: C_2  and  O_3
REMARK    2  A    between atoms: C_2  and  C_4
REMARK    3  A    between atoms: C_4  and  C_5
REMARK    4  A    between atoms: C_5  and  C_6
REMARK    5  A    between atoms: C_8  and  C_9
REMARK    6  A    between atoms: C_17  and  C_18
REMARK                            x       y       z     vdW  Elec       q    Type
REMARK                         _______ _______ _______ _____ _____    ______ ____
ROOT
ATOM      1  C   UNL     1       4.013   6.533  17.485  0.00  0.00    +0.000 A 
ATOM      2  N   UNL     1       3.480   7.800  17.616  0.00  0.00    +0.000 NA
ATOM      3  C   UNL     1       2.478   7.647  18.459  0.00  0.00    +0.000 A 
ATOM      4  O   UNL     1       2.304   6.360  18.887  0.00  0.00    +0.000 OA
ATOM      5  C   UNL     1       3.301   5.639  18.270  0.00  0.00    +0.000 A 
ENDROOT
BRANCH   3   6
ATOM      6  C   UNL     1       1.568   8.663  18.979  0.00  0.00    +0.000 A 
ATOM      7  C   UNL     1       1.015   9.608  18.096  0.00  0.00    +0.000 A 
ATOM      8  C   UNL     1       0.161  10.613  18.556  0.00  0.00    +0.000 A 
ATOM      9  C   UNL     1      -0.152  10.685  19.911  0.00  0.00    +0.000 A 
ATOM     10 CL   UNL     1      -1.188  11.931  20.486  0.00  0.00    +0.000 Cl
ATOM     11  C   UNL     1       0.377   9.754  20.803  0.00  0.00    +0.000 A 
ATOM     12  C   UNL     1       1.231   8.747  20.339  0.00  0.00    +0.000 A 
ENDBRANCH   3   6
BRANCH   5  13
ATOM     13  C   UNL     1       3.503   4.168  18.444  0.00  0.00    +0.000 A 
ATOM     14  C   UNL     1       3.265   3.140  17.482  0.00  0.00    +0.000 A 
ATOM     15  C   UNL     1       3.513   1.881  17.984  0.00  0.00    +0.000 A 
ATOM     16  S   UNL     1       4.062   1.933  19.600  0.00  0.00    +0.000 S 
ATOM     17  C   UNL     1       3.968   3.643  19.633  0.00  0.00    +0.000 A 
ENDBRANCH   5  13
BRANCH   1  18
ATOM     18  C   UNL     1       5.171   6.300  16.577  0.00  0.00    +0.000 C 
BRANCH  18  19
ATOM     19  C   UNL     1       6.519   6.299  17.287  0.00  0.00    +0.000 C 
BRANCH  19  21
ATOM     20  O   UNL     1       7.807   4.585  16.155  0.00  0.00    +0.000 OA
ATOM     21  C   UNL     1       7.191   4.959  17.141  0.00  0.00    +0.000 C 
BRANCH  21  22
ATOM     22  O   UNL     1       7.042   4.185  18.239  0.00  0.00    +0.000 OA
ATOM     23  H   UNL     1       6.599   4.640  18.982  0.00  0.00    +0.000 HD
ENDBRANCH  21  22
ENDBRANCH  19  21
ENDBRANCH  18  19
ENDBRANCH   1  18
TORSDOF 6
ENDMDL
MODEL 2
REMARK VINA RESULT:      -7.2      0.685      1.441
REMARK  Name = 
REMARK  6 active torsions:
REMARK  status: ('A' for Active; 'I' for Inactive)
REMARK    1  A    between atoms: C_2  and  O_3
REMARK    2  A    between atoms: C_2  and  C_4
REMARK    3  A    between atoms: C_4  and  C_5
REMARK    4  A    between atoms: C_5  and  C_6
REMARK    5  A    between atoms: C_8  and  C_9
REMARK    6  A    between atoms: C_17  and  C_18
REMARK                            x       y       z     vdW  Elec       q    Type
REMARK                         _______ _______ _______ _____ _____    ______ ____
ROOT
ATOM      1  C   UNL     1       4.014   6.449  17.525  0.00  0.00    +0.000 A 
ATOM      2  N   UNL     1       3.475   7.718  17.589  0.00  0.00    +0.000 NA
ATOM      3  C   UNL     1       2.491   7.611  18.459  0.00  0.00    +0.000 A 
ATOM      4  O   UNL     1       2.334   6.352  18.969  0.00  0.00    +0.000 OA
ATOM      5  C   UNL     1       3.323   5.600  18.377  0.00  0.00    +0.000 A 
ENDROOT
BRANCH   3   6
ATOM      6  C   UNL     1       1.584   8.652  18.935  0.00  0.00    +0.000 A 
ATOM      7  C   UNL     1       1.278   8.723  20.306  0.00  0.00    +0.000 A 
ATOM      8  C   UNL     1       0.394   9.687  20.799  0.00  0.00    +0.000 A 
ATOM      9  C   UNL     1      -0.195  10.594  19.923  0.00  0.00    +0.000 A 
ATOM     10 CL   UNL     1      -1.297  11.771  20.523  0.00  0.00    +0.000 Cl
ATOM     11  C   UNL     1       0.101  10.549  18.562  0.00  0.00    +0.000 A 
ATOM     12  C   UNL     1       0.988   9.583  18.071  0.00  0.00    +0.000 A 
ENDBRANCH   3   6
BRANCH   5  13
ATOM     13  C   UNL     1       3.539   4.144  18.637  0.00  0.00    +0.000 A 
ATOM     14  C   UNL     1       4.355   3.556  19.650  0.00  0.00    +0.000 A 
ATOM     15  C   UNL     1       4.368   2.179  19.584  0.00  0.00    +0.000 A 
ATOM     16  S   UNL     1       3.376   1.590  18.325  0.00  0.00    +0.000 S 
ATOM     17  C   UNL     1       2.927   3.178  17.864  0.00  0.00    +0.000 A 
ENDBRANCH   5  13
BRANCH   1  18
ATOM     18  C   UNL     1       5.155   6.166  16.609  0.00  0.00    +0.000 C 
BRANCH  18  19
ATOM     19  C   UNL     1       6.482   5.953  17.328  0.00  0.00    +0.000 C 
BRANCH  19  21
ATOM     20  O   UNL     1       8.180   4.224  17.259  0.00  0.00    +0.000 OA
ATOM     21  C   UNL     1       7.044   4.594  17.005  0.00  0.00    +0.000 C 
BRANCH  21  22
ATOM     22  O   UNL     1       6.144   3.798  16.387  0.00  0.00    +0.000 OA
ATOM     23  H   UNL     1       5.428   4.289  15.939  0.00  0.00    +0.000 HD
ENDBRANCH  21  22
ENDBRANCH  19  21
ENDBRANCH  18  19
ENDBRANCH   1  18
TORSDOF 6
ENDMDL
MODEL 3
REMARK VINA RESULT:      -7.2      2.267      3.960
REMARK  Name = 
REMARK  6 active torsions:
REMARK  status: ('A' for Active; 'I' for Inactive)
REMARK    1  A    between atoms: C_2  and  O_3
REMARK    2  A    between atoms: C_2  and  C_4
REMARK    3  A    between atoms: C_4  and  C_5
REMARK    4  A    between atoms: C_5  and  C_6
REMARK    5  A    between atoms: C_8  and  C_9
REMARK    6  A    between atoms: C_17  and  C_18
REMARK                            x       y       z     vdW  Elec       q    Type
REMARK                         _______ _______ _______ _____ _____    ______ ____
ROOT
ATOM      1  C   UNL     1       3.562   4.815  19.358  0.00  0.00    +0.000 A 
ATOM      2  N   UNL     1       2.611   5.627  19.942  0.00  0.00    +0.000 NA
ATOM      3  C   UNL     1       2.678   6.752  19.259  0.00  0.00    +0.000 A 
ATOM      4  O   UNL     1       3.618   6.745  18.266  0.00  0.00    +0.000 OA
ATOM      5  C   UNL     1       4.184   5.492  18.318  0.00  0.00    +0.000 A 
ENDROOT
BRANCH   3   6
ATOM      6  C   UNL     1       1.880   7.964  19.428  0.00  0.00    +0.000 A 
ATOM      7  C   UNL     1       1.685   8.817  18.326  0.00  0.00    +0.000 A 
ATOM      8  C   UNL     1       0.951  10.000  18.451  0.00  0.00    +0.000 A 
ATOM      9  C   UNL     1       0.402  10.344  19.684  0.00  0.00    +0.000 A 
ATOM     10 CL   UNL     1      -0.487  11.807  19.846  0.00  0.00    +0.000 Cl
ATOM     11  C   UNL     1       0.575   9.509  20.786  0.00  0.00    +0.000 A 
ATOM     12  C   UNL     1       1.309   8.324  20.658  0.00  0.00    +0.000 A 
ENDBRANCH   3   6
BRANCH   5  13
ATOM     13  C   UNL     1       5.274   5.025  17.408  0.00  0.00    +0.000 A 
ATOM     14  C   UNL     1       6.645   4.804  17.740  0.00  0.00    +0.000 A 
ATOM     15  C   UNL     1       7.395   4.417  16.650  0.00  0.00    +0.000 A 
ATOM     16  S   UNL     1       6.448   4.287  15.235  0.00  0.00    +0.000 S 
ATOM     17  C   UNL     1       5.031   4.751  16.077  0.00  0.00    +0.000 A 
ENDBRANCH   5  13
BRANCH   1  18
ATOM     18  C   UNL     1       3.800   3.442  19.885  0.00  0.00    +0.000 C 
BRANCH  18  19
ATOM     19  C   UNL     1       2.598   2.515  19.751  0.00  0.00    +0.000 C 
BRANCH  19  21
ATOM     20  O   UNL     1       1.857   2.396  22.056  0.00  0.00    +0.000 OA
ATOM     21  C   UNL     1       1.644   2.720  20.898  0.00  0.00    +0.000 C 
BRANCH  21  22
ATOM     22  O   UNL     1       0.494   3.315  20.512  0.00  0.00    +0.000 OA
ATOM     23  H   UNL     1       0.461   3.523  19.558  0.00  0.00    +0.000 HD
ENDBRANCH  21  22
ENDBRANCH  19  21
ENDBRANCH  18  19
ENDBRANCH   1  18
TORSDOF 6
ENDMDL
MODEL 4
REMARK VINA RESULT:      -7.1      2.200      3.511
REMARK  Name = 
REMARK  6 active torsions:
REMARK  status: ('A' for Active; 'I' for Inactive)
REMARK    1  A    between atoms: C_2  and  O_3
REMARK    2  A    between atoms: C_2  and  C_4
REMARK    3  A    between atoms: C_4  and  C_5
REMARK    4  A    between atoms: C_5  and  C_6
REMARK    5  A    between atoms: C_8  and  C_9
REMARK    6  A    between atoms: C_17  and  C_18
REMARK                            x       y       z     vdW  Elec       q    Type
REMARK                         _______ _______ _______ _____ _____    ______ ____
ROOT
ATOM      1  C   UNL     1       2.887   4.737  17.904  0.00  0.00    +0.000 A 
ATOM      2  N   UNL     1       1.938   5.498  18.556  0.00  0.00    +0.000 NA
ATOM      3  C   UNL     1       2.480   6.696  18.638  0.00  0.00    +0.000 A 
ATOM      4  O   UNL     1       3.731   6.779  18.093  0.00  0.00    +0.000 OA
ATOM      5  C   UNL     1       3.994   5.518  17.607  0.00  0.00    +0.000 A 
ENDROOT
BRANCH   3   6
ATOM      6  C   UNL     1       1.911   7.911  19.216  0.00  0.00    +0.000 A 
ATOM      7  C   UNL     1       1.586   7.934  20.584  0.00  0.00    +0.000 A 
ATOM      8  C   UNL     1       1.015   9.066  21.171  0.00  0.00    +0.000 A 
ATOM      9  C   UNL     1       0.764  10.193  20.393  0.00  0.00    +0.000 A 
ATOM     10 CL   UNL     1       0.045  11.583  21.108  0.00  0.00    +0.000 Cl
ATOM     11  C   UNL     1       1.087  10.197  19.038  0.00  0.00    +0.000 A 
ATOM     12  C   UNL     1       1.660   9.061  18.452  0.00  0.00    +0.000 A 
ENDBRANCH   3   6
BRANCH   5  13
ATOM     13  C   UNL     1       5.263   5.132  16.918  0.00  0.00    +0.000 A 
ATOM     14  C   UNL     1       6.480   4.696  17.525  0.00  0.00    +0.000 A 
ATOM     15  C   UNL     1       7.475   4.462  16.600  0.00  0.00    +0.000 A 
ATOM     16  S   UNL     1       6.941   4.735  15.002  0.00  0.00    +0.000 S 
ATOM     17  C   UNL     1       5.375   5.170  15.543  0.00  0.00    +0.000 A 
ENDBRANCH   5  13
BRANCH   1  18
ATOM     18  C   UNL     1       2.637   3.291  17.645  0.00  0.00    +0.000 C 
BRANCH  18  19
ATOM     19  C   UNL     1       2.632   2.433  18.905  0.00  0.00    +0.000 C 
BRANCH  19  21
ATOM     20  O   UNL     1       4.808   2.369  19.971  0.00  0.00    +0.000 OA
ATOM     21  C   UNL     1       4.010   1.891  19.179  0.00  0.00    +0.000 C 
BRANCH  21  22
ATOM     22  O   UNL     1       4.289   0.793  18.444  0.00  0.00    +0.000 OA
ATOM     23  H   UNL     1       5.231   0.534  18.467  0.00  0.00    +0.000 HD
ENDBRANCH  21  22
ENDBRANCH  19  21
ENDBRANCH  18  19
ENDBRANCH   1  18
TORSDOF 6
ENDMDL
MODEL 5
REMARK VINA RESULT:      -7.1      2.374      3.830
REMARK  Name = 
REMARK  6 active torsions:
REMARK  status: ('A' for Active; 'I' for Inactive)
REMARK    1  A    between atoms: C_2  and  O_3
REMARK    2  A    between atoms: C_2  and  C_4
REMARK    3  A    between atoms: C_4  and  C_5
REMARK    4  A    between atoms: C_5  and  C_6
REMARK    5  A    between atoms: C_8  and  C_9
REMARK    6  A    between atoms: C_17  and  C_18
REMARK                            x       y       z     vdW  Elec       q    Type
REMARK                         _______ _______ _______ _____ _____    ______ ____
ROOT
ATOM      1  C   UNL     1       3.018   4.844  19.736  0.00  0.00    +0.000 A 
ATOM      2  N   UNL     1       2.127   5.683  20.374  0.00  0.00    +0.000 NA
ATOM      3  C   UNL     1       2.304   6.852  19.790  0.00  0.00    +0.000 A 
ATOM      4  O   UNL     1       3.261   6.845  18.813  0.00  0.00    +0.000 OA
ATOM      5  C   UNL     1       3.717   5.547  18.767  0.00  0.00    +0.000 A 
ENDROOT
BRANCH   3   6
ATOM      6  C   UNL     1       1.610   8.110  20.049  0.00  0.00    +0.000 A 
ATOM      7  C   UNL     1       1.145   8.383  21.348  0.00  0.00    +0.000 A 
ATOM      8  C   UNL     1       0.452   9.563  21.634  0.00  0.00    +0.000 A 
ATOM      9  C   UNL     1       0.216  10.486  20.619  0.00  0.00    +0.000 A 
ATOM     10 CL   UNL     1      -0.651  11.931  20.962  0.00  0.00    +0.000 Cl
ATOM     11  C   UNL     1       0.676  10.241  19.327  0.00  0.00    +0.000 A 
ATOM     12  C   UNL     1       1.371   9.059  19.044  0.00  0.00    +0.000 A 
ENDBRANCH   3   6
BRANCH   5  13
ATOM     13  C   UNL     1       4.782   5.065  17.836  0.00  0.00    +0.000 A 
ATOM     14  C   UNL     1       4.610   4.282  16.654  0.00  0.00    +0.000 A 
ATOM     15  C   UNL     1       5.809   3.970  16.049  0.00  0.00    +0.000 A 
ATOM     16  S   UNL     1       7.139   4.643  16.882  0.00  0.00    +0.000 S 
ATOM     17  C   UNL     1       6.114   5.353  18.056  0.00  0.00    +0.000 A 
ENDBRANCH   5  13
BRANCH   1  18
ATOM     18  C   UNL     1       3.126   3.416  20.149  0.00  0.00    +0.000 C 
BRANCH  18  19
ATOM     19  C   UNL     1       1.782   2.708  20.273  0.00  0.00    +0.000 C 
BRANCH  19  21
ATOM     20  O   UNL     1       0.228   2.280  18.462  0.00  0.00    +0.000 OA
ATOM     21  C   UNL     1       1.347   2.164  18.938  0.00  0.00    +0.000 C 
BRANCH  21  22
ATOM     22  O   UNL     1       2.343   1.514  18.297  0.00  0.00    +0.000 OA
ATOM     23  H   UNL     1       2.296   0.542  18.384  0.00  0.00    +0.000 HD
ENDBRANCH  21  22
ENDBRANCH  19  21
ENDBRANCH  18  19
ENDBRANCH   1  18
TORSDOF 6
ENDMDL
MODEL 6
REMARK VINA RESULT:      -7.1      2.721      3.897
REMARK  Name = 
REMARK  6 active torsions:
REMARK  status: ('A' for Active; 'I' for Inactive)
REMARK    1  A    between atoms: C_2  and  O_3
REMARK    2  A    between atoms: C_2  and  C_4
REMARK    3  A    between atoms: C_4  and  C_5
REMARK    4  A    between atoms: C_5  and  C_6
REMARK    5  A    between atoms: C_8  and  C_9
REMARK    6  A    between atoms: C_17  and  C_18
REMARK                            x       y       z     vdW  Elec       q    Type
REMARK                         _______ _______ _______ _____ _____    ______ ____
ROOT
ATOM      1  C   UNL     1       2.196   5.313  20.400  0.00  0.00    +0.000 A 
ATOM      2  N   UNL     1       1.317   6.164  21.039  0.00  0.00    +0.000 NA
ATOM      3  C   UNL     1       1.611   7.357  20.560  0.00  0.00    +0.000 A 
ATOM      4  O   UNL     1       2.635   7.354  19.653  0.00  0.00    +0.000 OA
ATOM      5  C   UNL     1       3.008   6.034  19.538  0.00  0.00    +0.000 A 
ENDROOT
BRANCH   3   6
ATOM      6  C   UNL     1       0.982   8.638  20.868  0.00  0.00    +0.000 A 
ATOM      7  C   UNL     1       0.520   8.880  22.174  0.00  0.00    +0.000 A 
ATOM      8  C   UNL     1      -0.112  10.082  22.505  0.00  0.00    +0.000 A 
ATOM      9  C   UNL     1      -0.288  11.059  21.530  0.00  0.00    +0.000 A 
ATOM     10 CL   UNL     1      -1.080  12.533  21.928  0.00  0.00    +0.000 Cl
ATOM     11  C   UNL     1       0.171  10.845  20.232  0.00  0.00    +0.000 A 
ATOM     12  C   UNL     1       0.805   9.641  19.903  0.00  0.00    +0.000 A 
ENDBRANCH   3   6
BRANCH   5  13
ATOM     13  C   UNL     1       4.104   5.548  18.646  0.00  0.00    +0.000 A 
ATOM     14  C   UNL     1       4.022   5.259  17.250  0.00  0.00    +0.000 A 
ATOM     15  C   UNL     1       5.211   4.783  16.740  0.00  0.00    +0.000 A 
ATOM     16  S   UNL     1       6.435   4.713  17.928  0.00  0.00    +0.000 S 
ATOM     17  C   UNL     1       5.376   5.318  19.131  0.00  0.00    +0.000 A 
ENDBRANCH   5  13
BRANCH   1  18
ATOM     18  C   UNL     1       2.181   3.855  20.708  0.00  0.00    +0.000 C 
BRANCH  18  19
ATOM     19  C   UNL     1       0.999   3.110  20.100  0.00  0.00    +0.000 C 
BRANCH  19  21
ATOM     20  O   UNL     1       1.055   3.485  17.706  0.00  0.00    +0.000 OA
ATOM     21  C   UNL     1       1.279   2.759  18.663  0.00  0.00    +0.000 C 
BRANCH  21  22
ATOM     22  O   UNL     1       1.817   1.528  18.528  0.00  0.00    +0.000 OA
ATOM     23  H   UNL     1       1.650   1.120  17.656  0.00  0.00    +0.000 HD
ENDBRANCH  21  22
ENDBRANCH  19  21
ENDBRANCH  18  19
ENDBRANCH   1  18
TORSDOF 6
ENDMDL
MODEL 7
REMARK VINA RESULT:      -7.1      2.276      4.036
REMARK  Name = 
REMARK  6 active torsions:
REMARK  status: ('A' for Active; 'I' for Inactive)
REMARK    1  A    between atoms: C_2  and  O_3
REMARK    2  A    between atoms: C_2  and  C_4
REMARK    3  A    between atoms: C_4  and  C_5
REMARK    4  A    between atoms: C_5  and  C_6
REMARK    5  A    between atoms: C_8  and  C_9
REMARK    6  A    between atoms: C_17  and  C_18
REMARK                            x       y       z     vdW  Elec       q    Type
REMARK                         _______ _______ _______ _____ _____    ______ ____
ROOT
ATOM      1  C   UNL     1       3.631   4.980  19.148  0.00  0.00    +0.000 A 
ATOM      2  N   UNL     1       2.665   5.777  19.725  0.00  0.00    +0.000 NA
ATOM      3  C   UNL     1       2.716   6.902  19.040  0.00  0.00    +0.000 A 
ATOM      4  O   UNL     1       3.662   6.907  18.052  0.00  0.00    +0.000 OA
ATOM      5  C   UNL     1       4.248   5.663  18.110  0.00  0.00    +0.000 A 
ENDROOT
BRANCH   3   6
ATOM      6  C   UNL     1       1.899   8.101  19.201  0.00  0.00    +0.000 A 
ATOM      7  C   UNL     1       1.344   8.390  20.461  0.00  0.00    +0.000 A 
ATOM      8  C   UNL     1       0.534   9.512  20.653  0.00  0.00    +0.000 A 
ATOM      9  C   UNL     1       0.269  10.362  19.583  0.00  0.00    +0.000 A 
ATOM     10 CL   UNL     1      -0.742  11.735  19.810  0.00  0.00    +0.000 Cl
ATOM     11  C   UNL     1       0.815  10.101  18.328  0.00  0.00    +0.000 A 
ATOM     12  C   UNL     1       1.628   8.977  18.139  0.00  0.00    +0.000 A 
ENDBRANCH   3   6
BRANCH   5  13
ATOM     13  C   UNL     1       5.349   5.212  17.206  0.00  0.00    +0.000 A 
ATOM     14  C   UNL     1       6.642   4.738  17.585  0.00  0.00    +0.000 A 
ATOM     15  C   UNL     1       7.436   4.445  16.496  0.00  0.00    +0.000 A 
ATOM     16  S   UNL     1       6.619   4.709  15.020  0.00  0.00    +0.000 S 
ATOM     17  C   UNL     1       5.201   5.218  15.834  0.00  0.00    +0.000 A 
ENDBRANCH   5  13
BRANCH   1  18
ATOM     18  C   UNL     1       3.888   3.612  19.680  0.00  0.00    +0.000 C 
BRANCH  18  19
ATOM     19  C   UNL     1       2.656   2.716  19.694  0.00  0.00    +0.000 C 
BRANCH  19  21
ATOM     20  O   UNL     1       2.627   2.513  22.109  0.00  0.00    +0.000 OA
ATOM     21  C   UNL     1       2.028   2.705  21.062  0.00  0.00    +0.000 C 
BRANCH  21  22
ATOM     22  O   UNL     1       0.697   2.934  21.021  0.00  0.00    +0.000 OA
ATOM     23  H   UNL     1       0.266   2.594  20.212  0.00  0.00    +0.000 HD
ENDBRANCH  21  22
ENDBRANCH  19  21
ENDBRANCH  18  19
ENDBRANCH   1  18
TORSDOF 6
ENDMDL
MODEL 8
REMARK VINA RESULT:      -7.0      1.021      1.624
REMARK  Name = 
REMARK  6 active torsions:
REMARK  status: ('A' for Active; 'I' for Inactive)
REMARK    1  A    between atoms: C_2  and  O_3
REMARK    2  A    between atoms: C_2  and  C_4
REMARK    3  A    between atoms: C_4  and  C_5
REMARK    4  A    between atoms: C_5  and  C_6
REMARK    5  A    between atoms: C_8  and  C_9
REMARK    6  A    between atoms: C_17  and  C_18
REMARK                            x       y       z     vdW  Elec       q    Type
REMARK                         _______ _______ _______ _____ _____    ______ ____
ROOT
ATOM      1  C   UNL     1       4.241   6.284  17.495  0.00  0.00    +0.000 A 
ATOM      2  N   UNL     1       3.720   7.559  17.575  0.00  0.00    +0.000 NA
ATOM      3  C   UNL     1       2.675   7.436  18.370  0.00  0.00    +0.000 A 
ATOM      4  O   UNL     1       2.463   6.160  18.813  0.00  0.00    +0.000 OA
ATOM      5  C   UNL     1       3.479   5.414  18.260  0.00  0.00    +0.000 A 
ENDROOT
BRANCH   3   6
ATOM      6  C   UNL     1       1.755   8.474  18.825  0.00  0.00    +0.000 A 
ATOM      7  C   UNL     1       1.398   8.528  20.185  0.00  0.00    +0.000 A 
ATOM      8  C   UNL     1       0.499   9.488  20.657  0.00  0.00    +0.000 A 
ATOM      9  C   UNL     1      -0.054  10.409  19.772  0.00  0.00    +0.000 A 
ATOM     10 CL   UNL     1      -1.174  11.581  20.346  0.00  0.00    +0.000 Cl
ATOM     11  C   UNL     1       0.292  10.380  18.423  0.00  0.00    +0.000 A 
ATOM     12  C   UNL     1       1.194   9.418  17.952  0.00  0.00    +0.000 A 
ENDBRANCH   3   6
BRANCH   5  13
ATOM     13  C   UNL     1       3.652   3.945  18.472  0.00  0.00    +0.000 A 
ATOM     14  C   UNL     1       3.093   2.885  17.695  0.00  0.00    +0.000 A 
ATOM     15  C   UNL     1       3.416   1.641  18.191  0.00  0.00    +0.000 A 
ATOM     16  S   UNL     1       4.415   1.742  19.572  0.00  0.00    +0.000 S 
ATOM     17  C   UNL     1       4.418   3.454  19.511  0.00  0.00    +0.000 A 
ENDBRANCH   5  13
BRANCH   1  18
ATOM     18  C   UNL     1       5.439   6.018  16.650  0.00  0.00    +0.000 C 
BRANCH  18  19
ATOM     19  C   UNL     1       5.193   5.009  15.534  0.00  0.00    +0.000 C 
BRANCH  19  21
ATOM     20  O   UNL     1       7.514   5.321  14.910  0.00  0.00    +0.000 OA
ATOM     21  C   UNL     1       6.483   4.671  14.835  0.00  0.00    +0.000 C 
BRANCH  21  22
ATOM     22  O   UNL     1       6.387   3.547  14.092  0.00  0.00    +0.000 OA
ATOM     23  H   UNL     1       7.138   2.933  14.212  0.00  0.00    +0.000 HD
ENDBRANCH  21  22
ENDBRANCH  19  21
ENDBRANCH  18  19
ENDBRANCH   1  18
TORSDOF 6
ENDMDL
MODEL 9
REMARK VINA RESULT:      -7.0      2.194      3.387
REMARK  Name = 
REMARK  6 active torsions:
REMARK  status: ('A' for Active; 'I' for Inactive)
REMARK    1  A    between atoms: C_2  and  O_3
REMARK    2  A    between atoms: C_2  and  C_4
REMARK    3  A    between atoms: C_4  and  C_5
REMARK    4  A    between atoms: C_5  and  C_6
REMARK    5  A    between atoms: C_8  and  C_9
REMARK    6  A    between atoms: C_17  and  C_18
REMARK                            x       y       z     vdW  Elec       q    Type
REMARK                         _______ _______ _______ _____ _____    ______ ____
ROOT
ATOM      1  C   UNL     1       3.367   4.855  19.566  0.00  0.00    +0.000 A 
ATOM      2  N   UNL     1       2.423   5.691  20.127  0.00  0.00    +0.000 NA
ATOM      3  C   UNL     1       2.549   6.821  19.461  0.00  0.00    +0.000 A 
ATOM      4  O   UNL     1       3.523   6.794  18.501  0.00  0.00    +0.000 OA
ATOM      5  C   UNL     1       4.046   5.522  18.557  0.00  0.00    +0.000 A 
ENDROOT
BRANCH   3   6
ATOM      6  C   UNL     1       1.786   8.056  19.617  0.00  0.00    +0.000 A 
ATOM      7  C   UNL     1       1.646   8.921  18.517  0.00  0.00    +0.000 A 
ATOM      8  C   UNL     1       0.947  10.126  18.631  0.00  0.00    +0.000 A 
ATOM      9  C   UNL     1       0.377  10.480  19.851  0.00  0.00    +0.000 A 
ATOM     10 CL   UNL     1      -0.469  11.970  20.000  0.00  0.00    +0.000 Cl
ATOM     11  C   UNL     1       0.496   9.634  20.952  0.00  0.00    +0.000 A 
ATOM     12  C   UNL     1       1.195   8.427  20.835  0.00  0.00    +0.000 A 
ENDBRANCH   3   6
BRANCH   5  13
ATOM     13  C   UNL     1       5.151   5.030  17.679  0.00  0.00    +0.000 A 
ATOM     14  C   UNL     1       6.538   4.936  18.003  0.00  0.00    +0.000 A 
ATOM     15  C   UNL     1       7.297   4.481  16.945  0.00  0.00    +0.000 A 
ATOM     16  S   UNL     1       6.340   4.137  15.573  0.00  0.00    +0.000 S 
ATOM     17  C   UNL     1       4.907   4.598  16.391  0.00  0.00    +0.000 A 
ENDBRANCH   5  13
BRANCH   1  18
ATOM     18  C   UNL     1       3.541   3.470  20.085  0.00  0.00    +0.000 C 
BRANCH  18  19
ATOM     19  C   UNL     1       2.475   2.493  19.601  0.00  0.00    +0.000 C 
BRANCH  19  21
ATOM     20  O   UNL     1       2.229   2.444  17.190  0.00  0.00    +0.000 OA
ATOM     21  C   UNL     1       2.779   2.032  18.200  0.00  0.00    +0.000 C 
BRANCH  21  22
ATOM     22  O   UNL     1       3.746   1.090  18.166  0.00  0.00    +0.000 OA
ATOM     23  H   UNL     1       3.492   0.251  18.598  0.00  0.00    +0.000 HD
ENDBRANCH  21  22
ENDBRANCH  19  21
ENDBRANCH  18  19
ENDBRANCH   1  18
TORSDOF 6
ENDMDL
