MODEL 1
REMARK VINA RESULT:      -8.3      0.000      0.000
REMARK  Name = 
REMARK  4 active torsions:
REMARK  status: ('A' for Active; 'I' for Inactive)
REMARK    1  A    between atoms: C_1  and  C_2
REMARK    2  A    between atoms: C_2  and  C_3
REMARK    3  A    between atoms: C_2  and  N_13
REMARK    4  A    between atoms: N_5  and  C_6
REMARK                            x       y       z     vdW  Elec       q    Type
REMARK                         _______ _______ _______ _____ _____    ______ ____
ROOT
ATOM      1  C   UNL     1       7.089   6.364  18.067  0.00  0.00    +0.000 C 
ATOM      2  C   UNL     1       5.656   6.446  17.549  0.00  0.00    +0.000 C 
ENDROOT
BRANCH   2   3
ATOM      3  N   UNL     1       4.717   5.654  18.354  0.00  0.00    +0.000 N 
ATOM      4  C   UNL     1       4.947   4.398  18.838  0.00  0.00    +0.000 C 
ATOM      5  O   UNL     1       5.904   3.674  18.636  0.00  0.00    +0.000 OA
ATOM      6  C   UNL     1       3.773   4.010  19.602  0.00  0.00    +0.000 A 
ATOM      7  C   UNL     1       3.498   2.842  20.286  0.00  0.00    +0.000 A 
ATOM      8  C   UNL     1       2.268   2.767  20.943  0.00  0.00    +0.000 A 
ATOM      9  C   UNL     1       1.356   3.844  20.897  0.00  0.00    +0.000 A 
ATOM     10  C   UNL     1       1.656   5.010  20.185  0.00  0.00    +0.000 A 
ATOM     11  C   UNL     1       2.875   5.058  19.543  0.00  0.00    +0.000 A 
ATOM     12  C   UNL     1       3.482   6.113  18.726  0.00  0.00    +0.000 C 
ATOM     13  O   UNL     1       2.942   7.174  18.478  0.00  0.00    +0.000 OA
ENDBRANCH   2   3
BRANCH   2  14
ATOM     14  C   UNL     1       5.598   6.108  16.047  0.00  0.00    +0.000 C 
ATOM     15  O   UNL     1       5.059   6.881  15.256  0.00  0.00    +0.000 OA
ATOM     16  N   UNL     1       6.263   4.954  15.671  0.00  0.00    +0.000 N 
ATOM     17  H   UNL     1       6.460   4.256  16.387  0.00  0.00    +0.000 HD
BRANCH  16  18
ATOM     18  C   UNL     1       6.379   4.501  14.344  0.00  0.00    +0.000 A 
ATOM     19  C   UNL     1       5.445   3.641  13.767  0.00  0.00    +0.000 A 
ATOM     20  C   UNL     1       5.575   3.272  12.426  0.00  0.00    +0.000 A 
ATOM     21  C   UNL     1       6.658   3.727  11.670  0.00  0.00    +0.000 A 
ATOM     22  C   UNL     1       7.605   4.570  12.249  0.00  0.00    +0.000 A 
ATOM     23  C   UNL     1       7.445   4.972  13.571  0.00  0.00    +0.000 A 
ATOM     24  F   UNL     1       8.367   5.775  14.125  0.00  0.00    +0.000 F 
ENDBRANCH  16  18
ENDBRANCH   2  14
TORSDOF 3
ENDMDL
MODEL 2
REMARK VINA RESULT:      -8.2      0.099      1.824
REMARK  Name = 
REMARK  4 active torsions:
REMARK  status: ('A' for Active; 'I' for Inactive)
REMARK    1  A    between atoms: C_1  and  C_2
REMARK    2  A    between atoms: C_2  and  C_3
REMARK    3  A    between atoms: C_2  and  N_13
REMARK    4  A    between atoms: N_5  and  C_6
REMARK                            x       y       z     vdW  Elec       q    Type
REMARK                         _______ _______ _______ _____ _____    ______ ____
ROOT
ATOM      1  C   UNL     1       7.134   6.397  17.990  0.00  0.00    +0.000 C 
ATOM      2  C   UNL     1       5.694   6.502  17.498  0.00  0.00    +0.000 C 
ENDROOT
BRANCH   2   3
ATOM      3  N   UNL     1       4.752   5.756  18.343  0.00  0.00    +0.000 N 
ATOM      4  C   UNL     1       3.516   6.187  18.731  0.00  0.00    +0.000 C 
ATOM      5  O   UNL     1       2.999   7.271  18.535  0.00  0.00    +0.000 OA
ATOM      6  C   UNL     1       2.920   5.126  19.526  0.00  0.00    +0.000 A 
ATOM      7  C   UNL     1       1.693   5.063  20.154  0.00  0.00    +0.000 A 
ATOM      8  C   UNL     1       1.394   3.888  20.847  0.00  0.00    +0.000 A 
ATOM      9  C   UNL     1       2.319   2.822  20.895  0.00  0.00    +0.000 A 
ATOM     10  C   UNL     1       3.562   2.919  20.261  0.00  0.00    +0.000 A 
ATOM     11  C   UNL     1       3.833   4.091  19.587  0.00  0.00    +0.000 A 
ATOM     12  C   UNL     1       5.021   4.505  18.833  0.00  0.00    +0.000 C 
ATOM     13  O   UNL     1       6.012   3.815  18.696  0.00  0.00    +0.000 OA
ENDBRANCH   2   3
BRANCH   2  14
ATOM     14  C   UNL     1       5.597   6.127  16.008  0.00  0.00    +0.000 C 
ATOM     15  O   UNL     1       5.029   6.877  15.213  0.00  0.00    +0.000 OA
ATOM     16  N   UNL     1       6.260   4.970  15.641  0.00  0.00    +0.000 N 
ATOM     17  H   UNL     1       6.484   4.291  16.368  0.00  0.00    +0.000 HD
BRANCH  16  18
ATOM     18  C   UNL     1       6.344   4.486  14.323  0.00  0.00    +0.000 A 
ATOM     19  C   UNL     1       5.381   3.633  13.782  0.00  0.00    +0.000 A 
ATOM     20  C   UNL     1       5.479   3.232  12.447  0.00  0.00    +0.000 A 
ATOM     21  C   UNL     1       6.558   3.646  11.662  0.00  0.00    +0.000 A 
ATOM     22  C   UNL     1       7.532   4.481  12.206  0.00  0.00    +0.000 A 
ATOM     23  C   UNL     1       7.405   4.916  13.521  0.00  0.00    +0.000 A 
ATOM     24  F   UNL     1       8.354   5.710  14.040  0.00  0.00    +0.000 F 
ENDBRANCH  16  18
ENDBRANCH   2  14
TORSDOF 3
ENDMDL
MODEL 3
REMARK VINA RESULT:      -8.0      0.953      1.383
REMARK  Name = 
REMARK  4 active torsions:
REMARK  status: ('A' for Active; 'I' for Inactive)
REMARK    1  A    between atoms: C_1  and  C_2
REMARK    2  A    between atoms: C_2  and  C_3
REMARK    3  A    between atoms: C_2  and  N_13
REMARK    4  A    between atoms: N_5  and  C_6
REMARK                            x       y       z     vdW  Elec       q    Type
REMARK                         _______ _______ _______ _____ _____    ______ ____
ROOT
ATOM      1  C   UNL     1       7.190   6.177  18.398  0.00  0.00    +0.000 C 
ATOM      2  C   UNL     1       5.779   6.383  17.853  0.00  0.00    +0.000 C 
ENDROOT
BRANCH   2   3
ATOM      3  N   UNL     1       4.774   5.592  18.576  0.00  0.00    +0.000 N 
ATOM      4  C   UNL     1       4.952   4.327  19.058  0.00  0.00    +0.000 C 
ATOM      5  O   UNL     1       5.912   3.593  18.916  0.00  0.00    +0.000 OA
ATOM      6  C   UNL     1       3.720   3.944  19.727  0.00  0.00    +0.000 A 
ATOM      7  C   UNL     1       3.381   2.771  20.372  0.00  0.00    +0.000 A 
ATOM      8  C   UNL     1       2.105   2.704  20.935  0.00  0.00    +0.000 A 
ATOM      9  C   UNL     1       1.213   3.793  20.838  0.00  0.00    +0.000 A 
ATOM     10  C   UNL     1       1.578   4.965  20.167  0.00  0.00    +0.000 A 
ATOM     11  C   UNL     1       2.842   5.005  19.617  0.00  0.00    +0.000 A 
ATOM     12  C   UNL     1       3.521   6.063  18.862  0.00  0.00    +0.000 C 
ATOM     13  O   UNL     1       3.014   7.134  18.591  0.00  0.00    +0.000 OA
ENDBRANCH   2   3
BRANCH   2  14
ATOM     14  C   UNL     1       5.744   6.157  16.330  0.00  0.00    +0.000 C 
ATOM     15  O   UNL     1       5.050   6.876  15.611  0.00  0.00    +0.000 OA
ATOM     16  N   UNL     1       6.599   5.180  15.853  0.00  0.00    +0.000 N 
ATOM     17  H   UNL     1       6.941   4.477  16.507  0.00  0.00    +0.000 HD
BRANCH  16  18
ATOM     18  C   UNL     1       6.761   4.861  14.492  0.00  0.00    +0.000 A 
ATOM     19  C   UNL     1       7.744   5.456  13.701  0.00  0.00    +0.000 A 
ATOM     20  C   UNL     1       7.903   5.057  12.371  0.00  0.00    +0.000 A 
ATOM     21  C   UNL     1       7.054   4.095  11.817  0.00  0.00    +0.000 A 
ATOM     22  C   UNL     1       6.057   3.514  12.599  0.00  0.00    +0.000 A 
ATOM     23  C   UNL     1       5.935   3.880  13.935  0.00  0.00    +0.000 A 
ATOM     24  F   UNL     1       4.965   3.325  14.678  0.00  0.00    +0.000 F 
ENDBRANCH  16  18
ENDBRANCH   2  14
TORSDOF 3
ENDMDL
MODEL 4
REMARK VINA RESULT:      -8.0      2.258      6.978
REMARK  Name = 
REMARK  4 active torsions:
REMARK  status: ('A' for Active; 'I' for Inactive)
REMARK    1  A    between atoms: C_1  and  C_2
REMARK    2  A    between atoms: C_2  and  C_3
REMARK    3  A    between atoms: C_2  and  N_13
REMARK    4  A    between atoms: N_5  and  C_6
REMARK                            x       y       z     vdW  Elec       q    Type
REMARK                         _______ _______ _______ _____ _____    ______ ____
ROOT
ATOM      1  C   UNL     1       4.713   7.130  17.643  0.00  0.00    +0.000 C 
ATOM      2  C   UNL     1       5.516   5.833  17.683  0.00  0.00    +0.000 C 
ENDROOT
BRANCH   2   3
ATOM      3  N   UNL     1       5.807   5.307  16.342  0.00  0.00    +0.000 N 
ATOM      4  C   UNL     1       5.022   4.437  15.641  0.00  0.00    +0.000 C 
ATOM      5  O   UNL     1       4.006   3.876  16.005  0.00  0.00    +0.000 OA
ATOM      6  C   UNL     1       5.668   4.212  14.359  0.00  0.00    +0.000 A 
ATOM      7  C   UNL     1       5.290   3.417  13.295  0.00  0.00    +0.000 A 
ATOM      8  C   UNL     1       6.127   3.414  12.177  0.00  0.00    +0.000 A 
ATOM      9  C   UNL     1       7.304   4.192  12.152  0.00  0.00    +0.000 A 
ATOM     10  C   UNL     1       7.670   4.978  13.250  0.00  0.00    +0.000 A 
ATOM     11  C   UNL     1       6.829   4.961  14.342  0.00  0.00    +0.000 A 
ATOM     12  C   UNL     1       6.922   5.658  15.630  0.00  0.00    +0.000 C 
ATOM     13  O   UNL     1       7.836   6.401  15.934  0.00  0.00    +0.000 OA
ENDBRANCH   2   3
BRANCH   2  14
ATOM     14  C   UNL     1       4.841   4.800  18.603  0.00  0.00    +0.000 C 
ATOM     15  O   UNL     1       5.515   3.942  19.175  0.00  0.00    +0.000 OA
ATOM     16  N   UNL     1       3.483   4.974  18.799  0.00  0.00    +0.000 N 
ATOM     17  H   UNL     1       2.965   5.528  18.118  0.00  0.00    +0.000 HD
BRANCH  16  18
ATOM     18  C   UNL     1       2.694   4.177  19.647  0.00  0.00    +0.000 A 
ATOM     19  C   UNL     1       2.943   4.075  21.017  0.00  0.00    +0.000 A 
ATOM     20  C   UNL     1       2.089   3.319  21.824  0.00  0.00    +0.000 A 
ATOM     21  C   UNL     1       1.012   2.630  21.262  0.00  0.00    +0.000 A 
ATOM     22  C   UNL     1       0.773   2.712  19.891  0.00  0.00    +0.000 A 
ATOM     23  C   UNL     1       1.597   3.505  19.100  0.00  0.00    +0.000 A 
ATOM     24  F   UNL     1       1.367   3.569  17.779  0.00  0.00    +0.000 F 
ENDBRANCH  16  18
ENDBRANCH   2  14
TORSDOF 3
ENDMDL
MODEL 5
REMARK VINA RESULT:      -8.0      0.957      2.288
REMARK  Name = 
REMARK  4 active torsions:
REMARK  status: ('A' for Active; 'I' for Inactive)
REMARK    1  A    between atoms: C_1  and  C_2
REMARK    2  A    between atoms: C_2  and  C_3
REMARK    3  A    between atoms: C_2  and  N_13
REMARK    4  A    between atoms: N_5  and  C_6
REMARK                            x       y       z     vdW  Elec       q    Type
REMARK                         _______ _______ _______ _____ _____    ______ ____
ROOT
ATOM      1  C   UNL     1       7.176   6.162  18.408  0.00  0.00    +0.000 C 
ATOM      2  C   UNL     1       5.772   6.401  17.861  0.00  0.00    +0.000 C 
ENDROOT
BRANCH   2   3
ATOM      3  N   UNL     1       4.745   5.647  18.593  0.00  0.00    +0.000 N 
ATOM      4  C   UNL     1       3.489   6.093  18.889  0.00  0.00    +0.000 C 
ATOM      5  O   UNL     1       3.013   7.195  18.689  0.00  0.00    +0.000 OA
ATOM      6  C   UNL     1       2.804   5.020  19.589  0.00  0.00    +0.000 A 
ATOM      7  C   UNL     1       1.526   4.963  20.106  0.00  0.00    +0.000 A 
ATOM      8  C   UNL     1       1.144   3.771  20.726  0.00  0.00    +0.000 A 
ATOM      9  C   UNL     1       2.039   2.683  20.814  0.00  0.00    +0.000 A 
ATOM     10  C   UNL     1       3.334   2.773  20.293  0.00  0.00    +0.000 A 
ATOM     11  C   UNL     1       3.687   3.961  19.690  0.00  0.00    +0.000 A 
ATOM     12  C   UNL     1       4.944   4.374  19.057  0.00  0.00    +0.000 C 
ATOM     13  O   UNL     1       5.929   3.665  18.980  0.00  0.00    +0.000 OA
ENDBRANCH   2   3
BRANCH   2  14
ATOM     14  C   UNL     1       5.729   6.159  16.341  0.00  0.00    +0.000 C 
ATOM     15  O   UNL     1       5.009   6.851  15.621  0.00  0.00    +0.000 OA
ATOM     16  N   UNL     1       6.608   5.203  15.865  0.00  0.00    +0.000 N 
ATOM     17  H   UNL     1       6.976   4.516  16.523  0.00  0.00    +0.000 HD
BRANCH  16  18
ATOM     18  C   UNL     1       6.767   4.875  14.506  0.00  0.00    +0.000 A 
ATOM     19  C   UNL     1       7.746   5.469  13.708  0.00  0.00    +0.000 A 
ATOM     20  C   UNL     1       7.901   5.061  12.380  0.00  0.00    +0.000 A 
ATOM     21  C   UNL     1       7.055   4.092  11.836  0.00  0.00    +0.000 A 
ATOM     22  C   UNL     1       6.063   3.512  12.625  0.00  0.00    +0.000 A 
ATOM     23  C   UNL     1       5.944   3.887  13.958  0.00  0.00    +0.000 A 
ATOM     24  F   UNL     1       4.978   3.333  14.708  0.00  0.00    +0.000 F 
ENDBRANCH  16  18
ENDBRANCH   2  14
TORSDOF 3
ENDMDL
MODEL 6
REMARK VINA RESULT:      -7.9      1.013      1.195
REMARK  Name = 
REMARK  4 active torsions:
REMARK  status: ('A' for Active; 'I' for Inactive)
REMARK    1  A    between atoms: C_1  and  C_2
REMARK    2  A    between atoms: C_2  and  C_3
REMARK    3  A    between atoms: C_2  and  N_13
REMARK    4  A    between atoms: N_5  and  C_6
REMARK                            x       y       z     vdW  Elec       q    Type
REMARK                         _______ _______ _______ _____ _____    ______ ____
ROOT
ATOM      1  C   UNL     1       7.738   6.673  18.245  0.00  0.00    +0.000 C 
ATOM      2  C   UNL     1       6.525   6.384  17.366  0.00  0.00    +0.000 C 
ENDROOT
BRANCH   2   3
ATOM      3  N   UNL     1       5.360   5.936  18.141  0.00  0.00    +0.000 N 
ATOM      4  C   UNL     1       5.317   4.839  18.952  0.00  0.00    +0.000 C 
ATOM      5  O   UNL     1       6.175   3.993  19.122  0.00  0.00    +0.000 OA
ATOM      6  C   UNL     1       3.990   4.792  19.543  0.00  0.00    +0.000 A 
ATOM      7  C   UNL     1       3.436   3.884  20.423  0.00  0.00    +0.000 A 
ATOM      8  C   UNL     1       2.119   4.114  20.825  0.00  0.00    +0.000 A 
ATOM      9  C   UNL     1       1.398   5.227  20.342  0.00  0.00    +0.000 A 
ATOM     10  C   UNL     1       1.981   6.124  19.440  0.00  0.00    +0.000 A 
ATOM     11  C   UNL     1       3.281   5.873  19.056  0.00  0.00    +0.000 A 
ATOM     12  C   UNL     1       4.164   6.603  18.141  0.00  0.00    +0.000 C 
ATOM     13  O   UNL     1       3.837   7.609  17.541  0.00  0.00    +0.000 OA
ENDBRANCH   2   3
BRANCH   2  14
ATOM     14  C   UNL     1       6.895   5.421  16.222  0.00  0.00    +0.000 C 
ATOM     15  O   UNL     1       7.738   4.541  16.398  0.00  0.00    +0.000 OA
ATOM     16  N   UNL     1       6.157   5.565  15.061  0.00  0.00    +0.000 N 
ATOM     17  H   UNL     1       5.672   6.448  14.904  0.00  0.00    +0.000 HD
BRANCH  16  18
ATOM     18  C   UNL     1       6.298   4.749  13.924  0.00  0.00    +0.000 A 
ATOM     19  C   UNL     1       5.357   3.776  13.586  0.00  0.00    +0.000 A 
ATOM     20  C   UNL     1       5.513   3.035  12.411  0.00  0.00    +0.000 A 
ATOM     21  C   UNL     1       6.628   3.234  11.594  0.00  0.00    +0.000 A 
ATOM     22  C   UNL     1       7.581   4.192  11.940  0.00  0.00    +0.000 A 
ATOM     23  C   UNL     1       7.397   4.959  13.085  0.00  0.00    +0.000 A 
ATOM     24  F   UNL     1       8.324   5.870  13.417  0.00  0.00    +0.000 F 
ENDBRANCH  16  18
ENDBRANCH   2  14
TORSDOF 3
ENDMDL
MODEL 7
REMARK VINA RESULT:      -7.8      2.242      6.933
REMARK  Name = 
REMARK  4 active torsions:
REMARK  status: ('A' for Active; 'I' for Inactive)
REMARK    1  A    between atoms: C_1  and  C_2
REMARK    2  A    between atoms: C_2  and  C_3
REMARK    3  A    between atoms: C_2  and  N_13
REMARK    4  A    between atoms: N_5  and  C_6
REMARK                            x       y       z     vdW  Elec       q    Type
REMARK                         _______ _______ _______ _____ _____    ______ ____
ROOT
ATOM      1  C   UNL     1       4.854   7.089  17.741  0.00  0.00    +0.000 C 
ATOM      2  C   UNL     1       5.591   5.753  17.704  0.00  0.00    +0.000 C 
ENDROOT
BRANCH   2   3
ATOM      3  N   UNL     1       5.853   5.291  16.334  0.00  0.00    +0.000 N 
ATOM      4  C   UNL     1       6.945   5.614  15.581  0.00  0.00    +0.000 C 
ATOM      5  O   UNL     1       7.845   6.388  15.849  0.00  0.00    +0.000 OA
ATOM      6  C   UNL     1       6.814   4.917  14.312  0.00  0.00    +0.000 A 
ATOM      7  C   UNL     1       7.641   4.910  13.207  0.00  0.00    +0.000 A 
ATOM      8  C   UNL     1       7.247   4.121  12.124  0.00  0.00    +0.000 A 
ATOM      9  C   UNL     1       6.050   3.373  12.172  0.00  0.00    +0.000 A 
ATOM     10  C   UNL     1       5.224   3.410  13.300  0.00  0.00    +0.000 A 
ATOM     11  C   UNL     1       5.635   4.198  14.354  0.00  0.00    +0.000 A 
ATOM     12  C   UNL     1       5.010   4.452  15.657  0.00  0.00    +0.000 C 
ATOM     13  O   UNL     1       3.952   3.965  16.007  0.00  0.00    +0.000 OA
ENDBRANCH   2   3
BRANCH   2  14
ATOM     14  C   UNL     1       4.864   4.704  18.566  0.00  0.00    +0.000 C 
ATOM     15  O   UNL     1       5.481   3.743  19.028  0.00  0.00    +0.000 OA
ATOM     16  N   UNL     1       3.538   4.978  18.845  0.00  0.00    +0.000 N 
ATOM     17  H   UNL     1       3.043   5.634  18.241  0.00  0.00    +0.000 HD
BRANCH  16  18
ATOM     18  C   UNL     1       2.716   4.180  19.661  0.00  0.00    +0.000 A 
ATOM     19  C   UNL     1       2.927   4.057  21.035  0.00  0.00    +0.000 A 
ATOM     20  C   UNL     1       2.042   3.301  21.810  0.00  0.00    +0.000 A 
ATOM     21  C   UNL     1       0.972   2.634  21.210  0.00  0.00    +0.000 A 
ATOM     22  C   UNL     1       0.770   2.738  19.834  0.00  0.00    +0.000 A 
ATOM     23  C   UNL     1       1.625   3.530  19.076  0.00  0.00    +0.000 A 
ATOM     24  F   UNL     1       1.431   3.615  17.751  0.00  0.00    +0.000 F 
ENDBRANCH  16  18
ENDBRANCH   2  14
TORSDOF 3
ENDMDL
MODEL 8
REMARK VINA RESULT:      -7.8      0.996      2.103
REMARK  Name = 
REMARK  4 active torsions:
REMARK  status: ('A' for Active; 'I' for Inactive)
REMARK    1  A    between atoms: C_1  and  C_2
REMARK    2  A    between atoms: C_2  and  C_3
REMARK    3  A    between atoms: C_2  and  N_13
REMARK    4  A    between atoms: N_5  and  C_6
REMARK                            x       y       z     vdW  Elec       q    Type
REMARK                         _______ _______ _______ _____ _____    ______ ____
ROOT
ATOM      1  C   UNL     1       7.581   6.894  18.048  0.00  0.00    +0.000 C 
ATOM      2  C   UNL     1       6.369   6.481  17.218  0.00  0.00    +0.000 C 
ENDROOT
BRANCH   2   3
ATOM      3  N   UNL     1       5.259   5.989  18.046  0.00  0.00    +0.000 N 
ATOM      4  C   UNL     1       4.012   6.539  18.114  0.00  0.00    +0.000 C 
ATOM      5  O   UNL     1       3.608   7.560  17.590  0.00  0.00    +0.000 OA
ATOM      6  C   UNL     1       3.229   5.719  19.023  0.00  0.00    +0.000 A 
ATOM      7  C   UNL     1       1.918   5.847  19.438  0.00  0.00    +0.000 A 
ATOM      8  C   UNL     1       1.436   4.881  20.324  0.00  0.00    +0.000 A 
ATOM      9  C   UNL     1       2.267   3.829  20.770  0.00  0.00    +0.000 A 
ATOM     10  C   UNL     1       3.595   3.732  20.344  0.00  0.00    +0.000 A 
ATOM     11  C   UNL     1       4.047   4.700  19.472  0.00  0.00    +0.000 A 
ATOM     12  C   UNL     1       5.362   4.884  18.848  0.00  0.00    +0.000 C 
ATOM     13  O   UNL     1       6.312   4.150  19.040  0.00  0.00    +0.000 OA
ENDBRANCH   2   3
BRANCH   2  14
ATOM     14  C   UNL     1       6.777   5.497  16.107  0.00  0.00    +0.000 C 
ATOM     15  O   UNL     1       7.643   4.647  16.316  0.00  0.00    +0.000 OA
ATOM     16  N   UNL     1       6.046   5.585  14.936  0.00  0.00    +0.000 N 
ATOM     17  H   UNL     1       5.537   6.448  14.749  0.00  0.00    +0.000 HD
BRANCH  16  18
ATOM     18  C   UNL     1       6.220   4.740  13.825  0.00  0.00    +0.000 A 
ATOM     19  C   UNL     1       5.270   3.785  13.461  0.00  0.00    +0.000 A 
ATOM     20  C   UNL     1       5.464   3.015  12.311  0.00  0.00    +0.000 A 
ATOM     21  C   UNL     1       6.624   3.166  11.547  0.00  0.00    +0.000 A 
ATOM     22  C   UNL     1       7.584   4.104  11.920  0.00  0.00    +0.000 A 
ATOM     23  C   UNL     1       7.364   4.902  13.038  0.00  0.00    +0.000 A 
ATOM     24  F   UNL     1       8.300   5.794  13.397  0.00  0.00    +0.000 F 
ENDBRANCH  16  18
ENDBRANCH   2  14
TORSDOF 3
ENDMDL
MODEL 9
REMARK VINA RESULT:      -7.7      1.405      1.818
REMARK  Name = 
REMARK  4 active torsions:
REMARK  status: ('A' for Active; 'I' for Inactive)
REMARK    1  A    between atoms: C_1  and  C_2
REMARK    2  A    between atoms: C_2  and  C_3
REMARK    3  A    between atoms: C_2  and  N_13
REMARK    4  A    between atoms: N_5  and  C_6
REMARK                            x       y       z     vdW  Elec       q    Type
REMARK                         _______ _______ _______ _____ _____    ______ ____
ROOT
ATOM      1  C   UNL     1       7.485   5.719  19.451  0.00  0.00    +0.000 C 
ATOM      2  C   UNL     1       6.405   5.775  18.374  0.00  0.00    +0.000 C 
ENDROOT
BRANCH   2   3
ATOM      3  N   UNL     1       5.134   5.188  18.818  0.00  0.00    +0.000 N 
ATOM      4  C   UNL     1       4.973   3.935  19.338  0.00  0.00    +0.000 C 
ATOM      5  O   UNL     1       5.804   3.054  19.453  0.00  0.00    +0.000 OA
ATOM      6  C   UNL     1       3.566   3.784  19.669  0.00  0.00    +0.000 A 
ATOM      7  C   UNL     1       2.887   2.712  20.212  0.00  0.00    +0.000 A 
ATOM      8  C   UNL     1       1.516   2.873  20.428  0.00  0.00    +0.000 A 
ATOM      9  C   UNL     1       0.869   4.083  20.097  0.00  0.00    +0.000 A 
ATOM     10  C   UNL     1       1.581   5.148  19.535  0.00  0.00    +0.000 A 
ATOM     11  C   UNL     1       2.931   4.963  19.329  0.00  0.00    +0.000 A 
ATOM     12  C   UNL     1       3.944   5.863  18.768  0.00  0.00    +0.000 C 
ATOM     13  O   UNL     1       3.705   6.987  18.368  0.00  0.00    +0.000 OA
ENDBRANCH   2   3
BRANCH   2  14
ATOM     14  C   UNL     1       6.919   5.173  17.053  0.00  0.00    +0.000 C 
ATOM     15  O   UNL     1       7.844   4.360  17.058  0.00  0.00    +0.000 OA
ATOM     16  N   UNL     1       6.215   5.537  15.920  0.00  0.00    +0.000 N 
ATOM     17  H   UNL     1       5.644   6.381  15.957  0.00  0.00    +0.000 HD
BRANCH  16  18
ATOM     18  C   UNL     1       6.485   5.053  14.627  0.00  0.00    +0.000 A 
ATOM     19  C   UNL     1       7.576   5.497  13.879  0.00  0.00    +0.000 A 
ATOM     20  C   UNL     1       7.834   4.936  12.625  0.00  0.00    +0.000 A 
ATOM     21  C   UNL     1       6.982   3.964  12.098  0.00  0.00    +0.000 A 
ATOM     22  C   UNL     1       5.879   3.532  12.833  0.00  0.00    +0.000 A 
ATOM     23  C   UNL     1       5.654   4.059  14.101  0.00  0.00    +0.000 A 
ATOM     24  F   UNL     1       4.583   3.647  14.797  0.00  0.00    +0.000 F 
ENDBRANCH  16  18
ENDBRANCH   2  14
TORSDOF 3
ENDMDL
