MODEL 1
REMARK VINA RESULT:      -6.9      0.000      0.000
REMARK  Name = 
REMARK  13 active torsions:
REMARK  status: ('A' for Active; 'I' for Inactive)
REMARK    1  A    between atoms: C_1  and  C_2
REMARK    2  A    between atoms: C_2  and  C_3
REMARK    3  A    between atoms: C_3  and  C_4
REMARK    4  A    between atoms: C_4  and  C_5
REMARK    5  A    between atoms: C_5  and  N_6
REMARK    6  A    between atoms: C_7  and  C_8
REMARK    7  A    between atoms: C_9  and  C_10
REMARK    8  A    between atoms: N_18  and  C_19
REMARK    9  A    between atoms: C_19  and  C_20
REMARK   10  A    between atoms: N_22  and  C_23
REMARK   11  A    between atoms: C_23  and  C_24
REMARK   12  A    between atoms: C_23  and  C_25
REMARK   13  A    between atoms: C_23  and  C_26
REMARK                            x       y       z     vdW  Elec       q    Type
REMARK                         _______ _______ _______ _____ _____    ______ ____
ROOT
ATOM      1  N   UNL     1      -0.698  11.012  19.587  0.00  0.00    +0.000 N 
ATOM      2  C   UNL     1      -1.416  11.788  20.503  0.00  0.00    +0.000 A 
ATOM      3  C   UNL     1      -2.414  12.829  20.024  0.00  0.00    +0.000 C 
ATOM      4  C   UNL     1      -1.187  11.650  21.828  0.00  0.00    +0.000 A 
ATOM      5  C   UNL     1      -0.241  10.599  22.303  0.00  0.00    +0.000 A 
ATOM      6  O   UNL     1      -0.161  10.310  23.494  0.00  0.00    +0.000 OA
ATOM      7  N   UNL     1       0.506   9.968  21.336  0.00  0.00    +0.000 N 
ATOM      8  C   UNL     1       0.413  10.249  19.986  0.00  0.00    +0.000 A 
ATOM      9  O   UNL     1       1.256   9.859  19.179  0.00  0.00    +0.000 OA
ENDROOT
BRANCH   4  10
ATOM     10  C   UNL     1      -1.861  12.496  22.833  0.00  0.00    +0.000 A 
ATOM     11  C   UNL     1      -3.121  12.146  23.332  0.00  0.00    +0.000 A 
ATOM     12  C   UNL     1      -3.773  12.985  24.237  0.00  0.00    +0.000 A 
ATOM     13  C   UNL     1      -3.170  14.174  24.649  0.00  0.00    +0.000 A 
ATOM     14  C   UNL     1      -1.910  14.522  24.167  0.00  0.00    +0.000 A 
ATOM     15  C   UNL     1      -1.254  13.684  23.266  0.00  0.00    +0.000 A 
ENDBRANCH   4  10
BRANCH   1  16
ATOM     16  C   UNL     1      -0.952  11.024  18.137  0.00  0.00    +0.000 C 
BRANCH  16  17
ATOM     17  C   UNL     1      -1.902   9.899  17.688  0.00  0.00    +0.000 C 
BRANCH  17  18
ATOM     18  C   UNL     1      -3.228  10.470  17.180  0.00  0.00    +0.000 C 
BRANCH  18  20
ATOM     19  C   UNL     1      -3.029  10.051  14.705  0.00  0.00    +0.000 C 
ATOM     20  C   UNL     1      -3.078  11.108  15.799  0.00  0.00    +0.000 C 
ENDBRANCH  18  20
ENDBRANCH  17  18
ENDBRANCH  16  17
ENDBRANCH   1  16
BRANCH   7  21
ATOM     21  C   UNL     1       1.513   9.001  21.777  0.00  0.00    +0.000 C 
BRANCH  21  22
ATOM     22  C   UNL     1       1.375   7.630  21.094  0.00  0.00    +0.000 C 
ATOM     23  O   UNL     1       0.301   7.031  21.088  0.00  0.00    +0.000 OA
ATOM     24  N   UNL     1       2.497   7.172  20.423  0.00  0.00    +0.000 N 
ATOM     25  H   UNL     1       3.270   7.831  20.321  0.00  0.00    +0.000 HD
BRANCH  24  26
ATOM     26  C   UNL     1       2.563   5.905  19.665  0.00  0.00    +0.000 C 
ATOM     27  C   UNL     1       1.756   4.785  20.347  0.00  0.00    +0.000 C 
ATOM     28  C   UNL     1       1.970   6.129  18.260  0.00  0.00    +0.000 C 
ATOM     29  C   UNL     1       4.023   5.444  19.487  0.00  0.00    +0.000 C 
ENDBRANCH  24  26
ENDBRANCH  21  22
ENDBRANCH   7  21
TORSDOF 8
ENDMDL
MODEL 2
REMARK VINA RESULT:      -6.7      0.273      1.265
REMARK  Name = 
REMARK  13 active torsions:
REMARK  status: ('A' for Active; 'I' for Inactive)
REMARK    1  A    between atoms: C_1  and  C_2
REMARK    2  A    between atoms: C_2  and  C_3
REMARK    3  A    between atoms: C_3  and  C_4
REMARK    4  A    between atoms: C_4  and  C_5
REMARK    5  A    between atoms: C_5  and  N_6
REMARK    6  A    between atoms: C_7  and  C_8
REMARK    7  A    between atoms: C_9  and  C_10
REMARK    8  A    between atoms: N_18  and  C_19
REMARK    9  A    between atoms: C_19  and  C_20
REMARK   10  A    between atoms: N_22  and  C_23
REMARK   11  A    between atoms: C_23  and  C_24
REMARK   12  A    between atoms: C_23  and  C_25
REMARK   13  A    between atoms: C_23  and  C_26
REMARK                            x       y       z     vdW  Elec       q    Type
REMARK                         _______ _______ _______ _____ _____    ______ ____
ROOT
ATOM      1  N   UNL     1      -0.778  11.002  19.546  0.00  0.00    +0.000 N 
ATOM      2  C   UNL     1      -1.478  11.810  20.450  0.00  0.00    +0.000 A 
ATOM      3  C   UNL     1      -2.470  12.849  19.956  0.00  0.00    +0.000 C 
ATOM      4  C   UNL     1      -1.234  11.704  21.776  0.00  0.00    +0.000 A 
ATOM      5  C   UNL     1      -0.293  10.656  22.267  0.00  0.00    +0.000 A 
ATOM      6  O   UNL     1      -0.202  10.397  23.463  0.00  0.00    +0.000 OA
ATOM      7  N   UNL     1       0.436   9.991  21.308  0.00  0.00    +0.000 N 
ATOM      8  C   UNL     1       0.329  10.239  19.951  0.00  0.00    +0.000 A 
ATOM      9  O   UNL     1       1.159   9.819  19.145  0.00  0.00    +0.000 OA
ENDROOT
BRANCH   4  10
ATOM     10  C   UNL     1      -1.887  12.582  22.766  0.00  0.00    +0.000 A 
ATOM     11  C   UNL     1      -1.254  13.748  23.213  0.00  0.00    +0.000 A 
ATOM     12  C   UNL     1      -1.856  14.539  24.194  0.00  0.00    +0.000 A 
ATOM     13  C   UNL     1      -3.089  14.171  24.730  0.00  0.00    +0.000 A 
ATOM     14  C   UNL     1      -3.732  13.019  24.280  0.00  0.00    +0.000 A 
ATOM     15  C   UNL     1      -3.136  12.229  23.298  0.00  0.00    +0.000 A 
ENDBRANCH   4  10
BRANCH   1  16
ATOM     16  C   UNL     1      -1.050  10.980  18.099  0.00  0.00    +0.000 C 
BRANCH  16  17
ATOM     17  C   UNL     1      -2.120   9.944  17.710  0.00  0.00    +0.000 C 
BRANCH  17  18
ATOM     18  C   UNL     1      -3.286  10.610  16.973  0.00  0.00    +0.000 C 
BRANCH  18  20
ATOM     19  C   UNL     1      -2.910  10.166  14.523  0.00  0.00    +0.000 C 
ATOM     20  C   UNL     1      -3.724   9.796  15.754  0.00  0.00    +0.000 C 
ENDBRANCH  18  20
ENDBRANCH  17  18
ENDBRANCH  16  17
ENDBRANCH   1  16
BRANCH   7  21
ATOM     21  C   UNL     1       1.438   9.026  21.762  0.00  0.00    +0.000 C 
BRANCH  21  22
ATOM     22  C   UNL     1       1.292   7.646  21.099  0.00  0.00    +0.000 C 
ATOM     23  O   UNL     1       0.209   7.062  21.083  0.00  0.00    +0.000 OA
ATOM     24  N   UNL     1       2.419   7.160  20.457  0.00  0.00    +0.000 N 
ATOM     25  H   UNL     1       3.204   7.806  20.358  0.00  0.00    +0.000 HD
BRANCH  24  26
ATOM     26  C   UNL     1       2.480   5.880  19.721  0.00  0.00    +0.000 C 
ATOM     27  C   UNL     1       1.935   6.016  18.286  0.00  0.00    +0.000 C 
ATOM     28  C   UNL     1       3.949   5.423  19.629  0.00  0.00    +0.000 C 
ATOM     29  C   UNL     1       1.694   4.780  20.461  0.00  0.00    +0.000 C 
ENDBRANCH  24  26
ENDBRANCH  21  22
ENDBRANCH   7  21
TORSDOF 8
ENDMDL
MODEL 3
REMARK VINA RESULT:      -6.6      3.239      8.712
REMARK  Name = 
REMARK  13 active torsions:
REMARK  status: ('A' for Active; 'I' for Inactive)
REMARK    1  A    between atoms: C_1  and  C_2
REMARK    2  A    between atoms: C_2  and  C_3
REMARK    3  A    between atoms: C_3  and  C_4
REMARK    4  A    between atoms: C_4  and  C_5
REMARK    5  A    between atoms: C_5  and  N_6
REMARK    6  A    between atoms: C_7  and  C_8
REMARK    7  A    between atoms: C_9  and  C_10
REMARK    8  A    between atoms: N_18  and  C_19
REMARK    9  A    between atoms: C_19  and  C_20
REMARK   10  A    between atoms: N_22  and  C_23
REMARK   11  A    between atoms: C_23  and  C_24
REMARK   12  A    between atoms: C_23  and  C_25
REMARK   13  A    between atoms: C_23  and  C_26
REMARK                            x       y       z     vdW  Elec       q    Type
REMARK                         _______ _______ _______ _____ _____    ______ ____
ROOT
ATOM      1  N   UNL     1       4.565   5.474  16.796  0.00  0.00    +0.000 N 
ATOM      2  C   UNL     1       3.967   4.634  17.742  0.00  0.00    +0.000 A 
ATOM      3  C   UNL     1       4.184   3.131  17.692  0.00  0.00    +0.000 C 
ATOM      4  C   UNL     1       3.147   5.154  18.682  0.00  0.00    +0.000 A 
ATOM      5  C   UNL     1       2.966   6.632  18.761  0.00  0.00    +0.000 A 
ATOM      6  O   UNL     1       2.396   7.150  19.717  0.00  0.00    +0.000 OA
ATOM      7  N   UNL     1       3.492   7.368  17.724  0.00  0.00    +0.000 N 
ATOM      8  C   UNL     1       4.167   6.814  16.653  0.00  0.00    +0.000 A 
ATOM      9  O   UNL     1       4.403   7.456  15.629  0.00  0.00    +0.000 OA
ENDROOT
BRANCH   4  10
ATOM     10  C   UNL     1       2.431   4.305  19.655  0.00  0.00    +0.000 A 
ATOM     11  C   UNL     1       2.985   4.038  20.913  0.00  0.00    +0.000 A 
ATOM     12  C   UNL     1       2.326   3.185  21.801  0.00  0.00    +0.000 A 
ATOM     13  C   UNL     1       1.114   2.599  21.439  0.00  0.00    +0.000 A 
ATOM     14  C   UNL     1       0.549   2.871  20.194  0.00  0.00    +0.000 A 
ATOM     15  C   UNL     1       1.202   3.726  19.306  0.00  0.00    +0.000 A 
ENDBRANCH   4  10
BRANCH   1  16
ATOM     16  C   UNL     1       5.547   5.010  15.803  0.00  0.00    +0.000 C 
BRANCH  16  17
ATOM     17  C   UNL     1       6.986   5.442  16.139  0.00  0.00    +0.000 C 
BRANCH  17  18
ATOM     18  C   UNL     1       7.392   4.957  17.533  0.00  0.00    +0.000 C 
BRANCH  18  20
ATOM     19  C   UNL     1       7.661   7.453  17.733  0.00  0.00    +0.000 C 
ATOM     20  C   UNL     1       7.685   6.126  18.476  0.00  0.00    +0.000 C 
ENDBRANCH  18  20
ENDBRANCH  17  18
ENDBRANCH  16  17
ENDBRANCH   1  16
BRANCH   7  21
ATOM     21  C   UNL     1       3.248   8.811  17.722  0.00  0.00    +0.000 C 
BRANCH  21  22
ATOM     22  C   UNL     1       1.776   9.176  17.975  0.00  0.00    +0.000 C 
ATOM     23  O   UNL     1       0.875   8.680  17.299  0.00  0.00    +0.000 OA
ATOM     24  N   UNL     1       1.535  10.014  19.052  0.00  0.00    +0.000 N 
ATOM     25  H   UNL     1       2.327  10.209  19.665  0.00  0.00    +0.000 HD
BRANCH  24  26
ATOM     26  C   UNL     1       0.193  10.449  19.494  0.00  0.00    +0.000 C 
ATOM     27  C   UNL     1      -0.384   9.519  20.578  0.00  0.00    +0.000 C 
ATOM     28  C   UNL     1       0.295  11.866  20.090  0.00  0.00    +0.000 C 
ATOM     29  C   UNL     1      -0.786  10.512  18.305  0.00  0.00    +0.000 C 
ENDBRANCH  24  26
ENDBRANCH  21  22
ENDBRANCH   7  21
TORSDOF 8
ENDMDL
MODEL 4
REMARK VINA RESULT:      -6.3      3.386      8.836
REMARK  Name = 
REMARK  13 active torsions:
REMARK  status: ('A' for Active; 'I' for Inactive)
REMARK    1  A    between atoms: C_1  and  C_2
REMARK    2  A    between atoms: C_2  and  C_3
REMARK    3  A    between atoms: C_3  and  C_4
REMARK    4  A    between atoms: C_4  and  C_5
REMARK    5  A    between atoms: C_5  and  N_6
REMARK    6  A    between atoms: C_7  and  C_8
REMARK    7  A    between atoms: C_9  and  C_10
REMARK    8  A    between atoms: N_18  and  C_19
REMARK    9  A    between atoms: C_19  and  C_20
REMARK   10  A    between atoms: N_22  and  C_23
REMARK   11  A    between atoms: C_23  and  C_24
REMARK   12  A    between atoms: C_23  and  C_25
REMARK   13  A    between atoms: C_23  and  C_26
REMARK                            x       y       z     vdW  Elec       q    Type
REMARK                         _______ _______ _______ _____ _____    ______ ____
ROOT
ATOM      1  N   UNL     1       4.645   5.327  16.595  0.00  0.00    +0.000 N 
ATOM      2  C   UNL     1       4.055   4.472  17.533  0.00  0.00    +0.000 A 
ATOM      3  C   UNL     1       4.221   2.966  17.422  0.00  0.00    +0.000 C 
ATOM      4  C   UNL     1       3.286   4.984  18.520  0.00  0.00    +0.000 A 
ATOM      5  C   UNL     1       3.157   6.463  18.657  0.00  0.00    +0.000 A 
ATOM      6  O   UNL     1       2.639   6.964  19.651  0.00  0.00    +0.000 OA
ATOM      7  N   UNL     1       3.669   7.219  17.628  0.00  0.00    +0.000 N 
ATOM      8  C   UNL     1       4.287   6.683  16.513  0.00  0.00    +0.000 A 
ATOM      9  O   UNL     1       4.506   7.353  15.504  0.00  0.00    +0.000 OA
ENDROOT
BRANCH   4  10
ATOM     10  C   UNL     1       2.579   4.123  19.489  0.00  0.00    +0.000 A 
ATOM     11  C   UNL     1       1.236   3.781  19.293  0.00  0.00    +0.000 A 
ATOM     12  C   UNL     1       0.562   3.016  20.247  0.00  0.00    +0.000 A 
ATOM     13  C   UNL     1       1.225   2.590  21.398  0.00  0.00    +0.000 A 
ATOM     14  C   UNL     1       2.566   2.915  21.593  0.00  0.00    +0.000 A 
ATOM     15  C   UNL     1       3.243   3.675  20.640  0.00  0.00    +0.000 A 
ENDBRANCH   4  10
BRANCH   1  16
ATOM     16  C   UNL     1       5.576   4.868  15.550  0.00  0.00    +0.000 C 
BRANCH  16  17
ATOM     17  C   UNL     1       7.040   5.233  15.854  0.00  0.00    +0.000 C 
BRANCH  17  18
ATOM     18  C   UNL     1       7.432   4.800  17.268  0.00  0.00    +0.000 C 
BRANCH  18  20
ATOM     19  C   UNL     1       7.400   5.611  19.652  0.00  0.00    +0.000 C 
ATOM     20  C   UNL     1       7.618   6.000  18.197  0.00  0.00    +0.000 C 
ENDBRANCH  18  20
ENDBRANCH  17  18
ENDBRANCH  16  17
ENDBRANCH   1  16
BRANCH   7  21
ATOM     21  C   UNL     1       3.472   8.668  17.685  0.00  0.00    +0.000 C 
BRANCH  21  22
ATOM     22  C   UNL     1       2.018   9.070  17.980  0.00  0.00    +0.000 C 
ATOM     23  O   UNL     1       1.088   8.619  17.312  0.00  0.00    +0.000 OA
ATOM     24  N   UNL     1       1.825   9.886  19.083  0.00  0.00    +0.000 N 
ATOM     25  H   UNL     1       2.637  10.041  19.683  0.00  0.00    +0.000 HD
BRANCH  24  26
ATOM     26  C   UNL     1       0.508  10.348  19.566  0.00  0.00    +0.000 C 
ATOM     27  C   UNL     1      -0.108   9.369  20.583  0.00  0.00    +0.000 C 
ATOM     28  C   UNL     1       0.679  11.711  20.265  0.00  0.00    +0.000 C 
ATOM     29  C   UNL     1      -0.472  10.546  18.393  0.00  0.00    +0.000 C 
ENDBRANCH  24  26
ENDBRANCH  21  22
ENDBRANCH   7  21
TORSDOF 8
ENDMDL
MODEL 5
REMARK VINA RESULT:      -6.3      2.835      9.494
REMARK  Name = 
REMARK  13 active torsions:
REMARK  status: ('A' for Active; 'I' for Inactive)
REMARK    1  A    between atoms: C_1  and  C_2
REMARK    2  A    between atoms: C_2  and  C_3
REMARK    3  A    between atoms: C_3  and  C_4
REMARK    4  A    between atoms: C_4  and  C_5
REMARK    5  A    between atoms: C_5  and  N_6
REMARK    6  A    between atoms: C_7  and  C_8
REMARK    7  A    between atoms: C_9  and  C_10
REMARK    8  A    between atoms: N_18  and  C_19
REMARK    9  A    between atoms: C_19  and  C_20
REMARK   10  A    between atoms: N_22  and  C_23
REMARK   11  A    between atoms: C_23  and  C_24
REMARK   12  A    between atoms: C_23  and  C_25
REMARK   13  A    between atoms: C_23  and  C_26
REMARK                            x       y       z     vdW  Elec       q    Type
REMARK                         _______ _______ _______ _____ _____    ______ ____
ROOT
ATOM      1  N   UNL     1       1.849   4.497  18.627  0.00  0.00    +0.000 N 
ATOM      2  C   UNL     1       2.933   4.296  17.765  0.00  0.00    +0.000 A 
ATOM      3  C   UNL     1       3.162   2.946  17.107  0.00  0.00    +0.000 C 
ATOM      4  C   UNL     1       3.818   5.296  17.553  0.00  0.00    +0.000 A 
ATOM      5  C   UNL     1       3.572   6.635  18.162  0.00  0.00    +0.000 A 
ATOM      6  O   UNL     1       4.236   7.613  17.832  0.00  0.00    +0.000 OA
ATOM      7  N   UNL     1       2.555   6.708  19.086  0.00  0.00    +0.000 N 
ATOM      8  C   UNL     1       1.770   5.631  19.453  0.00  0.00    +0.000 A 
ATOM      9  O   UNL     1       1.046   5.661  20.448  0.00  0.00    +0.000 OA
ENDROOT
BRANCH   4  10
ATOM     10  C   UNL     1       5.019   5.115  16.714  0.00  0.00    +0.000 A 
ATOM     11  C   UNL     1       4.956   5.294  15.327  0.00  0.00    +0.000 A 
ATOM     12  C   UNL     1       6.085   5.062  14.539  0.00  0.00    +0.000 A 
ATOM     13  C   UNL     1       7.279   4.652  15.132  0.00  0.00    +0.000 A 
ATOM     14  C   UNL     1       7.354   4.485  16.513  0.00  0.00    +0.000 A 
ATOM     15  C   UNL     1       6.229   4.720  17.304  0.00  0.00    +0.000 A 
ENDBRANCH   4  10
BRANCH   1  16
ATOM     16  C   UNL     1       0.785   3.501  18.839  0.00  0.00    +0.000 C 
BRANCH  16  17
ATOM     17  C   UNL     1       1.260   2.285  19.654  0.00  0.00    +0.000 C 
BRANCH  17  18
ATOM     18  C   UNL     1       1.238   2.587  21.154  0.00  0.00    +0.000 C 
BRANCH  18  20
ATOM     19  C   UNL     1       3.701   2.334  20.696  0.00  0.00    +0.000 C 
ATOM     20  C   UNL     1       2.650   2.716  21.728  0.00  0.00    +0.000 C 
ENDBRANCH  18  20
ENDBRANCH  17  18
ENDBRANCH  16  17
ENDBRANCH   1  16
BRANCH   7  21
ATOM     21  C   UNL     1       2.352   7.984  19.774  0.00  0.00    +0.000 C 
BRANCH  21  22
ATOM     22  C   UNL     1       1.437   8.949  19.001  0.00  0.00    +0.000 C 
ATOM     23  O   UNL     1       1.306   8.856  17.782  0.00  0.00    +0.000 OA
ATOM     24  N   UNL     1       0.719   9.850  19.770  0.00  0.00    +0.000 N 
ATOM     25  H   UNL     1       0.749   9.714  20.781  0.00  0.00    +0.000 HD
BRANCH  24  26
ATOM     26  C   UNL     1      -0.247  10.830  19.231  0.00  0.00    +0.000 C 
ATOM     27  C   UNL     1       0.459  12.005  18.528  0.00  0.00    +0.000 C 
ATOM     28  C   UNL     1      -1.148  10.130  18.195  0.00  0.00    +0.000 C 
ATOM     29  C   UNL     1      -1.157  11.378  20.347  0.00  0.00    +0.000 C 
ENDBRANCH  24  26
ENDBRANCH  21  22
ENDBRANCH   7  21
TORSDOF 8
ENDMDL
MODEL 6
REMARK VINA RESULT:      -6.3      7.332      9.939
REMARK  Name = 
REMARK  13 active torsions:
REMARK  status: ('A' for Active; 'I' for Inactive)
REMARK    1  A    between atoms: C_1  and  C_2
REMARK    2  A    between atoms: C_2  and  C_3
REMARK    3  A    between atoms: C_3  and  C_4
REMARK    4  A    between atoms: C_4  and  C_5
REMARK    5  A    between atoms: C_5  and  N_6
REMARK    6  A    between atoms: C_7  and  C_8
REMARK    7  A    between atoms: C_9  and  C_10
REMARK    8  A    between atoms: N_18  and  C_19
REMARK    9  A    between atoms: C_19  and  C_20
REMARK   10  A    between atoms: N_22  and  C_23
REMARK   11  A    between atoms: C_23  and  C_24
REMARK   12  A    between atoms: C_23  and  C_25
REMARK   13  A    between atoms: C_23  and  C_26
REMARK                            x       y       z     vdW  Elec       q    Type
REMARK                         _______ _______ _______ _____ _____    ______ ____
ROOT
ATOM      1  N   UNL     1       5.971   4.272  16.324  0.00  0.00    +0.000 N 
ATOM      2  C   UNL     1       4.892   4.032  17.182  0.00  0.00    +0.000 A 
ATOM      3  C   UNL     1       3.677   3.255  16.704  0.00  0.00    +0.000 C 
ATOM      4  C   UNL     1       4.903   4.538  18.436  0.00  0.00    +0.000 A 
ATOM      5  C   UNL     1       6.111   5.264  18.923  0.00  0.00    +0.000 A 
ATOM      6  O   UNL     1       6.239   5.558  20.108  0.00  0.00    +0.000 OA
ATOM      7  N   UNL     1       7.070   5.556  17.980  0.00  0.00    +0.000 N 
ATOM      8  C   UNL     1       6.968   5.207  16.646  0.00  0.00    +0.000 A 
ATOM      9  O   UNL     1       7.706   5.692  15.788  0.00  0.00    +0.000 OA
ENDROOT
BRANCH   4  10
ATOM     10  C   UNL     1       3.759   4.381  19.356  0.00  0.00    +0.000 A 
ATOM     11  C   UNL     1       2.851   5.428  19.553  0.00  0.00    +0.000 A 
ATOM     12  C   UNL     1       1.808   5.286  20.470  0.00  0.00    +0.000 A 
ATOM     13  C   UNL     1       1.667   4.101  21.192  0.00  0.00    +0.000 A 
ATOM     14  C   UNL     1       2.558   3.050  20.991  0.00  0.00    +0.000 A 
ATOM     15  C   UNL     1       3.599   3.185  20.072  0.00  0.00    +0.000 A 
ENDBRANCH   4  10
BRANCH   1  16
ATOM     16  C   UNL     1       6.088   3.678  14.982  0.00  0.00    +0.000 C 
BRANCH  16  17
ATOM     17  C   UNL     1       5.293   4.453  13.916  0.00  0.00    +0.000 C 
BRANCH  17  18
ATOM     18  C   UNL     1       5.159   3.635  12.629  0.00  0.00    +0.000 C 
BRANCH  18  20
ATOM     19  C   UNL     1       6.532   1.963  11.341  0.00  0.00    +0.000 C 
ATOM     20  C   UNL     1       6.522   3.332  12.005  0.00  0.00    +0.000 C 
ENDBRANCH  18  20
ENDBRANCH  17  18
ENDBRANCH  16  17
ENDBRANCH   1  16
BRANCH   7  21
ATOM     21  C   UNL     1       8.223   6.351  18.406  0.00  0.00    +0.000 C 
BRANCH  21  22
ATOM     22  C   UNL     1       8.059   7.853  18.120  0.00  0.00    +0.000 C 
ATOM     23  O   UNL     1       7.132   8.268  17.426  0.00  0.00    +0.000 OA
ATOM     24  N   UNL     1       8.956   8.694  18.759  0.00  0.00    +0.000 N 
ATOM     25  H   UNL     1       9.558   8.267  19.465  0.00  0.00    +0.000 HD
BRANCH  24  26
ATOM     26  C   UNL     1       8.945  10.168  18.657  0.00  0.00    +0.000 C 
ATOM     27  C   UNL     1       7.667  10.686  17.971  0.00  0.00    +0.000 C 
ATOM     28  C   UNL     1       9.000  10.770  20.074  0.00  0.00    +0.000 C 
ATOM     29  C   UNL     1      10.178  10.676  17.885  0.00  0.00    +0.000 C 
ENDBRANCH  24  26
ENDBRANCH  21  22
ENDBRANCH   7  21
TORSDOF 8
ENDMDL
MODEL 7
REMARK VINA RESULT:      -6.3      3.621      8.796
REMARK  Name = 
REMARK  13 active torsions:
REMARK  status: ('A' for Active; 'I' for Inactive)
REMARK    1  A    between atoms: C_1  and  C_2
REMARK    2  A    between atoms: C_2  and  C_3
REMARK    3  A    between atoms: C_3  and  C_4
REMARK    4  A    between atoms: C_4  and  C_5
REMARK    5  A    between atoms: C_5  and  N_6
REMARK    6  A    between atoms: C_7  and  C_8
REMARK    7  A    between atoms: C_9  and  C_10
REMARK    8  A    between atoms: N_18  and  C_19
REMARK    9  A    between atoms: C_19  and  C_20
REMARK   10  A    between atoms: N_22  and  C_23
REMARK   11  A    between atoms: C_23  and  C_24
REMARK   12  A    between atoms: C_23  and  C_25
REMARK   13  A    between atoms: C_23  and  C_26
REMARK                            x       y       z     vdW  Elec       q    Type
REMARK                         _______ _______ _______ _____ _____    ______ ____
ROOT
ATOM      1  N   UNL     1       4.892   5.277  16.723  0.00  0.00    +0.000 N 
ATOM      2  C   UNL     1       4.246   4.433  17.633  0.00  0.00    +0.000 A 
ATOM      3  C   UNL     1       4.463   2.930  17.586  0.00  0.00    +0.000 C 
ATOM      4  C   UNL     1       3.380   4.950  18.533  0.00  0.00    +0.000 A 
ATOM      5  C   UNL     1       3.199   6.428  18.612  0.00  0.00    +0.000 A 
ATOM      6  O   UNL     1       2.582   6.942  19.540  0.00  0.00    +0.000 OA
ATOM      7  N   UNL     1       3.777   7.168  17.606  0.00  0.00    +0.000 N 
ATOM      8  C   UNL     1       4.504   6.618  16.566  0.00  0.00    +0.000 A 
ATOM      9  O   UNL     1       4.792   7.265  15.559  0.00  0.00    +0.000 OA
ENDROOT
BRANCH   4  10
ATOM     10  C   UNL     1       2.615   4.097  19.465  0.00  0.00    +0.000 A 
ATOM     11  C   UNL     1       1.316   3.681  19.150  0.00  0.00    +0.000 A 
ATOM     12  C   UNL     1       0.583   2.925  20.066  0.00  0.00    +0.000 A 
ATOM     13  C   UNL     1       1.141   2.581  21.297  0.00  0.00    +0.000 A 
ATOM     14  C   UNL     1       2.439   2.979  21.612  0.00  0.00    +0.000 A 
ATOM     15  C   UNL     1       3.177   3.731  20.698  0.00  0.00    +0.000 A 
ENDBRANCH   4  10
BRANCH   1  16
ATOM     16  C   UNL     1       5.922   4.816  15.777  0.00  0.00    +0.000 C 
BRANCH  16  17
ATOM     17  C   UNL     1       5.325   4.226  14.487  0.00  0.00    +0.000 C 
BRANCH  17  18
ATOM     18  C   UNL     1       6.374   4.167  13.374  0.00  0.00    +0.000 C 
BRANCH  18  20
ATOM     19  C   UNL     1       4.590   3.420  11.761  0.00  0.00    +0.000 C 
ATOM     20  C   UNL     1       5.992   3.158  12.289  0.00  0.00    +0.000 C 
ENDBRANCH  18  20
ENDBRANCH  17  18
ENDBRANCH  16  17
ENDBRANCH   1  16
BRANCH   7  21
ATOM     21  C   UNL     1       3.535   8.612  17.599  0.00  0.00    +0.000 C 
BRANCH  21  22
ATOM     22  C   UNL     1       2.072   8.982  17.892  0.00  0.00    +0.000 C 
ATOM     23  O   UNL     1       1.150   8.457  17.270  0.00  0.00    +0.000 OA
ATOM     24  N   UNL     1       1.867   9.860  18.943  0.00  0.00    +0.000 N 
ATOM     25  H   UNL     1       2.680  10.081  19.519  0.00  0.00    +0.000 HD
BRANCH  24  26
ATOM     26  C   UNL     1       0.540  10.307  19.417  0.00  0.00    +0.000 C 
ATOM     27  C   UNL     1       0.583  11.745  19.969  0.00  0.00    +0.000 C 
ATOM     28  C   UNL     1      -0.450  10.282  18.237  0.00  0.00    +0.000 C 
ATOM     29  C   UNL     1      -0.005   9.361  20.505  0.00  0.00    +0.000 C 
ENDBRANCH  24  26
ENDBRANCH  21  22
ENDBRANCH   7  21
TORSDOF 8
ENDMDL
MODEL 8
REMARK VINA RESULT:      -6.2      3.530      8.773
REMARK  Name = 
REMARK  13 active torsions:
REMARK  status: ('A' for Active; 'I' for Inactive)
REMARK    1  A    between atoms: C_1  and  C_2
REMARK    2  A    between atoms: C_2  and  C_3
REMARK    3  A    between atoms: C_3  and  C_4
REMARK    4  A    between atoms: C_4  and  C_5
REMARK    5  A    between atoms: C_5  and  N_6
REMARK    6  A    between atoms: C_7  and  C_8
REMARK    7  A    between atoms: C_9  and  C_10
REMARK    8  A    between atoms: N_18  and  C_19
REMARK    9  A    between atoms: C_19  and  C_20
REMARK   10  A    between atoms: N_22  and  C_23
REMARK   11  A    between atoms: C_23  and  C_24
REMARK   12  A    between atoms: C_23  and  C_25
REMARK   13  A    between atoms: C_23  and  C_26
REMARK                            x       y       z     vdW  Elec       q    Type
REMARK                         _______ _______ _______ _____ _____    ______ ____
ROOT
ATOM      1  N   UNL     1       4.865   5.385  16.862  0.00  0.00    +0.000 N 
ATOM      2  C   UNL     1       4.210   4.557  17.780  0.00  0.00    +0.000 A 
ATOM      3  C   UNL     1       4.462   3.059  17.793  0.00  0.00    +0.000 C 
ATOM      4  C   UNL     1       3.304   5.084  18.634  0.00  0.00    +0.000 A 
ATOM      5  C   UNL     1       3.086   6.559  18.655  0.00  0.00    +0.000 A 
ATOM      6  O   UNL     1       2.429   7.090  19.545  0.00  0.00    +0.000 OA
ATOM      7  N   UNL     1       3.680   7.278  17.643  0.00  0.00    +0.000 N 
ATOM      8  C   UNL     1       4.452   6.711  16.647  0.00  0.00    +0.000 A 
ATOM      9  O   UNL     1       4.758   7.329  15.627  0.00  0.00    +0.000 OA
ENDROOT
BRANCH   4  10
ATOM     10  C   UNL     1       2.529   4.246  19.571  0.00  0.00    +0.000 A 
ATOM     11  C   UNL     1       2.996   4.007  20.869  0.00  0.00    +0.000 A 
ATOM     12  C   UNL     1       2.283   3.164  21.724  0.00  0.00    +0.000 A 
ATOM     13  C   UNL     1       1.104   2.559  21.289  0.00  0.00    +0.000 A 
ATOM     14  C   UNL     1       0.626   2.804  20.003  0.00  0.00    +0.000 A 
ATOM     15  C   UNL     1       1.333   3.648  19.147  0.00  0.00    +0.000 A 
ENDBRANCH   4  10
BRANCH   1  16
ATOM     16  C   UNL     1       5.936   4.916  15.966  0.00  0.00    +0.000 C 
BRANCH  16  17
ATOM     17  C   UNL     1       5.396   4.318  14.655  0.00  0.00    +0.000 C 
BRANCH  17  18
ATOM     18  C   UNL     1       6.495   4.241  13.592  0.00  0.00    +0.000 C 
BRANCH  18  20
ATOM     19  C   UNL     1       4.701   3.507  11.985  0.00  0.00    +0.000 C 
ATOM     20  C   UNL     1       6.126   3.277  12.464  0.00  0.00    +0.000 C 
ENDBRANCH  18  20
ENDBRANCH  17  18
ENDBRANCH  16  17
ENDBRANCH   1  16
BRANCH   7  21
ATOM     21  C   UNL     1       3.406   8.715  17.578  0.00  0.00    +0.000 C 
BRANCH  21  22
ATOM     22  C   UNL     1       1.936   9.064  17.865  0.00  0.00    +0.000 C 
ATOM     23  O   UNL     1       1.022   8.490  17.274  0.00  0.00    +0.000 OA
ATOM     24  N   UNL     1       1.718   9.983  18.877  0.00  0.00    +0.000 N 
ATOM     25  H   UNL     1       2.530  10.249  19.436  0.00  0.00    +0.000 HD
BRANCH  24  26
ATOM     26  C   UNL     1       0.385  10.421  19.341  0.00  0.00    +0.000 C 
ATOM     27  C   UNL     1      -0.661  10.373  18.211  0.00  0.00    +0.000 C 
ATOM     28  C   UNL     1      -0.090   9.481  20.467  0.00  0.00    +0.000 C 
ATOM     29  C   UNL     1       0.443  11.849  19.919  0.00  0.00    +0.000 C 
ENDBRANCH  24  26
ENDBRANCH  21  22
ENDBRANCH   7  21
TORSDOF 8
ENDMDL
MODEL 9
REMARK VINA RESULT:      -6.2      5.454      8.996
REMARK  Name = 
REMARK  13 active torsions:
REMARK  status: ('A' for Active; 'I' for Inactive)
REMARK    1  A    between atoms: C_1  and  C_2
REMARK    2  A    between atoms: C_2  and  C_3
REMARK    3  A    between atoms: C_3  and  C_4
REMARK    4  A    between atoms: C_4  and  C_5
REMARK    5  A    between atoms: C_5  and  N_6
REMARK    6  A    between atoms: C_7  and  C_8
REMARK    7  A    between atoms: C_9  and  C_10
REMARK    8  A    between atoms: N_18  and  C_19
REMARK    9  A    between atoms: C_19  and  C_20
REMARK   10  A    between atoms: N_22  and  C_23
REMARK   11  A    between atoms: C_23  and  C_24
REMARK   12  A    between atoms: C_23  and  C_25
REMARK   13  A    between atoms: C_23  and  C_26
REMARK                            x       y       z     vdW  Elec       q    Type
REMARK                         _______ _______ _______ _____ _____    ______ ____
ROOT
ATOM      1  N   UNL     1       3.076   3.367  17.685  0.00  0.00    +0.000 N 
ATOM      2  C   UNL     1       2.484   4.551  18.138  0.00  0.00    +0.000 A 
ATOM      3  C   UNL     1       1.083   4.544  18.726  0.00  0.00    +0.000 C 
ATOM      4  C   UNL     1       3.142   5.725  18.007  0.00  0.00    +0.000 A 
ATOM      5  C   UNL     1       4.534   5.730  17.471  0.00  0.00    +0.000 A 
ATOM      6  O   UNL     1       5.230   6.740  17.526  0.00  0.00    +0.000 OA
ATOM      7  N   UNL     1       4.988   4.545  16.941  0.00  0.00    +0.000 N 
ATOM      8  C   UNL     1       4.238   3.384  16.896  0.00  0.00    +0.000 A 
ATOM      9  O   UNL     1       4.567   2.422  16.202  0.00  0.00    +0.000 OA
ENDROOT
BRANCH   4  10
ATOM     10  C   UNL     1       2.534   7.012  18.399  0.00  0.00    +0.000 A 
ATOM     11  C   UNL     1       2.307   8.013  17.447  0.00  0.00    +0.000 A 
ATOM     12  C   UNL     1       1.786   9.248  17.840  0.00  0.00    +0.000 A 
ATOM     13  C   UNL     1       1.491   9.487  19.182  0.00  0.00    +0.000 A 
ATOM     14  C   UNL     1       1.702   8.491  20.133  0.00  0.00    +0.000 A 
ATOM     15  C   UNL     1       2.218   7.255  19.743  0.00  0.00    +0.000 A 
ENDBRANCH   4  10
BRANCH   1  16
ATOM     16  C   UNL     1       2.477   2.035  17.876  0.00  0.00    +0.000 C 
BRANCH  16  17
ATOM     17  C   UNL     1       2.315   1.663  19.361  0.00  0.00    +0.000 C 
BRANCH  17  18
ATOM     18  C   UNL     1       3.445   2.261  20.204  0.00  0.00    +0.000 C 
BRANCH  18  20
ATOM     19  C   UNL     1       1.466   2.607  21.722  0.00  0.00    +0.000 C 
ATOM     20  C   UNL     1       2.907   2.999  21.431  0.00  0.00    +0.000 C 
ENDBRANCH  18  20
ENDBRANCH  17  18
ENDBRANCH  16  17
ENDBRANCH   1  16
BRANCH   7  21
ATOM     21  C   UNL     1       6.313   4.542  16.319  0.00  0.00    +0.000 C 
BRANCH  21  22
ATOM     22  C   UNL     1       6.266   4.743  14.796  0.00  0.00    +0.000 C 
ATOM     23  O   UNL     1       6.324   5.870  14.304  0.00  0.00    +0.000 OA
ATOM     24  N   UNL     1       6.247   3.589  14.031  0.00  0.00    +0.000 N 
ATOM     25  H   UNL     1       6.402   2.709  14.527  0.00  0.00    +0.000 HD
BRANCH  24  26
ATOM     26  C   UNL     1       6.247   3.559  12.554  0.00  0.00    +0.000 C 
ATOM     27  C   UNL     1       7.276   4.539  11.960  0.00  0.00    +0.000 C 
ATOM     28  C   UNL     1       6.616   2.140  12.079  0.00  0.00    +0.000 C 
ATOM     29  C   UNL     1       4.849   3.889  11.995  0.00  0.00    +0.000 C 
ENDBRANCH  24  26
ENDBRANCH  21  22
ENDBRANCH   7  21
TORSDOF 8
ENDMDL
