MODEL 1
REMARK VINA RESULT:      -7.1      0.000      0.000
REMARK  Name = 
REMARK  6 active torsions:
REMARK  status: ('A' for Active; 'I' for Inactive)
REMARK    1  A    between atoms: C_1  and  O_2
REMARK    2  A    between atoms: O_2  and  C_3
REMARK    3  A    between atoms: C_3  and  C_4
REMARK    4  A    between atoms: C_6  and  C_7
REMARK    5  A    between atoms: C_7  and  N_8
REMARK    6  A    between atoms: C_12  and  C_13
REMARK                            x       y       z     vdW  Elec       q    Type
REMARK                         _______ _______ _______ _____ _____    ______ ____
ROOT
ATOM      1  N   UNL     1       8.441   7.940  18.253  0.00  0.00    +0.000 N 
ATOM      2  C   UNL     1       7.356   7.060  18.166  0.00  0.00    +0.000 A 
ATOM      3  C   UNL     1       7.395   5.881  18.900  0.00  0.00    +0.000 A 
ATOM      4  C   UNL     1       6.307   5.006  18.860  0.00  0.00    +0.000 A 
ATOM      5  C   UNL     1       5.195   5.291  18.061  0.00  0.00    +0.000 A 
ATOM      6  C   UNL     1       5.288   6.465  17.314  0.00  0.00    +0.000 A 
ATOM      7  N   UNL     1       6.329   7.335  17.343  0.00  0.00    +0.000 NA
ATOM      8  H   UNL     1       8.788   7.978  19.212  0.00  0.00    +0.000 HD
ENDROOT
BRANCH   5   9
ATOM      9  C   UNL     1       3.999   4.426  18.026  0.00  0.00    +0.000 A 
ATOM     10  C   UNL     1       4.100   3.034  18.208  0.00  0.00    +0.000 A 
ATOM     11  C   UNL     1       2.970   2.212  18.193  0.00  0.00    +0.000 A 
ATOM     12  C   UNL     1       1.708   2.764  18.005  0.00  0.00    +0.000 A 
ATOM     13  C   UNL     1       1.577   4.137  17.828  0.00  0.00    +0.000 A 
ATOM     14  C   UNL     1       2.710   4.957  17.835  0.00  0.00    +0.000 A 
ENDBRANCH   5   9
BRANCH   1  15
ATOM     15  C   UNL     1       8.104   9.313  17.859  0.00  0.00    +0.000 C 
BRANCH  15  18
ATOM     16  C   UNL     1      10.246  12.177  18.452  0.00  0.00    +0.000 A 
ATOM     17  N   UNL     1       9.479  11.385  17.729  0.00  0.00    +0.000 NA
ATOM     18  C   UNL     1       8.984  10.347  18.515  0.00  0.00    +0.000 A 
ATOM     19  C   UNL     1       9.395  10.373  19.832  0.00  0.00    +0.000 A 
ATOM     20  S   UNL     1      10.401  11.732  20.109  0.00  0.00    +0.000 S 
BRANCH  16  21
ATOM     21  C   UNL     1      10.895  13.425  17.931  0.00  0.00    +0.000 C 
BRANCH  21  23
ATOM     22  C   UNL     1      10.536  15.745  17.790  0.00  0.00    +0.000 C 
ATOM     23  O   UNL     1       9.918  14.467  17.884  0.00  0.00    +0.000 OA
ENDBRANCH  21  23
ENDBRANCH  16  21
ENDBRANCH  15  18
ENDBRANCH   1  15
TORSDOF 5
ENDMDL
MODEL 2
REMARK VINA RESULT:      -7.0      0.533      1.151
REMARK  Name = 
REMARK  6 active torsions:
REMARK  status: ('A' for Active; 'I' for Inactive)
REMARK    1  A    between atoms: C_1  and  O_2
REMARK    2  A    between atoms: O_2  and  C_3
REMARK    3  A    between atoms: C_3  and  C_4
REMARK    4  A    between atoms: C_6  and  C_7
REMARK    5  A    between atoms: C_7  and  N_8
REMARK    6  A    between atoms: C_12  and  C_13
REMARK                            x       y       z     vdW  Elec       q    Type
REMARK                         _______ _______ _______ _____ _____    ______ ____
ROOT
ATOM      1  N   UNL     1       8.545   8.110  18.131  0.00  0.00    +0.000 N 
ATOM      2  C   UNL     1       7.458   7.232  18.046  0.00  0.00    +0.000 A 
ATOM      3  C   UNL     1       7.509   6.039  18.756  0.00  0.00    +0.000 A 
ATOM      4  C   UNL     1       6.420   5.166  18.719  0.00  0.00    +0.000 A 
ATOM      5  C   UNL     1       5.294   5.467  17.946  0.00  0.00    +0.000 A 
ATOM      6  C   UNL     1       5.375   6.655  17.220  0.00  0.00    +0.000 A 
ATOM      7  N   UNL     1       6.416   7.524  17.247  0.00  0.00    +0.000 NA
ATOM      8  H   UNL     1       8.909   8.129  19.084  0.00  0.00    +0.000 HD
ENDROOT
BRANCH   5   9
ATOM      9  C   UNL     1       4.096   4.603  17.916  0.00  0.00    +0.000 A 
ATOM     10  C   UNL     1       2.802   5.153  17.867  0.00  0.00    +0.000 A 
ATOM     11  C   UNL     1       1.665   4.340  17.822  0.00  0.00    +0.000 A 
ATOM     12  C   UNL     1       1.797   2.956  17.816  0.00  0.00    +0.000 A 
ATOM     13  C   UNL     1       3.064   2.385  17.859  0.00  0.00    +0.000 A 
ATOM     14  C   UNL     1       4.200   3.200  17.912  0.00  0.00    +0.000 A 
ENDBRANCH   5   9
BRANCH   1  15
ATOM     15  C   UNL     1       8.202   9.491  17.770  0.00  0.00    +0.000 C 
BRANCH  15  18
ATOM     16  C   UNL     1       9.876  12.503  18.896  0.00  0.00    +0.000 A 
ATOM     17  N   UNL     1       9.231  11.743  18.032  0.00  0.00    +0.000 NA
ATOM     18  C   UNL     1       8.919  10.515  18.613  0.00  0.00    +0.000 A 
ATOM     19  C   UNL     1       9.343  10.368  19.917  0.00  0.00    +0.000 A 
ATOM     20  S   UNL     1      10.127  11.796  20.447  0.00  0.00    +0.000 S 
BRANCH  16  21
ATOM     21  C   UNL     1      10.312  13.910  18.616  0.00  0.00    +0.000 C 
BRANCH  21  23
ATOM     22  C   UNL     1      11.575  15.073  17.008  0.00  0.00    +0.000 C 
ATOM     23  O   UNL     1      10.642  14.022  17.230  0.00  0.00    +0.000 OA
ENDBRANCH  21  23
ENDBRANCH  16  21
ENDBRANCH  15  18
ENDBRANCH   1  15
TORSDOF 5
ENDMDL
MODEL 3
REMARK VINA RESULT:      -6.9      0.903      1.261
REMARK  Name = 
REMARK  6 active torsions:
REMARK  status: ('A' for Active; 'I' for Inactive)
REMARK    1  A    between atoms: C_1  and  O_2
REMARK    2  A    between atoms: O_2  and  C_3
REMARK    3  A    between atoms: C_3  and  C_4
REMARK    4  A    between atoms: C_6  and  C_7
REMARK    5  A    between atoms: C_7  and  N_8
REMARK    6  A    between atoms: C_12  and  C_13
REMARK                            x       y       z     vdW  Elec       q    Type
REMARK                         _______ _______ _______ _____ _____    ______ ____
ROOT
ATOM      1  N   UNL     1       8.272   7.775  18.175  0.00  0.00    +0.000 N 
ATOM      2  C   UNL     1       7.170   6.912  18.165  0.00  0.00    +0.000 A 
ATOM      3  C   UNL     1       7.178   5.814  19.017  0.00  0.00    +0.000 A 
ATOM      4  C   UNL     1       6.073   4.961  19.053  0.00  0.00    +0.000 A 
ATOM      5  C   UNL     1       4.975   5.183  18.216  0.00  0.00    +0.000 A 
ATOM      6  C   UNL     1       5.099   6.272  17.354  0.00  0.00    +0.000 A 
ATOM      7  N   UNL     1       6.157   7.121  17.306  0.00  0.00    +0.000 NA
ATOM      8  H   UNL     1       8.610   7.905  19.129  0.00  0.00    +0.000 HD
ENDROOT
BRANCH   5   9
ATOM      9  C   UNL     1       3.762   4.342  18.257  0.00  0.00    +0.000 A 
ATOM     10  C   UNL     1       2.602   4.767  18.932  0.00  0.00    +0.000 A 
ATOM     11  C   UNL     1       1.445   3.982  18.960  0.00  0.00    +0.000 A 
ATOM     12  C   UNL     1       1.418   2.756  18.304  0.00  0.00    +0.000 A 
ATOM     13  C   UNL     1       2.547   2.314  17.624  0.00  0.00    +0.000 A 
ATOM     14  C   UNL     1       3.706   3.097  17.605  0.00  0.00    +0.000 A 
ENDBRANCH   5   9
BRANCH   1  15
ATOM     15  C   UNL     1       7.966   9.107  17.638  0.00  0.00    +0.000 C 
BRANCH  15  18
ATOM     16  C   UNL     1       9.402  12.318  18.519  0.00  0.00    +0.000 A 
ATOM     17  N   UNL     1       8.691  11.485  17.784  0.00  0.00    +0.000 NA
ATOM     18  C   UNL     1       8.704  10.212  18.351  0.00  0.00    +0.000 A 
ATOM     19  C   UNL     1       9.436  10.106  19.515  0.00  0.00    +0.000 A 
ATOM     20  S   UNL     1      10.107  11.627  19.931  0.00  0.00    +0.000 S 
BRANCH  16  21
ATOM     21  C   UNL     1       9.552  13.781  18.226  0.00  0.00    +0.000 C 
BRANCH  21  23
ATOM     22  C   UNL     1       7.978  15.495  17.888  0.00  0.00    +0.000 C 
ATOM     23  O   UNL     1       8.430  14.477  18.772  0.00  0.00    +0.000 OA
ENDBRANCH  21  23
ENDBRANCH  16  21
ENDBRANCH  15  18
ENDBRANCH   1  15
TORSDOF 5
ENDMDL
MODEL 4
REMARK VINA RESULT:      -6.9      3.909     10.037
REMARK  Name = 
REMARK  6 active torsions:
REMARK  status: ('A' for Active; 'I' for Inactive)
REMARK    1  A    between atoms: C_1  and  O_2
REMARK    2  A    between atoms: O_2  and  C_3
REMARK    3  A    between atoms: C_3  and  C_4
REMARK    4  A    between atoms: C_6  and  C_7
REMARK    5  A    between atoms: C_7  and  N_8
REMARK    6  A    between atoms: C_12  and  C_13
REMARK                            x       y       z     vdW  Elec       q    Type
REMARK                         _______ _______ _______ _____ _____    ______ ____
ROOT
ATOM      1  N   UNL     1       8.792   9.241  18.964  0.00  0.00    +0.000 N 
ATOM      2  C   UNL     1       9.313  10.537  18.862  0.00  0.00    +0.000 A 
ATOM      3  C   UNL     1      10.372  10.895  19.687  0.00  0.00    +0.000 A 
ATOM      4  C   UNL     1      10.934  12.168  19.576  0.00  0.00    +0.000 A 
ATOM      5  C   UNL     1      10.417  13.096  18.666  0.00  0.00    +0.000 A 
ATOM      6  C   UNL     1       9.313  12.658  17.937  0.00  0.00    +0.000 A 
ATOM      7  N   UNL     1       8.755  11.423  18.020  0.00  0.00    +0.000 NA
ATOM      8  H   UNL     1       9.546   8.568  19.103  0.00  0.00    +0.000 HD
ENDROOT
BRANCH   5   9
ATOM      9  C   UNL     1      11.010  14.435  18.474  0.00  0.00    +0.000 A 
ATOM     10  C   UNL     1      11.532  15.164  19.559  0.00  0.00    +0.000 A 
ATOM     11  C   UNL     1      12.110  16.424  19.380  0.00  0.00    +0.000 A 
ATOM     12  C   UNL     1      12.188  16.983  18.110  0.00  0.00    +0.000 A 
ATOM     13  C   UNL     1      11.685  16.283  17.018  0.00  0.00    +0.000 A 
ATOM     14  C   UNL     1      11.099  15.026  17.200  0.00  0.00    +0.000 A 
ENDBRANCH   5   9
BRANCH   1  15
ATOM     15  C   UNL     1       8.051   8.822  17.768  0.00  0.00    +0.000 C 
BRANCH  15  18
ATOM     16  C   UNL     1       7.157   5.479  16.684  0.00  0.00    +0.000 A 
ATOM     17  N   UNL     1       7.373   6.771  16.528  0.00  0.00    +0.000 NA
ATOM     18  C   UNL     1       7.781   7.338  17.734  0.00  0.00    +0.000 A 
ATOM     19  C   UNL     1       7.862   6.455  18.790  0.00  0.00    +0.000 A 
ATOM     20  S   UNL     1       7.446   4.876  18.271  0.00  0.00    +0.000 S 
BRANCH  16  21
ATOM     21  C   UNL     1       6.760   4.553  15.573  0.00  0.00    +0.000 C 
BRANCH  21  23
ATOM     22  C   UNL     1       6.732   4.328  13.232  0.00  0.00    +0.000 C 
ATOM     23  O   UNL     1       7.118   5.152  14.325  0.00  0.00    +0.000 OA
ENDBRANCH  21  23
ENDBRANCH  16  21
ENDBRANCH  15  18
ENDBRANCH   1  15
TORSDOF 5
ENDMDL
MODEL 5
REMARK VINA RESULT:      -6.8      7.351      9.514
REMARK  Name = 
REMARK  6 active torsions:
REMARK  status: ('A' for Active; 'I' for Inactive)
REMARK    1  A    between atoms: C_1  and  O_2
REMARK    2  A    between atoms: O_2  and  C_3
REMARK    3  A    between atoms: C_3  and  C_4
REMARK    4  A    between atoms: C_6  and  C_7
REMARK    5  A    between atoms: C_7  and  N_8
REMARK    6  A    between atoms: C_12  and  C_13
REMARK                            x       y       z     vdW  Elec       q    Type
REMARK                         _______ _______ _______ _____ _____    ______ ____
ROOT
ATOM      1  N   UNL     1       0.456  10.822  19.880  0.00  0.00    +0.000 N 
ATOM      2  C   UNL     1       1.154   9.704  19.410  0.00  0.00    +0.000 A 
ATOM      3  C   UNL     1       1.313   8.614  20.257  0.00  0.00    +0.000 A 
ATOM      4  C   UNL     1       1.971   7.472  19.796  0.00  0.00    +0.000 A 
ATOM      5  C   UNL     1       2.502   7.430  18.503  0.00  0.00    +0.000 A 
ATOM      6  C   UNL     1       2.347   8.601  17.762  0.00  0.00    +0.000 A 
ATOM      7  N   UNL     1       1.704   9.719  18.183  0.00  0.00    +0.000 NA
ATOM      8  H   UNL     1      -0.341  10.528  20.445  0.00  0.00    +0.000 HD
ENDROOT
BRANCH   5   9
ATOM      9  C   UNL     1       3.159   6.227  17.952  0.00  0.00    +0.000 A 
ATOM     10  C   UNL     1       2.513   4.977  17.958  0.00  0.00    +0.000 A 
ATOM     11  C   UNL     1       3.123   3.838  17.423  0.00  0.00    +0.000 A 
ATOM     12  C   UNL     1       4.392   3.925  16.861  0.00  0.00    +0.000 A 
ATOM     13  C   UNL     1       5.051   5.149  16.836  0.00  0.00    +0.000 A 
ATOM     14  C   UNL     1       4.443   6.285  17.380  0.00  0.00    +0.000 A 
ENDBRANCH   5   9
BRANCH   1  15
ATOM     15  C   UNL     1      -0.065  11.672  18.803  0.00  0.00    +0.000 C 
BRANCH  15  18
ATOM     16  C   UNL     1      -3.643  11.404  18.287  0.00  0.00    +0.000 A 
ATOM     17  N   UNL     1      -2.542  11.927  18.789  0.00  0.00    +0.000 NA
ATOM     18  C   UNL     1      -1.426  11.239  18.317  0.00  0.00    +0.000 A 
ATOM     19  C   UNL     1      -1.708  10.196  17.461  0.00  0.00    +0.000 A 
ATOM     20  S   UNL     1      -3.400  10.077  17.215  0.00  0.00    +0.000 S 
BRANCH  16  21
ATOM     21  C   UNL     1      -5.021  11.937  18.544  0.00  0.00    +0.000 C 
BRANCH  21  23
ATOM     22  C   UNL     1      -6.781  10.428  18.941  0.00  0.00    +0.000 C 
ATOM     23  O   UNL     1      -5.974  11.053  17.950  0.00  0.00    +0.000 OA
ENDBRANCH  21  23
ENDBRANCH  16  21
ENDBRANCH  15  18
ENDBRANCH   1  15
TORSDOF 5
ENDMDL
MODEL 6
REMARK VINA RESULT:      -6.8      6.182      8.463
REMARK  Name = 
REMARK  6 active torsions:
REMARK  status: ('A' for Active; 'I' for Inactive)
REMARK    1  A    between atoms: C_1  and  O_2
REMARK    2  A    between atoms: O_2  and  C_3
REMARK    3  A    between atoms: C_3  and  C_4
REMARK    4  A    between atoms: C_6  and  C_7
REMARK    5  A    between atoms: C_7  and  N_8
REMARK    6  A    between atoms: C_12  and  C_13
REMARK                            x       y       z     vdW  Elec       q    Type
REMARK                         _______ _______ _______ _____ _____    ______ ____
ROOT
ATOM      1  N   UNL     1       3.036   7.383  17.533  0.00  0.00    +0.000 N 
ATOM      2  C   UNL     1       2.253   8.148  18.406  0.00  0.00    +0.000 A 
ATOM      3  C   UNL     1       1.595   9.265  17.904  0.00  0.00    +0.000 A 
ATOM      4  C   UNL     1       0.777  10.021  18.746  0.00  0.00    +0.000 A 
ATOM      5  C   UNL     1       0.641   9.683  20.097  0.00  0.00    +0.000 A 
ATOM      6  C   UNL     1       1.397   8.586  20.511  0.00  0.00    +0.000 A 
ATOM      7  N   UNL     1       2.191   7.831  19.711  0.00  0.00    +0.000 NA
ATOM      8  H   UNL     1       2.579   7.308  16.624  0.00  0.00    +0.000 HD
ENDROOT
BRANCH   5   9
ATOM      9  C   UNL     1      -0.254  10.417  21.013  0.00  0.00    +0.000 A 
ATOM     10  C   UNL     1      -0.383  10.041  22.363  0.00  0.00    +0.000 A 
ATOM     11  C   UNL     1      -1.215  10.743  23.240  0.00  0.00    +0.000 A 
ATOM     12  C   UNL     1      -1.933  11.845  22.789  0.00  0.00    +0.000 A 
ATOM     13  C   UNL     1      -1.821  12.242  21.461  0.00  0.00    +0.000 A 
ATOM     14  C   UNL     1      -0.994  11.534  20.584  0.00  0.00    +0.000 A 
ENDBRANCH   5   9
BRANCH   1  15
ATOM     15  C   UNL     1       3.270   6.017  18.016  0.00  0.00    +0.000 C 
BRANCH  15  18
ATOM     16  C   UNL     1       6.052   4.527  16.231  0.00  0.00    +0.000 A 
ATOM     17  N   UNL     1       4.816   4.964  16.372  0.00  0.00    +0.000 NA
ATOM     18  C   UNL     1       4.634   5.489  17.649  0.00  0.00    +0.000 A 
ATOM     19  C   UNL     1       5.749   5.436  18.460  0.00  0.00    +0.000 A 
ATOM     20  S   UNL     1       7.063   4.737  17.611  0.00  0.00    +0.000 S 
BRANCH  16  21
ATOM     21  C   UNL     1       6.602   3.951  14.960  0.00  0.00    +0.000 C 
BRANCH  21  23
ATOM     22  C   UNL     1       6.024   3.491  12.727  0.00  0.00    +0.000 C 
ATOM     23  O   UNL     1       5.687   4.228  13.898  0.00  0.00    +0.000 OA
ENDBRANCH  21  23
ENDBRANCH  16  21
ENDBRANCH  15  18
ENDBRANCH   1  15
TORSDOF 5
ENDMDL
MODEL 7
REMARK VINA RESULT:      -6.8      6.025      8.219
REMARK  Name = 
REMARK  6 active torsions:
REMARK  status: ('A' for Active; 'I' for Inactive)
REMARK    1  A    between atoms: C_1  and  O_2
REMARK    2  A    between atoms: O_2  and  C_3
REMARK    3  A    between atoms: C_3  and  C_4
REMARK    4  A    between atoms: C_6  and  C_7
REMARK    5  A    between atoms: C_7  and  N_8
REMARK    6  A    between atoms: C_12  and  C_13
REMARK                            x       y       z     vdW  Elec       q    Type
REMARK                         _______ _______ _______ _____ _____    ______ ____
ROOT
ATOM      1  N   UNL     1       3.025   7.363  17.591  0.00  0.00    +0.000 N 
ATOM      2  C   UNL     1       2.241   8.129  18.461  0.00  0.00    +0.000 A 
ATOM      3  C   UNL     1       1.543   9.215  17.947  0.00  0.00    +0.000 A 
ATOM      4  C   UNL     1       0.724   9.970  18.788  0.00  0.00    +0.000 A 
ATOM      5  C   UNL     1       0.627   9.663  20.149  0.00  0.00    +0.000 A 
ATOM      6  C   UNL     1       1.421   8.598  20.574  0.00  0.00    +0.000 A 
ATOM      7  N   UNL     1       2.217   7.844  19.775  0.00  0.00    +0.000 NA
ATOM      8  H   UNL     1       2.551   7.252  16.694  0.00  0.00    +0.000 HD
ENDROOT
BRANCH   5   9
ATOM      9  C   UNL     1      -0.267  10.398  21.067  0.00  0.00    +0.000 A 
ATOM     10  C   UNL     1      -1.084  11.446  20.605  0.00  0.00    +0.000 A 
ATOM     11  C   UNL     1      -1.945  12.134  21.466  0.00  0.00    +0.000 A 
ATOM     12  C   UNL     1      -2.015  11.783  22.810  0.00  0.00    +0.000 A 
ATOM     13  C   UNL     1      -1.222  10.748  23.293  0.00  0.00    +0.000 A 
ATOM     14  C   UNL     1      -0.356  10.066  22.432  0.00  0.00    +0.000 A 
ENDBRANCH   5   9
BRANCH   1  15
ATOM     15  C   UNL     1       3.307   6.016  18.102  0.00  0.00    +0.000 C 
BRANCH  15  18
ATOM     16  C   UNL     1       6.092   4.740  16.164  0.00  0.00    +0.000 A 
ATOM     17  N   UNL     1       4.869   5.199  16.343  0.00  0.00    +0.000 NA
ATOM     18  C   UNL     1       4.662   5.500  17.688  0.00  0.00    +0.000 A 
ATOM     19  C   UNL     1       5.743   5.255  18.509  0.00  0.00    +0.000 A 
ATOM     20  S   UNL     1       7.059   4.659  17.587  0.00  0.00    +0.000 S 
BRANCH  16  21
ATOM     21  C   UNL     1       6.664   4.371  14.827  0.00  0.00    +0.000 C 
BRANCH  21  23
ATOM     22  C   UNL     1       7.963   5.269  13.084  0.00  0.00    +0.000 C 
ATOM     23  O   UNL     1       7.658   5.335  14.472  0.00  0.00    +0.000 OA
ENDBRANCH  21  23
ENDBRANCH  16  21
ENDBRANCH  15  18
ENDBRANCH   1  15
TORSDOF 5
ENDMDL
MODEL 8
REMARK VINA RESULT:      -6.8      6.880      8.573
REMARK  Name = 
REMARK  6 active torsions:
REMARK  status: ('A' for Active; 'I' for Inactive)
REMARK    1  A    between atoms: C_1  and  O_2
REMARK    2  A    between atoms: O_2  and  C_3
REMARK    3  A    between atoms: C_3  and  C_4
REMARK    4  A    between atoms: C_6  and  C_7
REMARK    5  A    between atoms: C_7  and  N_8
REMARK    6  A    between atoms: C_12  and  C_13
REMARK                            x       y       z     vdW  Elec       q    Type
REMARK                         _______ _______ _______ _____ _____    ______ ____
ROOT
ATOM      1  N   UNL     1       0.920   9.911  20.286  0.00  0.00    +0.000 N 
ATOM      2  C   UNL     1       1.390   8.635  19.953  0.00  0.00    +0.000 A 
ATOM      3  C   UNL     1       1.256   7.612  20.884  0.00  0.00    +0.000 A 
ATOM      4  C   UNL     1       1.682   6.323  20.559  0.00  0.00    +0.000 A 
ATOM      5  C   UNL     1       2.273   6.060  19.319  0.00  0.00    +0.000 A 
ATOM      6  C   UNL     1       2.421   7.170  18.488  0.00  0.00    +0.000 A 
ATOM      7  N   UNL     1       2.007   8.430  18.776  0.00  0.00    +0.000 NA
ATOM      8  H   UNL     1       0.043   9.839  20.804  0.00  0.00    +0.000 HD
ENDROOT
BRANCH   5   9
ATOM      9  C   UNL     1       2.690   4.705  18.908  0.00  0.00    +0.000 A 
ATOM     10  C   UNL     1       3.709   4.016  19.593  0.00  0.00    +0.000 A 
ATOM     11  C   UNL     1       4.096   2.726  19.220  0.00  0.00    +0.000 A 
ATOM     12  C   UNL     1       3.466   2.089  18.156  0.00  0.00    +0.000 A 
ATOM     13  C   UNL     1       2.453   2.743  17.465  0.00  0.00    +0.000 A 
ATOM     14  C   UNL     1       2.072   4.037  17.835  0.00  0.00    +0.000 A 
ENDBRANCH   5   9
BRANCH   1  15
ATOM     15  C   UNL     1       0.664  10.756  19.114  0.00  0.00    +0.000 C 
BRANCH  15  18
ATOM     16  C   UNL     1      -2.670  11.342  17.815  0.00  0.00    +0.000 A 
ATOM     17  N   UNL     1      -1.425  10.911  17.766  0.00  0.00    +0.000 NA
ATOM     18  C   UNL     1      -0.785  11.153  18.980  0.00  0.00    +0.000 A 
ATOM     19  C   UNL     1      -1.567  11.772  19.932  0.00  0.00    +0.000 A 
ATOM     20  S   UNL     1      -3.144  12.041  19.316  0.00  0.00    +0.000 S 
BRANCH  16  21
ATOM     21  C   UNL     1      -3.657  11.189  16.696  0.00  0.00    +0.000 C 
BRANCH  21  23
ATOM     22  C   UNL     1      -3.276  10.080  14.657  0.00  0.00    +0.000 C 
ATOM     23  O   UNL     1      -2.951  11.213  15.454  0.00  0.00    +0.000 OA
ENDBRANCH  21  23
ENDBRANCH  16  21
ENDBRANCH  15  18
ENDBRANCH   1  15
TORSDOF 5
ENDMDL
MODEL 9
REMARK VINA RESULT:      -6.7      6.221      8.111
REMARK  Name = 
REMARK  6 active torsions:
REMARK  status: ('A' for Active; 'I' for Inactive)
REMARK    1  A    between atoms: C_1  and  O_2
REMARK    2  A    between atoms: O_2  and  C_3
REMARK    3  A    between atoms: C_3  and  C_4
REMARK    4  A    between atoms: C_6  and  C_7
REMARK    5  A    between atoms: C_7  and  N_8
REMARK    6  A    between atoms: C_12  and  C_13
REMARK                            x       y       z     vdW  Elec       q    Type
REMARK                         _______ _______ _______ _____ _____    ______ ____
ROOT
ATOM      1  N   UNL     1       5.716   3.886  16.652  0.00  0.00    +0.000 N 
ATOM      2  C   UNL     1       4.837   4.860  17.140  0.00  0.00    +0.000 A 
ATOM      3  C   UNL     1       3.899   4.491  18.095  0.00  0.00    +0.000 A 
ATOM      4  C   UNL     1       3.038   5.454  18.625  0.00  0.00    +0.000 A 
ATOM      5  C   UNL     1       3.090   6.778  18.178  0.00  0.00    +0.000 A 
ATOM      6  C   UNL     1       4.021   7.025  17.170  0.00  0.00    +0.000 A 
ATOM      7  N   UNL     1       4.875   6.110  16.645  0.00  0.00    +0.000 NA
ATOM      8  H   UNL     1       6.012   3.268  17.408  0.00  0.00    +0.000 HD
ENDROOT
BRANCH   5   9
ATOM      9  C   UNL     1       2.239   7.843  18.746  0.00  0.00    +0.000 A 
ATOM     10  C   UNL     1       1.750   8.891  17.943  0.00  0.00    +0.000 A 
ATOM     11  C   UNL     1       0.930   9.892  18.472  0.00  0.00    +0.000 A 
ATOM     12  C   UNL     1       0.572   9.865  19.814  0.00  0.00    +0.000 A 
ATOM     13  C   UNL     1       1.035   8.838  20.629  0.00  0.00    +0.000 A 
ATOM     14  C   UNL     1       1.862   7.841  20.101  0.00  0.00    +0.000 A 
ENDBRANCH   5   9
BRANCH   1  15
ATOM     15  C   UNL     1       6.931   4.452  16.054  0.00  0.00    +0.000 C 
BRANCH  15  18
ATOM     16  C   UNL     1       6.116   3.712  12.599  0.00  0.00    +0.000 A 
ATOM     17  N   UNL     1       5.989   3.609  13.908  0.00  0.00    +0.000 NA
ATOM     18  C   UNL     1       6.901   4.448  14.546  0.00  0.00    +0.000 A 
ATOM     19  C   UNL     1       7.710   5.174  13.697  0.00  0.00    +0.000 A 
ATOM     20  S   UNL     1       7.316   4.826  12.066  0.00  0.00    +0.000 S 
BRANCH  16  21
ATOM     21  C   UNL     1       5.251   2.987  11.611  0.00  0.00    +0.000 C 
BRANCH  21  23
ATOM     22  C   UNL     1       6.874   1.417  10.952  0.00  0.00    +0.000 C 
ATOM     23  O   UNL     1       5.623   1.607  11.601  0.00  0.00    +0.000 OA
ENDBRANCH  21  23
ENDBRANCH  16  21
ENDBRANCH  15  18
ENDBRANCH   1  15
TORSDOF 5
ENDMDL
