MODEL 1
REMARK VINA RESULT:      -9.5      0.000      0.000
REMARK  Name = 
REMARK  5 active torsions:
REMARK  status: ('A' for Active; 'I' for Inactive)
REMARK    1  A    between atoms: C_2  and  C_21
REMARK    2  A    between atoms: N_3  and  C_4
REMARK    3  A    between atoms: C_7  and  O_8
REMARK    4  A    between atoms: O_8  and  C_9
REMARK    5  A    between atoms: N_23  and  C_24
REMARK                            x       y       z     vdW  Elec       q    Type
REMARK                         _______ _______ _______ _____ _____    ______ ____
ROOT
ATOM      1  O   UNL     1       8.151   6.524  18.928  0.00  0.00    +0.000 OA
ATOM      2  C   UNL     1       7.435   6.898  18.005  0.00  0.00    +0.000 C 
ATOM      3  N   UNL     1       7.328   8.193  17.526  0.00  0.00    +0.000 N 
ATOM      4  H   UNL     1       6.588   8.382  16.847  0.00  0.00    +0.000 HD
ENDROOT
BRANCH   3   5
ATOM      5  C   UNL     1       8.082   9.303  17.965  0.00  0.00    +0.000 A 
ATOM      6  C   UNL     1       9.000   9.237  19.017  0.00  0.00    +0.000 A 
ATOM      7  C   UNL     1       9.676  10.382  19.454  0.00  0.00    +0.000 A 
ATOM      8  C   UNL     1       9.442  11.610  18.840  0.00  0.00    +0.000 A 
ATOM      9  C   UNL     1       8.597  11.658  17.729  0.00  0.00    +0.000 A 
ATOM     10  F   UNL     1       8.435  12.792  17.030  0.00  0.00    +0.000 F 
ATOM     11  C   UNL     1       7.911  10.521  17.298  0.00  0.00    +0.000 A 
BRANCH   8  12
ATOM     12  O   UNL     1      10.148  12.675  19.345  0.00  0.00    +0.000 OA
BRANCH  12  13
ATOM     13  C   UNL     1       9.504  13.899  19.453  0.00  0.00    +0.000 A 
ATOM     14  N   UNL     1       8.516  14.075  20.358  0.00  0.00    +0.000 NA
ATOM     15  C   UNL     1       7.878  15.253  20.359  0.00  0.00    +0.000 A 
ATOM     16  N   UNL     1       8.140  16.321  19.599  0.00  0.00    +0.000 NA
ATOM     17  C   UNL     1       9.189  16.159  18.756  0.00  0.00    +0.000 A 
ATOM     18  C   UNL     1       9.685  17.151  17.860  0.00  0.00    +0.000 A 
ATOM     19  C   UNL     1      10.771  16.712  17.138  0.00  0.00    +0.000 A 
ATOM     20  S   UNL     1      11.175  15.094  17.512  0.00  0.00    +0.000 S 
ATOM     21  C   UNL     1       9.902  14.969  18.661  0.00  0.00    +0.000 A 
ENDBRANCH  12  13
ENDBRANCH   8  12
ENDBRANCH   3   5
BRANCH   2  22
ATOM     22  C   UNL     1       6.561   5.853  17.319  0.00  0.00    +0.000 A 
ATOM     23  N   UNL     1       5.542   5.399  17.994  0.00  0.00    +0.000 NA
ATOM     24  N   UNL     1       4.745   4.433  17.433  0.00  0.00    +0.000 N 
ATOM     25  C   UNL     1       5.074   3.827  16.237  0.00  0.00    +0.000 A 
ATOM     26  C   UNL     1       6.084   4.192  15.447  0.00  0.00    +0.000 A 
ATOM     27  C   UNL     1       6.863   5.332  15.930  0.00  0.00    +0.000 A 
ATOM     28  O   UNL     1       7.743   5.849  15.253  0.00  0.00    +0.000 OA
BRANCH  24  29
ATOM     29  C   UNL     1       3.597   4.068  18.210  0.00  0.00    +0.000 A 
ATOM     30  C   UNL     1       3.617   4.100  19.619  0.00  0.00    +0.000 A 
ATOM     31  C   UNL     1       2.484   3.768  20.371  0.00  0.00    +0.000 A 
ATOM     32  C   UNL     1       1.316   3.395  19.723  0.00  0.00    +0.000 A 
ATOM     33  F   UNL     1       0.230   3.090  20.445  0.00  0.00    +0.000 F 
ATOM     34  C   UNL     1       1.264   3.328  18.339  0.00  0.00    +0.000 A 
ATOM     35  C   UNL     1       2.400   3.653  17.589  0.00  0.00    +0.000 A 
ENDBRANCH  24  29
ENDBRANCH   2  22
TORSDOF 5
ENDMDL
MODEL 2
REMARK VINA RESULT:      -9.3      7.296      9.419
REMARK  Name = 
REMARK  5 active torsions:
REMARK  status: ('A' for Active; 'I' for Inactive)
REMARK    1  A    between atoms: C_2  and  C_21
REMARK    2  A    between atoms: N_3  and  C_4
REMARK    3  A    between atoms: C_7  and  O_8
REMARK    4  A    between atoms: O_8  and  C_9
REMARK    5  A    between atoms: N_23  and  C_24
REMARK                            x       y       z     vdW  Elec       q    Type
REMARK                         _______ _______ _______ _____ _____    ______ ____
ROOT
ATOM      1  O   UNL     1       0.529   5.556  20.605  0.00  0.00    +0.000 OA
ATOM      2  C   UNL     1       1.695   5.874  20.402  0.00  0.00    +0.000 C 
ATOM      3  N   UNL     1       2.201   7.164  20.380  0.00  0.00    +0.000 N 
ATOM      4  H   UNL     1       3.163   7.285  20.058  0.00  0.00    +0.000 HD
ENDROOT
BRANCH   3   5
ATOM      5  C   UNL     1       1.475   8.341  20.661  0.00  0.00    +0.000 A 
ATOM      6  C   UNL     1       1.183   9.311  19.697  0.00  0.00    +0.000 A 
ATOM      7  C   UNL     1       0.514  10.489  20.042  0.00  0.00    +0.000 A 
ATOM      8  C   UNL     1       0.126  10.714  21.361  0.00  0.00    +0.000 A 
ATOM      9  C   UNL     1       0.333   9.706  22.305  0.00  0.00    +0.000 A 
ATOM     10  F   UNL     1      -0.131   9.824  23.558  0.00  0.00    +0.000 F 
ATOM     11  C   UNL     1       1.012   8.533  21.967  0.00  0.00    +0.000 A 
BRANCH   8  12
ATOM     12  O   UNL     1      -0.518  11.903  21.600  0.00  0.00    +0.000 OA
BRANCH  12  13
ATOM     13  C   UNL     1      -1.780  12.090  21.054  0.00  0.00    +0.000 A 
ATOM     14  N   UNL     1      -1.985  11.916  19.730  0.00  0.00    +0.000 NA
ATOM     15  C   UNL     1      -3.205  12.190  19.250  0.00  0.00    +0.000 A 
ATOM     16  N   UNL     1      -4.286  12.567  19.941  0.00  0.00    +0.000 NA
ATOM     17  C   UNL     1      -4.087  12.655  21.279  0.00  0.00    +0.000 A 
ATOM     18  C   UNL     1      -5.082  13.011  22.237  0.00  0.00    +0.000 A 
ATOM     19  C   UNL     1      -4.598  13.001  23.525  0.00  0.00    +0.000 A 
ATOM     20  S   UNL     1      -2.939  12.596  23.581  0.00  0.00    +0.000 S 
ATOM     21  C   UNL     1      -2.854  12.414  21.874  0.00  0.00    +0.000 A 
ENDBRANCH  12  13
ENDBRANCH   8  12
ENDBRANCH   3   5
BRANCH   2  22
ATOM     22  C   UNL     1       2.698   4.755  20.133  0.00  0.00    +0.000 A 
ATOM     23  N   UNL     1       3.449   4.877  19.074  0.00  0.00    +0.000 NA
ATOM     24  N   UNL     1       4.342   3.881  18.770  0.00  0.00    +0.000 N 
ATOM     25  C   UNL     1       4.367   2.692  19.470  0.00  0.00    +0.000 A 
ATOM     26  C   UNL     1       3.657   2.436  20.569  0.00  0.00    +0.000 A 
ATOM     27  C   UNL     1       2.810   3.538  21.026  0.00  0.00    +0.000 A 
ATOM     28  O   UNL     1       2.196   3.487  22.083  0.00  0.00    +0.000 OA
BRANCH  24  29
ATOM     29  C   UNL     1       5.188   4.149  17.644  0.00  0.00    +0.000 A 
ATOM     30  C   UNL     1       4.711   4.054  16.321  0.00  0.00    +0.000 A 
ATOM     31  C   UNL     1       5.535   4.341  15.227  0.00  0.00    +0.000 A 
ATOM     32  C   UNL     1       6.850   4.725  15.442  0.00  0.00    +0.000 A 
ATOM     33  F   UNL     1       7.633   5.012  14.393  0.00  0.00    +0.000 F 
ATOM     34  C   UNL     1       7.363   4.807  16.727  0.00  0.00    +0.000 A 
ATOM     35  C   UNL     1       6.540   4.511  17.820  0.00  0.00    +0.000 A 
ENDBRANCH  24  29
ENDBRANCH   2  22
TORSDOF 5
ENDMDL
MODEL 3
REMARK VINA RESULT:      -9.2      6.688      8.390
REMARK  Name = 
REMARK  5 active torsions:
REMARK  status: ('A' for Active; 'I' for Inactive)
REMARK    1  A    between atoms: C_2  and  C_21
REMARK    2  A    between atoms: N_3  and  C_4
REMARK    3  A    between atoms: C_7  and  O_8
REMARK    4  A    between atoms: O_8  and  C_9
REMARK    5  A    between atoms: N_23  and  C_24
REMARK                            x       y       z     vdW  Elec       q    Type
REMARK                         _______ _______ _______ _____ _____    ______ ____
ROOT
ATOM      1  O   UNL     1       0.562   5.416  20.539  0.00  0.00    +0.000 OA
ATOM      2  C   UNL     1       1.728   5.769  20.401  0.00  0.00    +0.000 C 
ATOM      3  N   UNL     1       2.202   7.070  20.452  0.00  0.00    +0.000 N 
ATOM      4  H   UNL     1       3.174   7.226  20.178  0.00  0.00    +0.000 HD
ENDROOT
BRANCH   3   5
ATOM      5  C   UNL     1       1.435   8.218  20.748  0.00  0.00    +0.000 A 
ATOM      6  C   UNL     1       1.091   8.595  22.049  0.00  0.00    +0.000 A 
ATOM      7  C   UNL     1       0.277   9.708  22.283  0.00  0.00    +0.000 A 
ATOM      8  C   UNL     1      -0.205  10.461  21.215  0.00  0.00    +0.000 A 
ATOM      9  C   UNL     1       0.215  10.140  19.922  0.00  0.00    +0.000 A 
ATOM     10  F   UNL     1      -0.122  10.908  18.874  0.00  0.00    +0.000 F 
ATOM     11  C   UNL     1       1.018   9.023  19.683  0.00  0.00    +0.000 A 
BRANCH   8  12
ATOM     12  O   UNL     1      -1.002  11.529  21.547  0.00  0.00    +0.000 OA
BRANCH  12  13
ATOM     13  C   UNL     1      -0.391  12.742  21.831  0.00  0.00    +0.000 A 
ATOM     14  N   UNL     1       0.772  13.080  21.232  0.00  0.00    +0.000 NA
ATOM     15  C   UNL     1       1.353  14.226  21.608  0.00  0.00    +0.000 A 
ATOM     16  N   UNL     1       0.888  15.127  22.479  0.00  0.00    +0.000 NA
ATOM     17  C   UNL     1      -0.321  14.816  23.007  0.00  0.00    +0.000 A 
ATOM     18  C   UNL     1      -1.044  15.620  23.938  0.00  0.00    +0.000 A 
ATOM     19  C   UNL     1      -2.252  15.061  24.288  0.00  0.00    +0.000 A 
ATOM     20  S   UNL     1      -2.503  13.554  23.524  0.00  0.00    +0.000 S 
ATOM     21  C   UNL     1      -0.997  13.641  22.701  0.00  0.00    +0.000 A 
ENDBRANCH  12  13
ENDBRANCH   8  12
ENDBRANCH   3   5
BRANCH   2  22
ATOM     22  C   UNL     1       2.769   4.686  20.131  0.00  0.00    +0.000 A 
ATOM     23  N   UNL     1       3.505   4.826  19.064  0.00  0.00    +0.000 NA
ATOM     24  N   UNL     1       4.432   3.861  18.760  0.00  0.00    +0.000 N 
ATOM     25  C   UNL     1       4.507   2.679  19.470  0.00  0.00    +0.000 A 
ATOM     26  C   UNL     1       3.817   2.407  20.577  0.00  0.00    +0.000 A 
ATOM     27  C   UNL     1       2.934   3.481  21.033  0.00  0.00    +0.000 A 
ATOM     28  O   UNL     1       2.331   3.416  22.096  0.00  0.00    +0.000 OA
BRANCH  24  29
ATOM     29  C   UNL     1       5.258   4.150  17.624  0.00  0.00    +0.000 A 
ATOM     30  C   UNL     1       4.759   4.071  16.308  0.00  0.00    +0.000 A 
ATOM     31  C   UNL     1       5.562   4.379  15.205  0.00  0.00    +0.000 A 
ATOM     32  C   UNL     1       6.879   4.768  15.403  0.00  0.00    +0.000 A 
ATOM     33  F   UNL     1       7.642   5.075  14.346  0.00  0.00    +0.000 F 
ATOM     34  C   UNL     1       7.413   4.835  16.681  0.00  0.00    +0.000 A 
ATOM     35  C   UNL     1       6.609   4.518  17.783  0.00  0.00    +0.000 A 
ENDBRANCH  24  29
ENDBRANCH   2  22
TORSDOF 5
ENDMDL
MODEL 4
REMARK VINA RESULT:      -9.2      1.092      1.516
REMARK  Name = 
REMARK  5 active torsions:
REMARK  status: ('A' for Active; 'I' for Inactive)
REMARK    1  A    between atoms: C_2  and  C_21
REMARK    2  A    between atoms: N_3  and  C_4
REMARK    3  A    between atoms: C_7  and  O_8
REMARK    4  A    between atoms: O_8  and  C_9
REMARK    5  A    between atoms: N_23  and  C_24
REMARK                            x       y       z     vdW  Elec       q    Type
REMARK                         _______ _______ _______ _____ _____    ______ ____
ROOT
ATOM      1  O   UNL     1       8.190   6.532  18.853  0.00  0.00    +0.000 OA
ATOM      2  C   UNL     1       7.457   6.950  17.965  0.00  0.00    +0.000 C 
ATOM      3  N   UNL     1       7.353   8.265  17.539  0.00  0.00    +0.000 N 
ATOM      4  H   UNL     1       6.598   8.488  16.888  0.00  0.00    +0.000 HD
ENDROOT
BRANCH   3   5
ATOM      5  C   UNL     1       8.131   9.348  18.002  0.00  0.00    +0.000 A 
ATOM      6  C   UNL     1       9.032   9.244  19.065  0.00  0.00    +0.000 A 
ATOM      7  C   UNL     1       9.733  10.364  19.525  0.00  0.00    +0.000 A 
ATOM      8  C   UNL     1       9.540  11.606  18.925  0.00  0.00    +0.000 A 
ATOM      9  C   UNL     1       8.710  11.691  17.805  0.00  0.00    +0.000 A 
ATOM     10  F   UNL     1       8.587  12.838  17.119  0.00  0.00    +0.000 F 
ATOM     11  C   UNL     1       8.000  10.578  17.350  0.00  0.00    +0.000 A 
BRANCH   8  12
ATOM     12  O   UNL     1      10.267  12.644  19.453  0.00  0.00    +0.000 OA
BRANCH  12  13
ATOM     13  C   UNL     1       9.676  13.431  20.431  0.00  0.00    +0.000 A 
ATOM     14  N   UNL     1       9.501  12.952  21.683  0.00  0.00    +0.000 NA
ATOM     15  C   UNL     1       8.851  13.729  22.559  0.00  0.00    +0.000 A 
ATOM     16  N   UNL     1       8.394  14.969  22.365  0.00  0.00    +0.000 NA
ATOM     17  C   UNL     1       8.652  15.469  21.131  0.00  0.00    +0.000 A 
ATOM     18  C   UNL     1       8.293  16.774  20.681  0.00  0.00    +0.000 A 
ATOM     19  C   UNL     1       8.698  17.014  19.388  0.00  0.00    +0.000 A 
ATOM     20  S   UNL     1       9.482  15.659  18.703  0.00  0.00    +0.000 S 
ATOM     21  C   UNL     1       9.299  14.737  20.142  0.00  0.00    +0.000 A 
ENDBRANCH  12  13
ENDBRANCH   8  12
ENDBRANCH   3   5
BRANCH   2  22
ATOM     22  C   UNL     1       6.554   5.942  17.259  0.00  0.00    +0.000 A 
ATOM     23  N   UNL     1       5.496   5.542  17.909  0.00  0.00    +0.000 NA
ATOM     24  N   UNL     1       4.671   4.610  17.331  0.00  0.00    +0.000 N 
ATOM     25  C   UNL     1       5.004   3.981  16.148  0.00  0.00    +0.000 A 
ATOM     26  C   UNL     1       6.050   4.294  15.384  0.00  0.00    +0.000 A 
ATOM     27  C   UNL     1       6.869   5.398  15.882  0.00  0.00    +0.000 A 
ATOM     28  O   UNL     1       7.790   5.869  15.227  0.00  0.00    +0.000 OA
BRANCH  24  29
ATOM     29  C   UNL     1       3.485   4.304  18.077  0.00  0.00    +0.000 A 
ATOM     30  C   UNL     1       2.580   3.310  17.652  0.00  0.00    +0.000 A 
ATOM     31  C   UNL     1       1.438   2.998  18.399  0.00  0.00    +0.000 A 
ATOM     32  C   UNL     1       1.184   3.680  19.579  0.00  0.00    +0.000 A 
ATOM     33  F   UNL     1       0.097   3.370  20.298  0.00  0.00    +0.000 F 
ATOM     34  C   UNL     1       2.038   4.680  20.018  0.00  0.00    +0.000 A 
ATOM     35  C   UNL     1       3.175   4.996  19.266  0.00  0.00    +0.000 A 
ENDBRANCH  24  29
ENDBRANCH   2  22
TORSDOF 5
ENDMDL
MODEL 5
REMARK VINA RESULT:      -9.1      7.390     10.469
REMARK  Name = 
REMARK  5 active torsions:
REMARK  status: ('A' for Active; 'I' for Inactive)
REMARK    1  A    between atoms: C_2  and  C_21
REMARK    2  A    between atoms: N_3  and  C_4
REMARK    3  A    between atoms: C_7  and  O_8
REMARK    4  A    between atoms: O_8  and  C_9
REMARK    5  A    between atoms: N_23  and  C_24
REMARK                            x       y       z     vdW  Elec       q    Type
REMARK                         _______ _______ _______ _____ _____    ______ ____
ROOT
ATOM      1  O   UNL     1       1.035  10.084  18.144  0.00  0.00    +0.000 OA
ATOM      2  C   UNL     1       0.595   9.964  19.282  0.00  0.00    +0.000 C 
ATOM      3  N   UNL     1       0.828   8.902  20.141  0.00  0.00    +0.000 N 
ATOM      4  H   UNL     1       0.282   8.870  21.005  0.00  0.00    +0.000 HD
ENDROOT
BRANCH   3   5
ATOM      5  C   UNL     1       1.676   7.803  19.887  0.00  0.00    +0.000 A 
ATOM      6  C   UNL     1       2.522   7.729  18.777  0.00  0.00    +0.000 A 
ATOM      7  C   UNL     1       3.296   6.589  18.539  0.00  0.00    +0.000 A 
ATOM      8  C   UNL     1       3.234   5.504  19.411  0.00  0.00    +0.000 A 
ATOM      9  C   UNL     1       2.460   5.615  20.568  0.00  0.00    +0.000 A 
ATOM     10  F   UNL     1       2.463   4.648  21.498  0.00  0.00    +0.000 F 
ATOM     11  C   UNL     1       1.676   6.746  20.803  0.00  0.00    +0.000 A 
BRANCH   8  12
ATOM     12  O   UNL     1       4.025   4.430  19.087  0.00  0.00    +0.000 OA
BRANCH  12  13
ATOM     13  C   UNL     1       5.332   4.672  18.690  0.00  0.00    +0.000 A 
ATOM     14  N   UNL     1       6.258   5.074  19.588  0.00  0.00    +0.000 NA
ATOM     15  C   UNL     1       7.480   5.370  19.129  0.00  0.00    +0.000 A 
ATOM     16  N   UNL     1       7.928   5.259  17.874  0.00  0.00    +0.000 NA
ATOM     17  C   UNL     1       7.014   4.773  17.000  0.00  0.00    +0.000 A 
ATOM     18  C   UNL     1       7.246   4.537  15.612  0.00  0.00    +0.000 A 
ATOM     19  C   UNL     1       6.141   4.024  14.974  0.00  0.00    +0.000 A 
ATOM     20  S   UNL     1       4.812   3.855  16.034  0.00  0.00    +0.000 S 
ATOM     21  C   UNL     1       5.711   4.457  17.370  0.00  0.00    +0.000 A 
ENDBRANCH  12  13
ENDBRANCH   8  12
ENDBRANCH   3   5
BRANCH   2  22
ATOM     22  C   UNL     1      -0.308  11.073  19.813  0.00  0.00    +0.000 A 
ATOM     23  N   UNL     1      -1.498  11.168  19.289  0.00  0.00    +0.000 NA
ATOM     24  N   UNL     1      -2.336  12.170  19.709  0.00  0.00    +0.000 N 
ATOM     25  C   UNL     1      -1.904  13.165  20.564  0.00  0.00    +0.000 A 
ATOM     26  C   UNL     1      -0.717  13.189  21.171  0.00  0.00    +0.000 A 
ATOM     27  C   UNL     1       0.148  12.047  20.878  0.00  0.00    +0.000 A 
ATOM     28  O   UNL     1       1.215  11.878  21.455  0.00  0.00    +0.000 OA
BRANCH  24  29
ATOM     29  C   UNL     1      -3.654  12.134  19.147  0.00  0.00    +0.000 A 
ATOM     30  C   UNL     1      -3.913  11.512  17.908  0.00  0.00    +0.000 A 
ATOM     31  C   UNL     1      -5.206  11.458  17.377  0.00  0.00    +0.000 A 
ATOM     32  C   UNL     1      -6.259  12.029  18.076  0.00  0.00    +0.000 A 
ATOM     33  F   UNL     1      -7.498  11.964  17.571  0.00  0.00    +0.000 F 
ATOM     34  C   UNL     1      -6.041  12.671  19.286  0.00  0.00    +0.000 A 
ATOM     35  C   UNL     1      -4.745  12.731  19.811  0.00  0.00    +0.000 A 
ENDBRANCH  24  29
ENDBRANCH   2  22
TORSDOF 5
ENDMDL
MODEL 6
REMARK VINA RESULT:      -9.1      6.484      8.323
REMARK  Name = 
REMARK  5 active torsions:
REMARK  status: ('A' for Active; 'I' for Inactive)
REMARK    1  A    between atoms: C_2  and  C_21
REMARK    2  A    between atoms: N_3  and  C_4
REMARK    3  A    between atoms: C_7  and  O_8
REMARK    4  A    between atoms: O_8  and  C_9
REMARK    5  A    between atoms: N_23  and  C_24
REMARK                            x       y       z     vdW  Elec       q    Type
REMARK                         _______ _______ _______ _____ _____    ______ ____
ROOT
ATOM      1  O   UNL     1       0.500   5.448  20.537  0.00  0.00    +0.000 OA
ATOM      2  C   UNL     1       1.663   5.806  20.386  0.00  0.00    +0.000 C 
ATOM      3  N   UNL     1       2.127   7.111  20.406  0.00  0.00    +0.000 N 
ATOM      4  H   UNL     1       3.096   7.268  20.124  0.00  0.00    +0.000 HD
ENDROOT
BRANCH   3   5
ATOM      5  C   UNL     1       1.353   8.260  20.679  0.00  0.00    +0.000 A 
ATOM      6  C   UNL     1       0.878   9.118  19.684  0.00  0.00    +0.000 A 
ATOM      7  C   UNL     1       0.167  10.277  20.014  0.00  0.00    +0.000 A 
ATOM      8  C   UNL     1      -0.078  10.593  21.348  0.00  0.00    +0.000 A 
ATOM      9  C   UNL     1       0.316   9.689  22.337  0.00  0.00    +0.000 A 
ATOM     10  F   UNL     1      -0.005   9.888  23.625  0.00  0.00    +0.000 F 
ATOM     11  C   UNL     1       1.036   8.537  22.013  0.00  0.00    +0.000 A 
BRANCH   8  12
ATOM     12  O   UNL     1      -0.776  11.755  21.569  0.00  0.00    +0.000 OA
BRANCH  12  13
ATOM     13  C   UNL     1      -0.058  12.923  21.779  0.00  0.00    +0.000 A 
ATOM     14  N   UNL     1       1.157  13.093  21.211  0.00  0.00    +0.000 NA
ATOM     15  C   UNL     1       1.835  14.206  21.517  0.00  0.00    +0.000 A 
ATOM     16  N   UNL     1       1.428  15.222  22.285  0.00  0.00    +0.000 NA
ATOM     17  C   UNL     1       0.174  15.078  22.778  0.00  0.00    +0.000 A 
ATOM     18  C   UNL     1      -0.500  16.027  23.601  0.00  0.00    +0.000 A 
ATOM     19  C   UNL     1      -1.771  15.622  23.938  0.00  0.00    +0.000 A 
ATOM     20  S   UNL     1      -2.143  14.084  23.293  0.00  0.00    +0.000 S 
ATOM     21  C   UNL     1      -0.604  13.951  22.539  0.00  0.00    +0.000 A 
ENDBRANCH  12  13
ENDBRANCH   8  12
ENDBRANCH   3   5
BRANCH   2  22
ATOM     22  C   UNL     1       2.710   4.724  20.136  0.00  0.00    +0.000 A 
ATOM     23  N   UNL     1       3.459   4.861  19.077  0.00  0.00    +0.000 NA
ATOM     24  N   UNL     1       4.392   3.897  18.790  0.00  0.00    +0.000 N 
ATOM     25  C   UNL     1       4.463   2.720  19.508  0.00  0.00    +0.000 A 
ATOM     26  C   UNL     1       3.761   2.453  20.609  0.00  0.00    +0.000 A 
ATOM     27  C   UNL     1       2.869   3.526  21.047  0.00  0.00    +0.000 A 
ATOM     28  O   UNL     1       2.253   3.466  22.104  0.00  0.00    +0.000 OA
BRANCH  24  29
ATOM     29  C   UNL     1       5.231   4.181  17.662  0.00  0.00    +0.000 A 
ATOM     30  C   UNL     1       4.741   4.119  16.342  0.00  0.00    +0.000 A 
ATOM     31  C   UNL     1       5.557   4.423  15.247  0.00  0.00    +0.000 A 
ATOM     32  C   UNL     1       6.878   4.791  15.458  0.00  0.00    +0.000 A 
ATOM     33  F   UNL     1       7.653   5.094  14.409  0.00  0.00    +0.000 F 
ATOM     34  C   UNL     1       7.403   4.841  16.740  0.00  0.00    +0.000 A 
ATOM     35  C   UNL     1       6.587   4.529  17.833  0.00  0.00    +0.000 A 
ENDBRANCH  24  29
ENDBRANCH   2  22
TORSDOF 5
ENDMDL
MODEL 7
REMARK VINA RESULT:      -9.1      1.417      2.273
REMARK  Name = 
REMARK  5 active torsions:
REMARK  status: ('A' for Active; 'I' for Inactive)
REMARK    1  A    between atoms: C_2  and  C_21
REMARK    2  A    between atoms: N_3  and  C_4
REMARK    3  A    between atoms: C_7  and  O_8
REMARK    4  A    between atoms: O_8  and  C_9
REMARK    5  A    between atoms: N_23  and  C_24
REMARK                            x       y       z     vdW  Elec       q    Type
REMARK                         _______ _______ _______ _____ _____    ______ ____
ROOT
ATOM      1  O   UNL     1       8.157   6.556  18.887  0.00  0.00    +0.000 OA
ATOM      2  C   UNL     1       7.436   6.958  17.980  0.00  0.00    +0.000 C 
ATOM      3  N   UNL     1       7.339   8.264  17.530  0.00  0.00    +0.000 N 
ATOM      4  H   UNL     1       6.594   8.476  16.863  0.00  0.00    +0.000 HD
ENDROOT
BRANCH   3   5
ATOM      5  C   UNL     1       8.110   9.356  17.985  0.00  0.00    +0.000 A 
ATOM      6  C   UNL     1       9.007   9.267  19.053  0.00  0.00    +0.000 A 
ATOM      7  C   UNL     1       9.700  10.395  19.505  0.00  0.00    +0.000 A 
ATOM      8  C   UNL     1       9.505  11.630  18.891  0.00  0.00    +0.000 A 
ATOM      9  C   UNL     1       8.681  11.699  17.765  0.00  0.00    +0.000 A 
ATOM     10  F   UNL     1       8.557  12.838  17.067  0.00  0.00    +0.000 F 
ATOM     11  C   UNL     1       7.977  10.578  17.319  0.00  0.00    +0.000 A 
BRANCH   8  12
ATOM     12  O   UNL     1      10.225  12.677  19.411  0.00  0.00    +0.000 OA
BRANCH  12  13
ATOM     13  C   UNL     1       9.532  13.779  19.888  0.00  0.00    +0.000 A 
ATOM     14  N   UNL     1       9.355  14.868  19.108  0.00  0.00    +0.000 NA
ATOM     15  C   UNL     1       8.749  15.931  19.653  0.00  0.00    +0.000 A 
ATOM     16  N   UNL     1       8.233  16.032  20.882  0.00  0.00    +0.000 NA
ATOM     17  C   UNL     1       8.341  14.903  21.624  0.00  0.00    +0.000 A 
ATOM     18  C   UNL     1       7.851  14.742  22.954  0.00  0.00    +0.000 A 
ATOM     19  C   UNL     1       8.088  13.482  23.453  0.00  0.00    +0.000 A 
ATOM     20  S   UNL     1       8.929  12.500  22.336  0.00  0.00    +0.000 S 
ATOM     21  C   UNL     1       8.972  13.754  21.161  0.00  0.00    +0.000 A 
ENDBRANCH  12  13
ENDBRANCH   8  12
ENDBRANCH   3   5
BRANCH   2  22
ATOM     22  C   UNL     1       6.544   5.937  17.279  0.00  0.00    +0.000 A 
ATOM     23  N   UNL     1       5.490   5.529  17.930  0.00  0.00    +0.000 NA
ATOM     24  N   UNL     1       4.674   4.587  17.357  0.00  0.00    +0.000 N 
ATOM     25  C   UNL     1       5.014   3.955  16.177  0.00  0.00    +0.000 A 
ATOM     26  C   UNL     1       6.058   4.274  15.412  0.00  0.00    +0.000 A 
ATOM     27  C   UNL     1       6.865   5.390  15.905  0.00  0.00    +0.000 A 
ATOM     28  O   UNL     1       7.782   5.866  15.248  0.00  0.00    +0.000 OA
BRANCH  24  29
ATOM     29  C   UNL     1       3.491   4.273  18.104  0.00  0.00    +0.000 A 
ATOM     30  C   UNL     1       2.549   3.333  17.638  0.00  0.00    +0.000 A 
ATOM     31  C   UNL     1       1.410   3.012  18.384  0.00  0.00    +0.000 A 
ATOM     32  C   UNL     1       1.195   3.630  19.607  0.00  0.00    +0.000 A 
ATOM     33  F   UNL     1       0.110   3.311  20.325  0.00  0.00    +0.000 F 
ATOM     34  C   UNL     1       2.086   4.577  20.089  0.00  0.00    +0.000 A 
ATOM     35  C   UNL     1       3.221   4.903  19.337  0.00  0.00    +0.000 A 
ENDBRANCH  24  29
ENDBRANCH   2  22
TORSDOF 5
ENDMDL
MODEL 8
REMARK VINA RESULT:      -9.0      7.806      9.757
REMARK  Name = 
REMARK  5 active torsions:
REMARK  status: ('A' for Active; 'I' for Inactive)
REMARK    1  A    between atoms: C_2  and  C_21
REMARK    2  A    between atoms: N_3  and  C_4
REMARK    3  A    between atoms: C_7  and  O_8
REMARK    4  A    between atoms: O_8  and  C_9
REMARK    5  A    between atoms: N_23  and  C_24
REMARK                            x       y       z     vdW  Elec       q    Type
REMARK                         _______ _______ _______ _____ _____    ______ ____
ROOT
ATOM      1  O   UNL     1       2.041   8.205  18.780  0.00  0.00    +0.000 OA
ATOM      2  C   UNL     1       2.113   7.447  19.740  0.00  0.00    +0.000 C 
ATOM      3  N   UNL     1       1.644   7.699  21.020  0.00  0.00    +0.000 N 
ATOM      4  H   UNL     1       1.900   7.034  21.752  0.00  0.00    +0.000 HD
ENDROOT
BRANCH   3   5
ATOM      5  C   UNL     1       0.930   8.846  21.427  0.00  0.00    +0.000 A 
ATOM      6  C   UNL     1       0.049   8.855  22.512  0.00  0.00    +0.000 A 
ATOM      7  C   UNL     1      -0.681  10.004  22.836  0.00  0.00    +0.000 A 
ATOM      8  C   UNL     1      -0.538  11.162  22.076  0.00  0.00    +0.000 A 
ATOM      9  C   UNL     1       0.410  11.182  21.050  0.00  0.00    +0.000 A 
ATOM     10  F   UNL     1       0.672  12.309  20.370  0.00  0.00    +0.000 F 
ATOM     11  C   UNL     1       1.132  10.034  20.716  0.00  0.00    +0.000 A 
BRANCH   8  12
ATOM     12  O   UNL     1      -1.303  12.233  22.468  0.00  0.00    +0.000 OA
BRANCH  12  13
ATOM     13  C   UNL     1      -2.521  12.438  21.836  0.00  0.00    +0.000 A 
ATOM     14  N   UNL     1      -2.605  12.416  20.488  0.00  0.00    +0.000 NA
ATOM     15  C   UNL     1      -3.792  12.702  19.935  0.00  0.00    +0.000 A 
ATOM     16  N   UNL     1      -4.943  12.955  20.565  0.00  0.00    +0.000 NA
ATOM     17  C   UNL     1      -4.863  12.889  21.917  0.00  0.00    +0.000 A 
ATOM     18  C   UNL     1      -5.951  13.093  22.816  0.00  0.00    +0.000 A 
ATOM     19  C   UNL     1      -5.578  12.947  24.133  0.00  0.00    +0.000 A 
ATOM     20  S   UNL     1      -3.913  12.597  24.291  0.00  0.00    +0.000 S 
ATOM     21  C   UNL     1      -3.675  12.623  22.588  0.00  0.00    +0.000 A 
ENDBRANCH  12  13
ENDBRANCH   8  12
ENDBRANCH   3   5
BRANCH   2  22
ATOM     22  C   UNL     1       2.794   6.098  19.529  0.00  0.00    +0.000 A 
ATOM     23  N   UNL     1       3.603   5.998  18.510  0.00  0.00    +0.000 NA
ATOM     24  N   UNL     1       4.214   4.796  18.258  0.00  0.00    +0.000 N 
ATOM     25  C   UNL     1       3.888   3.655  18.963  0.00  0.00    +0.000 A 
ATOM     26  C   UNL     1       3.081   3.616  20.024  0.00  0.00    +0.000 A 
ATOM     27  C   UNL     1       2.535   4.910  20.431  0.00  0.00    +0.000 A 
ATOM     28  O   UNL     1       1.877   5.043  21.455  0.00  0.00    +0.000 OA
BRANCH  24  29
ATOM     29  C   UNL     1       5.157   4.810  17.178  0.00  0.00    +0.000 A 
ATOM     30  C   UNL     1       4.739   4.890  15.833  0.00  0.00    +0.000 A 
ATOM     31  C   UNL     1       5.665   4.930  14.784  0.00  0.00    +0.000 A 
ATOM     32  C   UNL     1       7.022   4.885  15.066  0.00  0.00    +0.000 A 
ATOM     33  F   UNL     1       7.906   4.937  14.061  0.00  0.00    +0.000 F 
ATOM     34  C   UNL     1       7.471   4.783  16.374  0.00  0.00    +0.000 A 
ATOM     35  C   UNL     1       6.543   4.735  17.421  0.00  0.00    +0.000 A 
ENDBRANCH  24  29
ENDBRANCH   2  22
TORSDOF 5
ENDMDL
MODEL 9
REMARK VINA RESULT:      -9.0      0.851      1.430
REMARK  Name = 
REMARK  5 active torsions:
REMARK  status: ('A' for Active; 'I' for Inactive)
REMARK    1  A    between atoms: C_2  and  C_21
REMARK    2  A    between atoms: N_3  and  C_4
REMARK    3  A    between atoms: C_7  and  O_8
REMARK    4  A    between atoms: O_8  and  C_9
REMARK    5  A    between atoms: N_23  and  C_24
REMARK                            x       y       z     vdW  Elec       q    Type
REMARK                         _______ _______ _______ _____ _____    ______ ____
ROOT
ATOM      1  O   UNL     1       8.221   6.783  18.871  0.00  0.00    +0.000 OA
ATOM      2  C   UNL     1       7.459   7.115  17.971  0.00  0.00    +0.000 C 
ATOM      3  N   UNL     1       7.284   8.398  17.477  0.00  0.00    +0.000 N 
ATOM      4  H   UNL     1       6.513   8.548  16.824  0.00  0.00    +0.000 HD
ENDROOT
BRANCH   3   5
ATOM      5  C   UNL     1       8.009   9.542  17.873  0.00  0.00    +0.000 A 
ATOM      6  C   UNL     1       7.905  10.777  17.227  0.00  0.00    +0.000 A 
ATOM      7  C   UNL     1       8.693  11.863  17.621  0.00  0.00    +0.000 A 
ATOM      8  C   UNL     1       9.599  11.728  18.671  0.00  0.00    +0.000 A 
ATOM      9  C   UNL     1       9.637  10.522  19.376  0.00  0.00    +0.000 A 
ATOM     10  F   UNL     1      10.403  10.383  20.468  0.00  0.00    +0.000 F 
ATOM     11  C   UNL     1       8.860   9.432  18.978  0.00  0.00    +0.000 A 
BRANCH   8  12
ATOM     12  O   UNL     1      10.331  12.848  18.977  0.00  0.00    +0.000 OA
BRANCH  12  13
ATOM     13  C   UNL     1       9.649  14.014  19.292  0.00  0.00    +0.000 A 
ATOM     14  N   UNL     1       8.764  14.035  20.313  0.00  0.00    +0.000 NA
ATOM     15  C   UNL     1       8.077  15.167  20.516  0.00  0.00    +0.000 A 
ATOM     16  N   UNL     1       8.202  16.323  19.858  0.00  0.00    +0.000 NA
ATOM     17  C   UNL     1       9.154  16.314  18.893  0.00  0.00    +0.000 A 
ATOM     18  C   UNL     1       9.499  17.424  18.067  0.00  0.00    +0.000 A 
ATOM     19  C   UNL     1      10.514  17.128  17.186  0.00  0.00    +0.000 A 
ATOM     20  S   UNL     1      11.031  15.505  17.329  0.00  0.00    +0.000 S 
ATOM     21  C   UNL     1       9.905  15.185  18.588  0.00  0.00    +0.000 A 
ENDBRANCH  12  13
ENDBRANCH   8  12
ENDBRANCH   3   5
BRANCH   2  22
ATOM     22  C   UNL     1       6.602   6.026  17.331  0.00  0.00    +0.000 A 
ATOM     23  N   UNL     1       5.563   5.620  18.006  0.00  0.00    +0.000 NA
ATOM     24  N   UNL     1       4.780   4.618  17.488  0.00  0.00    +0.000 N 
ATOM     25  C   UNL     1       5.142   3.933  16.345  0.00  0.00    +0.000 A 
ATOM     26  C   UNL     1       6.174   4.245  15.561  0.00  0.00    +0.000 A 
ATOM     27  C   UNL     1       6.942   5.413  15.989  0.00  0.00    +0.000 A 
ATOM     28  O   UNL     1       7.841   5.884  15.304  0.00  0.00    +0.000 OA
BRANCH  24  29
ATOM     29  C   UNL     1       3.609   4.306  18.254  0.00  0.00    +0.000 A 
ATOM     30  C   UNL     1       2.550   3.550  17.712  0.00  0.00    +0.000 A 
ATOM     31  C   UNL     1       1.421   3.227  18.473  0.00  0.00    +0.000 A 
ATOM     32  C   UNL     1       1.335   3.660  19.788  0.00  0.00    +0.000 A 
ATOM     33  F   UNL     1       0.259   3.338  20.518  0.00  0.00    +0.000 F 
ATOM     34  C   UNL     1       2.345   4.425  20.350  0.00  0.00    +0.000 A 
ATOM     35  C   UNL     1       3.470   4.754  19.584  0.00  0.00    +0.000 A 
ENDBRANCH  24  29
ENDBRANCH   2  22
TORSDOF 5
ENDMDL
