MODEL 1
REMARK VINA RESULT:      -8.2      0.000      0.000
REMARK  Name = 
REMARK  8 active torsions:
REMARK  status: ('A' for Active; 'I' for Inactive)
REMARK    1  A    between atoms: C_2  and  C_25
REMARK    2  A    between atoms: N_3  and  C_4
REMARK    3  A    between atoms: C_4  and  C_5
REMARK    4  A    between atoms: C_5  and  C_6
REMARK    5  A    between atoms: C_6  and  N_7
REMARK    6  A    between atoms: N_7  and  C_8
REMARK    7  A    between atoms: N_11  and  C_12
REMARK    8  A    between atoms: C_21  and  C_22
REMARK                            x       y       z     vdW  Elec       q    Type
REMARK                         _______ _______ _______ _____ _____    ______ ____
ROOT
ATOM      1  C   UNL     1       3.427   5.125  18.454  0.00  0.00    +0.000 A 
ATOM      2  N   UNL     1       4.479   4.999  17.631  0.00  0.00    +0.000 NA
ATOM      3  C   UNL     1       5.499   4.203  17.970  0.00  0.00    +0.000 A 
ATOM      4  N   UNL     1       6.557   4.047  17.079  0.00  0.00    +0.000 N 
ATOM      5  N   UNL     1       5.558   3.544  19.127  0.00  0.00    +0.000 NA
ATOM      6  C   UNL     1       4.499   3.706  19.949  0.00  0.00    +0.000 A 
ATOM      7  C   UNL     1       3.385   4.501  19.698  0.00  0.00    +0.000 A 
ATOM      8  H   UNL     1       7.288   3.466  17.456  0.00  0.00    +0.000 HD
ENDROOT
BRANCH   4   9
ATOM      9  C   UNL     1       6.543   4.257  15.690  0.00  0.00    +0.000 A 
ATOM     10  C   UNL     1       5.561   3.644  14.901  0.00  0.00    +0.000 A 
ATOM     11  C   UNL     1       5.599   3.743  13.505  0.00  0.00    +0.000 A 
ATOM     12  C   UNL     1       6.611   4.472  12.883  0.00  0.00    +0.000 A 
ATOM     13  C   UNL     1       7.568   5.103  13.661  0.00  0.00    +0.000 A 
ATOM     14  F   UNL     1       8.542   5.809  13.072  0.00  0.00    +0.000 F 
ATOM     15  C   UNL     1       7.542   5.001  15.046  0.00  0.00    +0.000 A 
ENDBRANCH   4   9
BRANCH   7  16
ATOM     16  C   UNL     1       2.249   4.575  20.697  0.00  0.00    +0.000 C 
ATOM     17  C   UNL     1       1.036   3.686  20.495  0.00  0.00    +0.000 C 
ATOM     18  C   UNL     1       1.940   3.461  21.667  0.00  0.00    +0.000 C 
ENDBRANCH   7  16
BRANCH   1  19
ATOM     19  N   UNL     1       2.352   5.923  18.016  0.00  0.00    +0.000 N 
ATOM     20  H   UNL     1       2.359   5.950  17.000  0.00  0.00    +0.000 HD
BRANCH  19  21
ATOM     21  C   UNL     1       2.300   7.266  18.606  0.00  0.00    +0.000 C 
BRANCH  21  22
ATOM     22  C   UNL     1       2.554   8.333  17.537  0.00  0.00    +0.000 C 
BRANCH  22  23
ATOM     23  C   UNL     1       2.101   9.716  17.991  0.00  0.00    +0.000 C 
BRANCH  23  26
ATOM     24  O   UNL     1       0.163  10.093  19.983  0.00  0.00    +0.000 OA
ATOM     25  C   UNL     1      -0.206  10.108  18.807  0.00  0.00    +0.000 C 
ATOM     26  N   UNL     1       0.682   9.918  17.764  0.00  0.00    +0.000 N 
ATOM     27  H   UNL     1       0.336   9.894  16.815  0.00  0.00    +0.000 HD
BRANCH  25  28
ATOM     28  C   UNL     1      -1.675  10.338  18.349  0.00  0.00    +0.000 C 
ATOM     29  C   UNL     1      -2.052  11.764  17.859  0.00  0.00    +0.000 C 
ATOM     30  C   UNL     1      -2.964  11.095  16.813  0.00  0.00    +0.000 C 
ATOM     31  C   UNL     1      -2.064   9.850  16.924  0.00  0.00    +0.000 C 
ENDBRANCH  25  28
ENDBRANCH  23  26
ENDBRANCH  22  23
ENDBRANCH  21  22
ENDBRANCH  19  21
ENDBRANCH   1  19
TORSDOF 8
ENDMDL
MODEL 2
REMARK VINA RESULT:      -7.9      0.885      1.257
REMARK  Name = 
REMARK  8 active torsions:
REMARK  status: ('A' for Active; 'I' for Inactive)
REMARK    1  A    between atoms: C_2  and  C_25
REMARK    2  A    between atoms: N_3  and  C_4
REMARK    3  A    between atoms: C_4  and  C_5
REMARK    4  A    between atoms: C_5  and  C_6
REMARK    5  A    between atoms: C_6  and  N_7
REMARK    6  A    between atoms: N_7  and  C_8
REMARK    7  A    between atoms: N_11  and  C_12
REMARK    8  A    between atoms: C_21  and  C_22
REMARK                            x       y       z     vdW  Elec       q    Type
REMARK                         _______ _______ _______ _____ _____    ______ ____
ROOT
ATOM      1  C   UNL     1       3.271   4.993  18.619  0.00  0.00    +0.000 A 
ATOM      2  N   UNL     1       4.405   4.888  17.909  0.00  0.00    +0.000 NA
ATOM      3  C   UNL     1       5.346   4.013  18.283  0.00  0.00    +0.000 A 
ATOM      4  N   UNL     1       6.492   3.884  17.503  0.00  0.00    +0.000 N 
ATOM      5  N   UNL     1       5.245   3.251  19.371  0.00  0.00    +0.000 NA
ATOM      6  C   UNL     1       4.105   3.393  20.082  0.00  0.00    +0.000 A 
ATOM      7  C   UNL     1       3.061   4.263  19.787  0.00  0.00    +0.000 A 
ATOM      8  H   UNL     1       7.150   3.235  17.902  0.00  0.00    +0.000 HD
ENDROOT
BRANCH   4   9
ATOM      9  C   UNL     1       6.647   4.218  16.148  0.00  0.00    +0.000 A 
ATOM     10  C   UNL     1       7.488   5.277  15.781  0.00  0.00    +0.000 A 
ATOM     11  C   UNL     1       7.565   5.702  14.449  0.00  0.00    +0.000 A 
ATOM     12  C   UNL     1       6.813   5.062  13.466  0.00  0.00    +0.000 A 
ATOM     13  C   UNL     1       6.001   3.996  13.821  0.00  0.00    +0.000 A 
ATOM     14  F   UNL     1       5.278   3.373  12.881  0.00  0.00    +0.000 F 
ATOM     15  C   UNL     1       5.913   3.575  15.140  0.00  0.00    +0.000 A 
ENDBRANCH   4   9
BRANCH   7  16
ATOM     16  C   UNL     1       1.822   4.305  20.656  0.00  0.00    +0.000 C 
ATOM     17  C   UNL     1       0.636   3.434  20.284  0.00  0.00    +0.000 C 
ATOM     18  C   UNL     1       1.403   3.155  21.539  0.00  0.00    +0.000 C 
ENDBRANCH   7  16
BRANCH   1  19
ATOM     19  N   UNL     1       2.287   5.882  18.143  0.00  0.00    +0.000 N 
ATOM     20  H   UNL     1       2.302   5.870  17.127  0.00  0.00    +0.000 HD
BRANCH  19  21
ATOM     21  C   UNL     1       2.371   7.243  18.683  0.00  0.00    +0.000 C 
BRANCH  21  22
ATOM     22  C   UNL     1       2.396   8.271  17.548  0.00  0.00    +0.000 C 
BRANCH  22  23
ATOM     23  C   UNL     1       2.067   9.675  18.042  0.00  0.00    +0.000 C 
BRANCH  23  26
ATOM     24  O   UNL     1       0.091   9.767  20.030  0.00  0.00    +0.000 OA
ATOM     25  C   UNL     1      -0.239  10.039  18.873  0.00  0.00    +0.000 C 
ATOM     26  N   UNL     1       0.670  10.006  17.832  0.00  0.00    +0.000 N 
ATOM     27  H   UNL     1       0.354  10.193  16.890  0.00  0.00    +0.000 HD
BRANCH  25  28
ATOM     28  C   UNL     1      -1.678  10.445  18.441  0.00  0.00    +0.000 C 
ATOM     29  C   UNL     1      -1.844  11.813  17.724  0.00  0.00    +0.000 C 
ATOM     30  C   UNL     1      -2.926  11.153  16.849  0.00  0.00    +0.000 C 
ATOM     31  C   UNL     1      -2.241   9.804  17.141  0.00  0.00    +0.000 C 
ENDBRANCH  25  28
ENDBRANCH  23  26
ENDBRANCH  22  23
ENDBRANCH  21  22
ENDBRANCH  19  21
ENDBRANCH   1  19
TORSDOF 8
ENDMDL
MODEL 3
REMARK VINA RESULT:      -7.8      3.092      5.102
REMARK  Name = 
REMARK  8 active torsions:
REMARK  status: ('A' for Active; 'I' for Inactive)
REMARK    1  A    between atoms: C_2  and  C_25
REMARK    2  A    between atoms: N_3  and  C_4
REMARK    3  A    between atoms: C_4  and  C_5
REMARK    4  A    between atoms: C_5  and  C_6
REMARK    5  A    between atoms: C_6  and  N_7
REMARK    6  A    between atoms: N_7  and  C_8
REMARK    7  A    between atoms: N_11  and  C_12
REMARK    8  A    between atoms: C_21  and  C_22
REMARK                            x       y       z     vdW  Elec       q    Type
REMARK                         _______ _______ _______ _____ _____    ______ ____
ROOT
ATOM      1  C   UNL     1       5.409   6.349  17.545  0.00  0.00    +0.000 A 
ATOM      2  N   UNL     1       4.802   5.209  17.911  0.00  0.00    +0.000 NA
ATOM      3  C   UNL     1       5.522   4.207  18.429  0.00  0.00    +0.000 A 
ATOM      4  N   UNL     1       4.866   3.053  18.849  0.00  0.00    +0.000 N 
ATOM      5  N   UNL     1       6.847   4.255  18.568  0.00  0.00    +0.000 NA
ATOM      6  C   UNL     1       7.437   5.403  18.170  0.00  0.00    +0.000 A 
ATOM      7  C   UNL     1       6.790   6.507  17.624  0.00  0.00    +0.000 A 
ATOM      8  H   UNL     1       5.507   2.351  19.177  0.00  0.00    +0.000 HD
ENDROOT
BRANCH   4   9
ATOM      9  C   UNL     1       3.515   2.921  19.210  0.00  0.00    +0.000 A 
ATOM     10  C   UNL     1       2.534   2.810  18.216  0.00  0.00    +0.000 A 
ATOM     11  C   UNL     1       1.174   2.796  18.549  0.00  0.00    +0.000 A 
ATOM     12  C   UNL     1       0.781   2.878  19.883  0.00  0.00    +0.000 A 
ATOM     13  C   UNL     1       1.749   2.960  20.872  0.00  0.00    +0.000 A 
ATOM     14  F   UNL     1       1.380   3.035  22.157  0.00  0.00    +0.000 F 
ATOM     15  C   UNL     1       3.099   2.983  20.548  0.00  0.00    +0.000 A 
ENDBRANCH   4   9
BRANCH   7  16
ATOM     16  C   UNL     1       7.570   7.747  17.242  0.00  0.00    +0.000 C 
ATOM     17  C   UNL     1       7.170   9.080  17.847  0.00  0.00    +0.000 C 
ATOM     18  C   UNL     1       8.487   8.464  18.204  0.00  0.00    +0.000 C 
ENDBRANCH   7  16
BRANCH   1  19
ATOM     19  N   UNL     1       4.594   7.393  17.067  0.00  0.00    +0.000 N 
ATOM     20  H   UNL     1       4.896   8.264  17.496  0.00  0.00    +0.000 HD
BRANCH  19  21
ATOM     21  C   UNL     1       3.152   7.171  17.219  0.00  0.00    +0.000 C 
BRANCH  21  22
ATOM     22  C   UNL     1       2.591   8.035  18.353  0.00  0.00    +0.000 C 
BRANCH  22  23
ATOM     23  C   UNL     1       2.326   9.467  17.903  0.00  0.00    +0.000 C 
BRANCH  23  26
ATOM     24  O   UNL     1       0.590  10.292  19.944  0.00  0.00    +0.000 OA
ATOM     25  C   UNL     1       0.123  10.145  18.813  0.00  0.00    +0.000 C 
ATOM     26  N   UNL     1       0.907   9.729  17.752  0.00  0.00    +0.000 N 
ATOM     27  H   UNL     1       0.481   9.578  16.848  0.00  0.00    +0.000 HD
BRANCH  25  28
ATOM     28  C   UNL     1      -1.364  10.401  18.433  0.00  0.00    +0.000 C 
ATOM     29  C   UNL     1      -1.720  11.799  17.857  0.00  0.00    +0.000 C 
ATOM     30  C   UNL     1      -2.725  11.092  16.928  0.00  0.00    +0.000 C 
ATOM     31  C   UNL     1      -1.866   9.822  17.080  0.00  0.00    +0.000 C 
ENDBRANCH  25  28
ENDBRANCH  23  26
ENDBRANCH  22  23
ENDBRANCH  21  22
ENDBRANCH  19  21
ENDBRANCH   1  19
TORSDOF 8
ENDMDL
MODEL 4
REMARK VINA RESULT:      -7.7      2.946      5.158
REMARK  Name = 
REMARK  8 active torsions:
REMARK  status: ('A' for Active; 'I' for Inactive)
REMARK    1  A    between atoms: C_2  and  C_25
REMARK    2  A    between atoms: N_3  and  C_4
REMARK    3  A    between atoms: C_4  and  C_5
REMARK    4  A    between atoms: C_5  and  C_6
REMARK    5  A    between atoms: C_6  and  N_7
REMARK    6  A    between atoms: N_7  and  C_8
REMARK    7  A    between atoms: N_11  and  C_12
REMARK    8  A    between atoms: C_21  and  C_22
REMARK                            x       y       z     vdW  Elec       q    Type
REMARK                         _______ _______ _______ _____ _____    ______ ____
ROOT
ATOM      1  C   UNL     1       5.473   6.457  17.668  0.00  0.00    +0.000 A 
ATOM      2  N   UNL     1       4.840   5.356  18.102  0.00  0.00    +0.000 NA
ATOM      3  C   UNL     1       5.540   4.358  18.653  0.00  0.00    +0.000 A 
ATOM      4  N   UNL     1       4.858   3.248  19.142  0.00  0.00    +0.000 N 
ATOM      5  N   UNL     1       6.868   4.370  18.761  0.00  0.00    +0.000 NA
ATOM      6  C   UNL     1       7.484   5.478  18.295  0.00  0.00    +0.000 A 
ATOM      7  C   UNL     1       6.861   6.574  17.709  0.00  0.00    +0.000 A 
ATOM      8  H   UNL     1       5.484   2.541  19.490  0.00  0.00    +0.000 HD
ENDROOT
BRANCH   4   9
ATOM      9  C   UNL     1       3.512   3.177  19.538  0.00  0.00    +0.000 A 
ATOM     10  C   UNL     1       3.130   3.645  20.802  0.00  0.00    +0.000 A 
ATOM     11  C   UNL     1       1.818   3.477  21.262  0.00  0.00    +0.000 A 
ATOM     12  C   UNL     1       0.869   2.852  20.456  0.00  0.00    +0.000 A 
ATOM     13  C   UNL     1       1.236   2.412  19.193  0.00  0.00    +0.000 A 
ATOM     14  F   UNL     1       0.329   1.815  18.410  0.00  0.00    +0.000 F 
ATOM     15  C   UNL     1       2.537   2.568  18.734  0.00  0.00    +0.000 A 
ENDBRANCH   4   9
BRANCH   7  16
ATOM     16  C   UNL     1       7.670   7.769  17.251  0.00  0.00    +0.000 C 
ATOM     17  C   UNL     1       7.248   9.156  17.700  0.00  0.00    +0.000 C 
ATOM     18  C   UNL     1       8.539   8.575  18.186  0.00  0.00    +0.000 C 
ENDBRANCH   7  16
BRANCH   1  19
ATOM     19  N   UNL     1       4.681   7.503  17.157  0.00  0.00    +0.000 N 
ATOM     20  H   UNL     1       4.953   8.371  17.613  0.00  0.00    +0.000 HD
BRANCH  19  21
ATOM     21  C   UNL     1       3.234   7.272  17.224  0.00  0.00    +0.000 C 
BRANCH  21  22
ATOM     22  C   UNL     1       2.604   8.120  18.333  0.00  0.00    +0.000 C 
BRANCH  22  23
ATOM     23  C   UNL     1       2.110   9.465  17.813  0.00  0.00    +0.000 C 
BRANCH  23  26
ATOM     24  O   UNL     1       0.460  11.127  19.355  0.00  0.00    +0.000 OA
ATOM     25  C   UNL     1      -0.078  10.377  18.538  0.00  0.00    +0.000 C 
ATOM     26  N   UNL     1       0.661   9.516  17.747  0.00  0.00    +0.000 N 
ATOM     27  H   UNL     1       0.183   8.884  17.119  0.00  0.00    +0.000 HD
BRANCH  25  28
ATOM     28  C   UNL     1      -1.612  10.298  18.292  0.00  0.00    +0.000 C 
ATOM     29  C   UNL     1      -2.375  11.641  18.126  0.00  0.00    +0.000 C 
ATOM     30  C   UNL     1      -3.256  10.939  17.075  0.00  0.00    +0.000 C 
ATOM     31  C   UNL     1      -2.088   9.960  16.850  0.00  0.00    +0.000 C 
ENDBRANCH  25  28
ENDBRANCH  23  26
ENDBRANCH  22  23
ENDBRANCH  21  22
ENDBRANCH  19  21
ENDBRANCH   1  19
TORSDOF 8
ENDMDL
MODEL 5
REMARK VINA RESULT:      -7.7      1.608      2.206
REMARK  Name = 
REMARK  8 active torsions:
REMARK  status: ('A' for Active; 'I' for Inactive)
REMARK    1  A    between atoms: C_2  and  C_25
REMARK    2  A    between atoms: N_3  and  C_4
REMARK    3  A    between atoms: C_4  and  C_5
REMARK    4  A    between atoms: C_5  and  C_6
REMARK    5  A    between atoms: C_6  and  N_7
REMARK    6  A    between atoms: N_7  and  C_8
REMARK    7  A    between atoms: N_11  and  C_12
REMARK    8  A    between atoms: C_21  and  C_22
REMARK                            x       y       z     vdW  Elec       q    Type
REMARK                         _______ _______ _______ _____ _____    ______ ____
ROOT
ATOM      1  C   UNL     1       3.516   5.351  18.303  0.00  0.00    +0.000 A 
ATOM      2  N   UNL     1       4.558   5.152  17.480  0.00  0.00    +0.000 NA
ATOM      3  C   UNL     1       5.525   4.294  17.824  0.00  0.00    +0.000 A 
ATOM      4  N   UNL     1       6.570   4.066  16.933  0.00  0.00    +0.000 N 
ATOM      5  N   UNL     1       5.542   3.639  18.984  0.00  0.00    +0.000 NA
ATOM      6  C   UNL     1       4.496   3.874  19.805  0.00  0.00    +0.000 A 
ATOM      7  C   UNL     1       3.435   4.737  19.551  0.00  0.00    +0.000 A 
ATOM      8  H   UNL     1       7.262   3.441  17.313  0.00  0.00    +0.000 HD
ENDROOT
BRANCH   4   9
ATOM      9  C   UNL     1       6.569   4.269  15.543  0.00  0.00    +0.000 A 
ATOM     10  C   UNL     1       5.611   3.630  14.745  0.00  0.00    +0.000 A 
ATOM     11  C   UNL     1       5.664   3.724  13.349  0.00  0.00    +0.000 A 
ATOM     12  C   UNL     1       6.668   4.472  12.736  0.00  0.00    +0.000 A 
ATOM     13  C   UNL     1       7.600   5.129  13.524  0.00  0.00    +0.000 A 
ATOM     14  F   UNL     1       8.565   5.854  12.943  0.00  0.00    +0.000 F 
ATOM     15  C   UNL     1       7.559   5.033  14.908  0.00  0.00    +0.000 A 
ENDBRANCH   4   9
BRANCH   7  16
ATOM     16  C   UNL     1       2.307   4.889  20.549  0.00  0.00    +0.000 C 
ATOM     17  C   UNL     1       0.992   4.180  20.283  0.00  0.00    +0.000 C 
ATOM     18  C   UNL     1       1.846   3.761  21.440  0.00  0.00    +0.000 C 
ENDBRANCH   7  16
BRANCH   1  19
ATOM     19  N   UNL     1       2.495   6.214  17.861  0.00  0.00    +0.000 N 
ATOM     20  H   UNL     1       2.247   5.964  16.907  0.00  0.00    +0.000 HD
BRANCH  19  21
ATOM     21  C   UNL     1       2.792   7.644  18.001  0.00  0.00    +0.000 C 
BRANCH  21  22
ATOM     22  C   UNL     1       1.594   8.488  17.555  0.00  0.00    +0.000 C 
BRANCH  22  23
ATOM     23  C   UNL     1       1.669   9.914  18.090  0.00  0.00    +0.000 C 
BRANCH  23  26
ATOM     24  O   UNL     1      -0.076  11.640  19.445  0.00  0.00    +0.000 OA
ATOM     25  C   UNL     1       0.578  10.838  20.114  0.00  0.00    +0.000 C 
ATOM     26  N   UNL     1       1.471   9.960  19.527  0.00  0.00    +0.000 N 
ATOM     27  H   UNL     1       2.022   9.346  20.111  0.00  0.00    +0.000 HD
BRANCH  25  28
ATOM     28  C   UNL     1       0.492  10.706  21.662  0.00  0.00    +0.000 C 
ATOM     29  C   UNL     1      -0.917  10.812  22.307  0.00  0.00    +0.000 C 
ATOM     30  C   UNL     1      -0.468   9.739  23.317  0.00  0.00    +0.000 C 
ATOM     31  C   UNL     1       0.553   9.272  22.261  0.00  0.00    +0.000 C 
ENDBRANCH  25  28
ENDBRANCH  23  26
ENDBRANCH  22  23
ENDBRANCH  21  22
ENDBRANCH  19  21
ENDBRANCH   1  19
TORSDOF 8
ENDMDL
MODEL 6
REMARK VINA RESULT:      -7.7      3.149      5.148
REMARK  Name = 
REMARK  8 active torsions:
REMARK  status: ('A' for Active; 'I' for Inactive)
REMARK    1  A    between atoms: C_2  and  C_25
REMARK    2  A    between atoms: N_3  and  C_4
REMARK    3  A    between atoms: C_4  and  C_5
REMARK    4  A    between atoms: C_5  and  C_6
REMARK    5  A    between atoms: C_6  and  N_7
REMARK    6  A    between atoms: N_7  and  C_8
REMARK    7  A    between atoms: N_11  and  C_12
REMARK    8  A    between atoms: C_21  and  C_22
REMARK                            x       y       z     vdW  Elec       q    Type
REMARK                         _______ _______ _______ _____ _____    ______ ____
ROOT
ATOM      1  C   UNL     1       6.131   6.371  17.476  0.00  0.00    +0.000 A 
ATOM      2  N   UNL     1       5.505   5.276  17.934  0.00  0.00    +0.000 NA
ATOM      3  C   UNL     1       6.009   4.606  18.976  0.00  0.00    +0.000 A 
ATOM      4  N   UNL     1       5.317   3.502  19.466  0.00  0.00    +0.000 N 
ATOM      5  N   UNL     1       7.151   4.941  19.577  0.00  0.00    +0.000 NA
ATOM      6  C   UNL     1       7.774   6.032  19.083  0.00  0.00    +0.000 A 
ATOM      7  C   UNL     1       7.342   6.806  18.011  0.00  0.00    +0.000 A 
ATOM      8  H   UNL     1       5.809   3.048  20.217  0.00  0.00    +0.000 HD
ENDROOT
BRANCH   4   9
ATOM      9  C   UNL     1       3.950   3.215  19.316  0.00  0.00    +0.000 A 
ATOM     10  C   UNL     1       3.528   2.322  18.322  0.00  0.00    +0.000 A 
ATOM     11  C   UNL     1       2.166   2.112  18.079  0.00  0.00    +0.000 A 
ATOM     12  C   UNL     1       1.208   2.782  18.838  0.00  0.00    +0.000 A 
ATOM     13  C   UNL     1       1.622   3.645  19.841  0.00  0.00    +0.000 A 
ATOM     14  F   UNL     1       0.708   4.290  20.579  0.00  0.00    +0.000 F 
ATOM     15  C   UNL     1       2.971   3.865  20.082  0.00  0.00    +0.000 A 
ENDBRANCH   4   9
BRANCH   7  16
ATOM     16  C   UNL     1       8.125   8.025  17.573  0.00  0.00    +0.000 C 
ATOM     17  C   UNL     1       7.533   9.402  17.813  0.00  0.00    +0.000 C 
ATOM     18  C   UNL     1       8.766   8.980  18.551  0.00  0.00    +0.000 C 
ENDBRANCH   7  16
BRANCH   1  19
ATOM     19  N   UNL     1       5.521   7.075  16.420  0.00  0.00    +0.000 N 
ATOM     20  H   UNL     1       5.940   8.000  16.360  0.00  0.00    +0.000 HD
BRANCH  19  21
ATOM     21  C   UNL     1       4.056   7.133  16.482  0.00  0.00    +0.000 C 
BRANCH  21  22
ATOM     22  C   UNL     1       3.602   8.161  17.522  0.00  0.00    +0.000 C 
BRANCH  22  23
ATOM     23  C   UNL     1       2.165   7.923  17.970  0.00  0.00    +0.000 C 
BRANCH  23  26
ATOM     24  O   UNL     1       1.109   8.690  20.453  0.00  0.00    +0.000 OA
ATOM     25  C   UNL     1       0.994   9.474  19.509  0.00  0.00    +0.000 C 
ATOM     26  N   UNL     1       1.475   9.170  18.248  0.00  0.00    +0.000 N 
ATOM     27  H   UNL     1       1.325   9.819  17.488  0.00  0.00    +0.000 HD
BRANCH  25  28
ATOM     28  C   UNL     1       0.316  10.872  19.602  0.00  0.00    +0.000 C 
ATOM     29  C   UNL     1       1.023  12.055  18.885  0.00  0.00    +0.000 C 
ATOM     30  C   UNL     1      -0.376  12.592  18.526  0.00  0.00    +0.000 C 
ATOM     31  C   UNL     1      -0.889  11.145  18.658  0.00  0.00    +0.000 C 
ENDBRANCH  25  28
ENDBRANCH  23  26
ENDBRANCH  22  23
ENDBRANCH  21  22
ENDBRANCH  19  21
ENDBRANCH   1  19
TORSDOF 8
ENDMDL
MODEL 7
REMARK VINA RESULT:      -7.6      3.480      5.526
REMARK  Name = 
REMARK  8 active torsions:
REMARK  status: ('A' for Active; 'I' for Inactive)
REMARK    1  A    between atoms: C_2  and  C_25
REMARK    2  A    between atoms: N_3  and  C_4
REMARK    3  A    between atoms: C_4  and  C_5
REMARK    4  A    between atoms: C_5  and  C_6
REMARK    5  A    between atoms: C_6  and  N_7
REMARK    6  A    between atoms: N_7  and  C_8
REMARK    7  A    between atoms: N_11  and  C_12
REMARK    8  A    between atoms: C_21  and  C_22
REMARK                            x       y       z     vdW  Elec       q    Type
REMARK                         _______ _______ _______ _____ _____    ______ ____
ROOT
ATOM      1  C   UNL     1       5.481   6.093  17.420  0.00  0.00    +0.000 A 
ATOM      2  N   UNL     1       4.911   4.982  17.911  0.00  0.00    +0.000 NA
ATOM      3  C   UNL     1       5.599   4.191  18.743  0.00  0.00    +0.000 A 
ATOM      4  N   UNL     1       4.971   3.070  19.280  0.00  0.00    +0.000 N 
ATOM      5  N   UNL     1       6.866   4.421  19.089  0.00  0.00    +0.000 NA
ATOM      6  C   UNL     1       7.425   5.532  18.563  0.00  0.00    +0.000 A 
ATOM      7  C   UNL     1       6.806   6.426  17.695  0.00  0.00    +0.000 A 
ATOM      8  H   UNL     1       5.595   2.525  19.851  0.00  0.00    +0.000 HD
ENDROOT
BRANCH   4   9
ATOM      9  C   UNL     1       3.592   2.852  19.428  0.00  0.00    +0.000 A 
ATOM     10  C   UNL     1       2.778   2.732  18.294  0.00  0.00    +0.000 A 
ATOM     11  C   UNL     1       1.387   2.632  18.417  0.00  0.00    +0.000 A 
ATOM     12  C   UNL     1       0.795   2.636  19.679  0.00  0.00    +0.000 A 
ATOM     13  C   UNL     1       1.599   2.726  20.804  0.00  0.00    +0.000 A 
ATOM     14  F   UNL     1       1.039   2.726  22.021  0.00  0.00    +0.000 F 
ATOM     15  C   UNL     1       2.979   2.834  20.689  0.00  0.00    +0.000 A 
ENDBRANCH   4   9
BRANCH   7  16
ATOM     16  C   UNL     1       7.540   7.653  17.198  0.00  0.00    +0.000 C 
ATOM     17  C   UNL     1       7.131   9.016  17.724  0.00  0.00    +0.000 C 
ATOM     18  C   UNL     1       8.475   8.456  18.070  0.00  0.00    +0.000 C 
ENDBRANCH   7  16
BRANCH   1  19
ATOM     19  N   UNL     1       4.689   6.923  16.603  0.00  0.00    +0.000 N 
ATOM     20  H   UNL     1       5.267   7.284  15.848  0.00  0.00    +0.000 HD
BRANCH  19  21
ATOM     21  C   UNL     1       3.976   7.990  17.314  0.00  0.00    +0.000 C 
BRANCH  21  22
ATOM     22  C   UNL     1       2.575   7.524  17.718  0.00  0.00    +0.000 C 
BRANCH  22  23
ATOM     23  C   UNL     1       1.629   8.695  17.955  0.00  0.00    +0.000 C 
BRANCH  23  26
ATOM     24  O   UNL     1      -0.063  10.646  19.050  0.00  0.00    +0.000 OA
ATOM     25  C   UNL     1       0.592   9.947  19.826  0.00  0.00    +0.000 C 
ATOM     26  N   UNL     1       1.459   8.971  19.370  0.00  0.00    +0.000 N 
ATOM     27  H   UNL     1       2.011   8.447  20.034  0.00  0.00    +0.000 HD
BRANCH  25  28
ATOM     28  C   UNL     1       0.533  10.062  21.377  0.00  0.00    +0.000 C 
ATOM     29  C   UNL     1      -0.486  11.068  21.977  0.00  0.00    +0.000 C 
ATOM     30  C   UNL     1      -0.718  10.059  23.117  0.00  0.00    +0.000 C 
ATOM     31  C   UNL     1      -0.248   8.959  22.146  0.00  0.00    +0.000 C 
ENDBRANCH  25  28
ENDBRANCH  23  26
ENDBRANCH  22  23
ENDBRANCH  21  22
ENDBRANCH  19  21
ENDBRANCH   1  19
TORSDOF 8
ENDMDL
MODEL 8
REMARK VINA RESULT:      -7.6      1.761      2.262
REMARK  Name = 
REMARK  8 active torsions:
REMARK  status: ('A' for Active; 'I' for Inactive)
REMARK    1  A    between atoms: C_2  and  C_25
REMARK    2  A    between atoms: N_3  and  C_4
REMARK    3  A    between atoms: C_4  and  C_5
REMARK    4  A    between atoms: C_5  and  C_6
REMARK    5  A    between atoms: C_6  and  N_7
REMARK    6  A    between atoms: N_7  and  C_8
REMARK    7  A    between atoms: N_11  and  C_12
REMARK    8  A    between atoms: C_21  and  C_22
REMARK                            x       y       z     vdW  Elec       q    Type
REMARK                         _______ _______ _______ _____ _____    ______ ____
ROOT
ATOM      1  C   UNL     1       3.603   5.505  18.127  0.00  0.00    +0.000 A 
ATOM      2  N   UNL     1       4.639   5.255  17.311  0.00  0.00    +0.000 NA
ATOM      3  C   UNL     1       5.581   4.381  17.680  0.00  0.00    +0.000 A 
ATOM      4  N   UNL     1       6.620   4.098  16.797  0.00  0.00    +0.000 N 
ATOM      5  N   UNL     1       5.580   3.758  18.859  0.00  0.00    +0.000 NA
ATOM      6  C   UNL     1       4.541   4.045  19.671  0.00  0.00    +0.000 A 
ATOM      7  C   UNL     1       3.505   4.930  19.392  0.00  0.00    +0.000 A 
ATOM      8  H   UNL     1       7.294   3.466  17.195  0.00  0.00    +0.000 HD
ENDROOT
BRANCH   4   9
ATOM      9  C   UNL     1       6.625   4.262  15.402  0.00  0.00    +0.000 A 
ATOM     10  C   UNL     1       5.731   3.529  14.610  0.00  0.00    +0.000 A 
ATOM     11  C   UNL     1       5.798   3.588  13.213  0.00  0.00    +0.000 A 
ATOM     12  C   UNL     1       6.750   4.394  12.591  0.00  0.00    +0.000 A 
ATOM     13  C   UNL     1       7.617   5.142  13.372  0.00  0.00    +0.000 A 
ATOM     14  F   UNL     1       8.532   5.923  12.783  0.00  0.00    +0.000 F 
ATOM     15  C   UNL     1       7.562   5.082  14.758  0.00  0.00    +0.000 A 
ENDBRANCH   4   9
BRANCH   7  16
ATOM     16  C   UNL     1       2.381   5.142  20.385  0.00  0.00    +0.000 C 
ATOM     17  C   UNL     1       1.120   4.306  20.254  0.00  0.00    +0.000 C 
ATOM     18  C   UNL     1       2.018   4.123  21.438  0.00  0.00    +0.000 C 
ENDBRANCH   7  16
BRANCH   1  19
ATOM     19  N   UNL     1       2.606   6.384  17.661  0.00  0.00    +0.000 N 
ATOM     20  H   UNL     1       2.385   6.144  16.698  0.00  0.00    +0.000 HD
BRANCH  19  21
ATOM     21  C   UNL     1       2.915   7.809  17.819  0.00  0.00    +0.000 C 
BRANCH  21  22
ATOM     22  C   UNL     1       1.895   8.482  18.742  0.00  0.00    +0.000 C 
BRANCH  22  23
ATOM     23  C   UNL     1       1.085   9.550  18.017  0.00  0.00    +0.000 C 
BRANCH  23  26
ATOM     24  O   UNL     1       0.324  11.239  20.122  0.00  0.00    +0.000 OA
ATOM     25  C   UNL     1       1.183  11.645  19.337  0.00  0.00    +0.000 C 
ATOM     26  N   UNL     1       1.606  10.881  18.265  0.00  0.00    +0.000 N 
ATOM     27  H   UNL     1       2.281  11.264  17.617  0.00  0.00    +0.000 HD
BRANCH  25  28
ATOM     28  C   UNL     1       1.888  13.028  19.442  0.00  0.00    +0.000 C 
ATOM     29  C   UNL     1       2.849  13.425  18.287  0.00  0.00    +0.000 C 
ATOM     30  C   UNL     1       2.348  14.872  18.451  0.00  0.00    +0.000 C 
ATOM     31  C   UNL     1       1.058  14.284  19.054  0.00  0.00    +0.000 C 
ENDBRANCH  25  28
ENDBRANCH  23  26
ENDBRANCH  22  23
ENDBRANCH  21  22
ENDBRANCH  19  21
ENDBRANCH   1  19
TORSDOF 8
ENDMDL
MODEL 9
REMARK VINA RESULT:      -7.6      3.246      5.254
REMARK  Name = 
REMARK  8 active torsions:
REMARK  status: ('A' for Active; 'I' for Inactive)
REMARK    1  A    between atoms: C_2  and  C_25
REMARK    2  A    between atoms: N_3  and  C_4
REMARK    3  A    between atoms: C_4  and  C_5
REMARK    4  A    between atoms: C_5  and  C_6
REMARK    5  A    between atoms: C_6  and  N_7
REMARK    6  A    between atoms: N_7  and  C_8
REMARK    7  A    between atoms: N_11  and  C_12
REMARK    8  A    between atoms: C_21  and  C_22
REMARK                            x       y       z     vdW  Elec       q    Type
REMARK                         _______ _______ _______ _____ _____    ______ ____
ROOT
ATOM      1  C   UNL     1       6.115   6.392  17.451  0.00  0.00    +0.000 A 
ATOM      2  N   UNL     1       5.504   5.290  17.914  0.00  0.00    +0.000 NA
ATOM      3  C   UNL     1       6.030   4.619  18.945  0.00  0.00    +0.000 A 
ATOM      4  N   UNL     1       5.353   3.508  19.441  0.00  0.00    +0.000 N 
ATOM      5  N   UNL     1       7.179   4.960  19.529  0.00  0.00    +0.000 NA
ATOM      6  C   UNL     1       7.787   6.057  19.030  0.00  0.00    +0.000 A 
ATOM      7  C   UNL     1       7.331   6.833  17.968  0.00  0.00    +0.000 A 
ATOM      8  H   UNL     1       5.861   3.055  20.182  0.00  0.00    +0.000 HD
ENDROOT
BRANCH   4   9
ATOM      9  C   UNL     1       3.986   3.212  19.312  0.00  0.00    +0.000 A 
ATOM     10  C   UNL     1       3.561   2.277  18.360  0.00  0.00    +0.000 A 
ATOM     11  C   UNL     1       2.197   2.054  18.134  0.00  0.00    +0.000 A 
ATOM     12  C   UNL     1       1.243   2.754  18.870  0.00  0.00    +0.000 A 
ATOM     13  C   UNL     1       1.660   3.659  19.833  0.00  0.00    +0.000 A 
ATOM     14  F   UNL     1       0.750   4.332  20.549  0.00  0.00    +0.000 F 
ATOM     15  C   UNL     1       3.011   3.891  20.056  0.00  0.00    +0.000 A 
ENDBRANCH   4   9
BRANCH   7  16
ATOM     16  C   UNL     1       8.098   8.059  17.523  0.00  0.00    +0.000 C 
ATOM     17  C   UNL     1       7.507   9.432  17.789  0.00  0.00    +0.000 C 
ATOM     18  C   UNL     1       8.758   9.009  18.495  0.00  0.00    +0.000 C 
ENDBRANCH   7  16
BRANCH   1  19
ATOM     19  N   UNL     1       5.483   7.096  16.408  0.00  0.00    +0.000 N 
ATOM     20  H   UNL     1       5.915   8.012  16.325  0.00  0.00    +0.000 HD
BRANCH  19  21
ATOM     21  C   UNL     1       4.022   7.179  16.517  0.00  0.00    +0.000 C 
BRANCH  21  22
ATOM     22  C   UNL     1       3.620   8.061  17.703  0.00  0.00    +0.000 C 
BRANCH  22  23
ATOM     23  C   UNL     1       2.107   8.199  17.826  0.00  0.00    +0.000 C 
BRANCH  23  26
ATOM     24  O   UNL     1      -0.160   9.850  17.852  0.00  0.00    +0.000 OA
ATOM     25  C   UNL     1       0.590   9.881  18.830  0.00  0.00    +0.000 C 
ATOM     26  N   UNL     1       1.735   9.109  18.893  0.00  0.00    +0.000 N 
ATOM     27  H   UNL     1       2.348   9.193  19.692  0.00  0.00    +0.000 HD
BRANCH  25  28
ATOM     28  C   UNL     1       0.357  10.766  20.090  0.00  0.00    +0.000 C 
ATOM     29  C   UNL     1      -0.973  11.565  20.160  0.00  0.00    +0.000 C 
ATOM     30  C   UNL     1      -0.987  11.287  21.675  0.00  0.00    +0.000 C 
ATOM     31  C   UNL     1      -0.115  10.050  21.387  0.00  0.00    +0.000 C 
ENDBRANCH  25  28
ENDBRANCH  23  26
ENDBRANCH  22  23
ENDBRANCH  21  22
ENDBRANCH  19  21
ENDBRANCH   1  19
TORSDOF 8
ENDMDL
