MODEL 1
REMARK VINA RESULT:      -7.3      0.000      0.000
REMARK  Name = 
REMARK  9 active torsions:
REMARK  status: ('A' for Active; 'I' for Inactive)
REMARK    1  A    between atoms: C_1  and  C_2
REMARK    2  A    between atoms: C_2  and  C_3
REMARK    3  A    between atoms: C_6  and  N_7
REMARK    4  A    between atoms: N_10  and  C_11
REMARK    5  A    between atoms: C_11  and  C_12
REMARK    6  A    between atoms: C_12  and  N_13
REMARK    7  A    between atoms: N_16  and  C_17
REMARK    8  A    between atoms: C_20  and  O_21
REMARK    9  A    between atoms: O_21  and  C_22
REMARK                            x       y       z     vdW  Elec       q    Type
REMARK                         _______ _______ _______ _____ _____    ______ ____
ROOT
ATOM      1  C   UNL     1       1.545   6.718  20.567  0.00  0.00    +0.000 C 
ENDROOT
BRANCH   1   5
ATOM      2  N   UNL     1       4.364   5.592  18.558  0.00  0.00    +0.000 N 
ATOM      3  C   UNL     1       3.045   5.788  18.895  0.00  0.00    +0.000 C 
ATOM      4  O   UNL     1       2.068   5.612  18.170  0.00  0.00    +0.000 OA
ATOM      5  N   UNL     1       2.872   6.235  20.190  0.00  0.00    +0.000 N 
ATOM      6  H   UNL     1       5.035   5.593  19.311  0.00  0.00    +0.000 HD
ATOM      7  H   UNL     1       3.652   6.742  20.582  0.00  0.00    +0.000 HD
BRANCH   2  11
ATOM      8  C   UNL     1       5.880   4.531  14.732  0.00  0.00    +0.000 A 
ATOM      9  C   UNL     1       5.634   3.544  15.687  0.00  0.00    +0.000 A 
ATOM     10  C   UNL     1       5.114   3.877  16.939  0.00  0.00    +0.000 A 
ATOM     11  C   UNL     1       4.837   5.201  17.278  0.00  0.00    +0.000 A 
ATOM     12  C   UNL     1       5.037   6.191  16.308  0.00  0.00    +0.000 A 
ATOM     13  C   UNL     1       5.554   5.858  15.045  0.00  0.00    +0.000 A 
BRANCH   8  15
ATOM     14  C   UNL     1       5.482   3.429  12.509  0.00  0.00    +0.000 C 
ATOM     15  C   UNL     1       6.475   4.154  13.402  0.00  0.00    +0.000 C 
ENDBRANCH   8  15
ENDBRANCH   2  11
ENDBRANCH   1   5
BRANCH   1  16
ATOM     16  C   UNL     1       1.480   8.230  20.908  0.00  0.00    +0.000 C 
BRANCH  16  17
ATOM     17  N   UNL     1       0.100   8.755  20.867  0.00  0.00    +0.000 NA
ATOM     18  C   UNL     1      -0.599   8.720  22.179  0.00  0.00    +0.000 C 
ATOM     19  C   UNL     1      -0.307   9.861  23.187  0.00  0.00    +0.000 C 
ATOM     20  N   UNL     1      -0.332  11.183  22.549  0.00  0.00    +0.000 N 
ATOM     21  C   UNL     1       0.458  11.263  21.311  0.00  0.00    +0.000 C 
ATOM     22  C   UNL     1       0.039  10.136  20.335  0.00  0.00    +0.000 C 
BRANCH  20  23
ATOM     23  C   UNL     1      -1.269  12.163  22.834  0.00  0.00    +0.000 A 
ATOM     24  C   UNL     1      -2.566  11.807  23.235  0.00  0.00    +0.000 A 
ATOM     25  C   UNL     1      -3.543  12.765  23.538  0.00  0.00    +0.000 A 
ATOM     26  C   UNL     1      -3.245  14.119  23.467  0.00  0.00    +0.000 A 
ATOM     27  C   UNL     1      -1.978  14.507  23.040  0.00  0.00    +0.000 A 
ATOM     28  C   UNL     1      -1.008  13.535  22.723  0.00  0.00    +0.000 A 
BRANCH  26  29
ATOM     29  O   UNL     1      -4.270  14.964  23.787  0.00  0.00    +0.000 OA
ATOM     30  C   UNL     1      -4.150  16.291  23.286  0.00  0.00    +0.000 C 
ENDBRANCH  26  29
ENDBRANCH  20  23
ENDBRANCH  16  17
ENDBRANCH   1  16
TORSDOF 7
ENDMDL
MODEL 2
REMARK VINA RESULT:      -7.0      0.498      1.030
REMARK  Name = 
REMARK  9 active torsions:
REMARK  status: ('A' for Active; 'I' for Inactive)
REMARK    1  A    between atoms: C_1  and  C_2
REMARK    2  A    between atoms: C_2  and  C_3
REMARK    3  A    between atoms: C_6  and  N_7
REMARK    4  A    between atoms: N_10  and  C_11
REMARK    5  A    between atoms: C_11  and  C_12
REMARK    6  A    between atoms: C_12  and  N_13
REMARK    7  A    between atoms: N_16  and  C_17
REMARK    8  A    between atoms: C_20  and  O_21
REMARK    9  A    between atoms: O_21  and  C_22
REMARK                            x       y       z     vdW  Elec       q    Type
REMARK                         _______ _______ _______ _____ _____    ______ ____
ROOT
ATOM      1  C   UNL     1       1.472   6.749  20.823  0.00  0.00    +0.000 C 
ENDROOT
BRANCH   1   5
ATOM      2  N   UNL     1       4.319   5.524  18.914  0.00  0.00    +0.000 N 
ATOM      3  C   UNL     1       3.013   5.882  19.155  0.00  0.00    +0.000 C 
ATOM      4  O   UNL     1       2.120   6.007  18.319  0.00  0.00    +0.000 OA
ATOM      5  N   UNL     1       2.747   6.118  20.489  0.00  0.00    +0.000 N 
ATOM      6  H   UNL     1       4.882   5.278  19.714  0.00  0.00    +0.000 HD
ATOM      7  H   UNL     1       3.539   6.407  21.044  0.00  0.00    +0.000 HD
BRANCH   2  11
ATOM      8  C   UNL     1       6.142   4.872  15.132  0.00  0.00    +0.000 A 
ATOM      9  C   UNL     1       5.353   3.878  15.710  0.00  0.00    +0.000 A 
ATOM     10  C   UNL     1       4.729   4.089  16.941  0.00  0.00    +0.000 A 
ATOM     11  C   UNL     1       4.885   5.288  17.634  0.00  0.00    +0.000 A 
ATOM     12  C   UNL     1       5.637   6.308  17.037  0.00  0.00    +0.000 A 
ATOM     13  C   UNL     1       6.261   6.100  15.795  0.00  0.00    +0.000 A 
BRANCH   8  15
ATOM     14  C   UNL     1       6.114   3.566  12.984  0.00  0.00    +0.000 C 
ATOM     15  C   UNL     1       6.835   4.610  13.821  0.00  0.00    +0.000 C 
ENDBRANCH   8  15
ENDBRANCH   2  11
ENDBRANCH   1   5
BRANCH   1  16
ATOM     16  C   UNL     1       1.458   8.294  20.687  0.00  0.00    +0.000 C 
BRANCH  16  17
ATOM     17  N   UNL     1       0.088   8.845  20.670  0.00  0.00    +0.000 NA
ATOM     18  C   UNL     1      -0.637   8.699  21.960  0.00  0.00    +0.000 C 
ATOM     19  C   UNL     1      -0.349   9.737  23.076  0.00  0.00    +0.000 C 
ATOM     20  N   UNL     1      -0.340  11.113  22.564  0.00  0.00    +0.000 N 
ATOM     21  C   UNL     1       0.475  11.294  21.353  0.00  0.00    +0.000 C 
ATOM     22  C   UNL     1       0.059  10.271  20.268  0.00  0.00    +0.000 C 
BRANCH  20  23
ATOM     23  C   UNL     1      -1.268  12.078  22.921  0.00  0.00    +0.000 A 
ATOM     24  C   UNL     1      -0.916  13.437  22.904  0.00  0.00    +0.000 A 
ATOM     25  C   UNL     1      -1.824  14.447  23.252  0.00  0.00    +0.000 A 
ATOM     26  C   UNL     1      -3.126  14.126  23.612  0.00  0.00    +0.000 A 
ATOM     27  C   UNL     1      -3.497  12.786  23.671  0.00  0.00    +0.000 A 
ATOM     28  C   UNL     1      -2.572  11.778  23.334  0.00  0.00    +0.000 A 
BRANCH  26  29
ATOM     29  O   UNL     1      -3.926  15.189  23.928  0.00  0.00    +0.000 OA
ATOM     30  C   UNL     1      -5.058  15.374  23.085  0.00  0.00    +0.000 C 
ENDBRANCH  26  29
ENDBRANCH  20  23
ENDBRANCH  16  17
ENDBRANCH   1  16
TORSDOF 7
ENDMDL
MODEL 3
REMARK VINA RESULT:      -6.7      3.910      5.935
REMARK  Name = 
REMARK  9 active torsions:
REMARK  status: ('A' for Active; 'I' for Inactive)
REMARK    1  A    between atoms: C_1  and  C_2
REMARK    2  A    between atoms: C_2  and  C_3
REMARK    3  A    between atoms: C_6  and  N_7
REMARK    4  A    between atoms: N_10  and  C_11
REMARK    5  A    between atoms: C_11  and  C_12
REMARK    6  A    between atoms: C_12  and  N_13
REMARK    7  A    between atoms: N_16  and  C_17
REMARK    8  A    between atoms: C_20  and  O_21
REMARK    9  A    between atoms: O_21  and  C_22
REMARK                            x       y       z     vdW  Elec       q    Type
REMARK                         _______ _______ _______ _____ _____    ______ ____
ROOT
ATOM      1  C   UNL     1       3.204   2.255  17.780  0.00  0.00    +0.000 C 
ENDROOT
BRANCH   1   5
ATOM      2  N   UNL     1       6.183   4.249  18.414  0.00  0.00    +0.000 N 
ATOM      3  C   UNL     1       5.007   3.886  17.800  0.00  0.00    +0.000 C 
ATOM      4  O   UNL     1       4.358   4.558  17.000  0.00  0.00    +0.000 OA
ATOM      5  N   UNL     1       4.562   2.633  18.169  0.00  0.00    +0.000 N 
ATOM      6  H   UNL     1       6.694   3.523  18.893  0.00  0.00    +0.000 HD
ATOM      7  H   UNL     1       4.862   2.316  19.079  0.00  0.00    +0.000 HD
BRANCH   2  11
ATOM      8  C   UNL     1       7.991   8.071  17.985  0.00  0.00    +0.000 A 
ATOM      9  C   UNL     1       8.459   7.179  18.949  0.00  0.00    +0.000 A 
ATOM     10  C   UNL     1       7.889   5.911  19.084  0.00  0.00    +0.000 A 
ATOM     11  C   UNL     1       6.831   5.504  18.273  0.00  0.00    +0.000 A 
ATOM     12  C   UNL     1       6.388   6.377  17.271  0.00  0.00    +0.000 A 
ATOM     13  C   UNL     1       6.965   7.651  17.129  0.00  0.00    +0.000 A 
BRANCH   8  15
ATOM     14  C   UNL     1       9.120   9.949  19.216  0.00  0.00    +0.000 C 
ATOM     15  C   UNL     1       8.596   9.446  17.881  0.00  0.00    +0.000 C 
ENDBRANCH   8  15
ENDBRANCH   2  11
ENDBRANCH   1   5
BRANCH   1  16
ATOM     16  C   UNL     1       2.221   2.065  18.964  0.00  0.00    +0.000 C 
BRANCH  16  17
ATOM     17  N   UNL     1       1.160   3.092  18.984  0.00  0.00    +0.000 NA
ATOM     18  C   UNL     1       0.863   3.628  20.338  0.00  0.00    +0.000 C 
ATOM     19  C   UNL     1       1.794   4.732  20.903  0.00  0.00    +0.000 C 
ATOM     20  N   UNL     1       2.077   5.778  19.912  0.00  0.00    +0.000 N 
ATOM     21  C   UNL     1       2.492   5.259  18.599  0.00  0.00    +0.000 C 
ATOM     22  C   UNL     1       1.460   4.228  18.080  0.00  0.00    +0.000 C 
BRANCH  20  23
ATOM     23  C   UNL     1       1.661   7.093  20.033  0.00  0.00    +0.000 A 
ATOM     24  C   UNL     1       1.787   7.978  18.951  0.00  0.00    +0.000 A 
ATOM     25  C   UNL     1       1.373   9.315  19.027  0.00  0.00    +0.000 A 
ATOM     26  C   UNL     1       0.799   9.806  20.192  0.00  0.00    +0.000 A 
ATOM     27  C   UNL     1       0.690   8.964  21.295  0.00  0.00    +0.000 A 
ATOM     28  C   UNL     1       1.123   7.626  21.212  0.00  0.00    +0.000 A 
BRANCH  26  29
ATOM     29  O   UNL     1       0.429  11.121  20.155  0.00  0.00    +0.000 OA
ATOM     30  C   UNL     1       1.486  12.049  19.933  0.00  0.00    +0.000 C 
ENDBRANCH  26  29
ENDBRANCH  20  23
ENDBRANCH  16  17
ENDBRANCH   1  16
TORSDOF 7
ENDMDL
MODEL 4
REMARK VINA RESULT:      -6.7      0.527      1.343
REMARK  Name = 
REMARK  9 active torsions:
REMARK  status: ('A' for Active; 'I' for Inactive)
REMARK    1  A    between atoms: C_1  and  C_2
REMARK    2  A    between atoms: C_2  and  C_3
REMARK    3  A    between atoms: C_6  and  N_7
REMARK    4  A    between atoms: N_10  and  C_11
REMARK    5  A    between atoms: C_11  and  C_12
REMARK    6  A    between atoms: C_12  and  N_13
REMARK    7  A    between atoms: N_16  and  C_17
REMARK    8  A    between atoms: C_20  and  O_21
REMARK    9  A    between atoms: O_21  and  C_22
REMARK                            x       y       z     vdW  Elec       q    Type
REMARK                         _______ _______ _______ _____ _____    ______ ____
ROOT
ATOM      1  C   UNL     1       1.527   6.921  20.624  0.00  0.00    +0.000 C 
ENDROOT
BRANCH   1   5
ATOM      2  N   UNL     1       4.353   5.754  18.648  0.00  0.00    +0.000 N 
ATOM      3  C   UNL     1       3.033   5.965  18.972  0.00  0.00    +0.000 C 
ATOM      4  O   UNL     1       2.061   5.795  18.239  0.00  0.00    +0.000 OA
ATOM      5  N   UNL     1       2.853   6.422  20.262  0.00  0.00    +0.000 N 
ATOM      6  H   UNL     1       5.017   5.754  19.407  0.00  0.00    +0.000 HD
ATOM      7  H   UNL     1       3.634   6.924  20.658  0.00  0.00    +0.000 HD
BRANCH   2  11
ATOM      8  C   UNL     1       5.688   4.439  14.834  0.00  0.00    +0.000 A 
ATOM      9  C   UNL     1       5.484   5.798  15.075  0.00  0.00    +0.000 A 
ATOM     10  C   UNL     1       5.068   6.245  16.330  0.00  0.00    +0.000 A 
ATOM     11  C   UNL     1       4.833   5.351  17.374  0.00  0.00    +0.000 A 
ATOM     12  C   UNL     1       5.082   3.991  17.153  0.00  0.00    +0.000 A 
ATOM     13  C   UNL     1       5.506   3.539  15.892  0.00  0.00    +0.000 A 
BRANCH   8  15
ATOM     14  C   UNL     1       7.332   4.707  12.951  0.00  0.00    +0.000 C 
ATOM     15  C   UNL     1       6.101   3.977  13.462  0.00  0.00    +0.000 C 
ENDBRANCH   8  15
ENDBRANCH   2  11
ENDBRANCH   1   5
BRANCH   1  16
ATOM     16  C   UNL     1       1.364   8.459  20.518  0.00  0.00    +0.000 C 
BRANCH  16  17
ATOM     17  N   UNL     1      -0.048   8.882  20.622  0.00  0.00    +0.000 NA
ATOM     18  C   UNL     1      -0.578   8.880  22.011  0.00  0.00    +0.000 C 
ATOM     19  C   UNL     1      -0.258  10.101  22.912  0.00  0.00    +0.000 C 
ATOM     20  N   UNL     1      -0.462  11.375  22.211  0.00  0.00    +0.000 N 
ATOM     21  C   UNL     1       0.164  11.432  20.881  0.00  0.00    +0.000 C 
ATOM     22  C   UNL     1      -0.280  10.219  20.027  0.00  0.00    +0.000 C 
BRANCH  20  23
ATOM     23  C   UNL     1      -1.432  12.302  22.557  0.00  0.00    +0.000 A 
ATOM     24  C   UNL     1      -1.106  13.393  23.378  0.00  0.00    +0.000 A 
ATOM     25  C   UNL     1      -2.053  14.358  23.748  0.00  0.00    +0.000 A 
ATOM     26  C   UNL     1      -3.361  14.270  23.288  0.00  0.00    +0.000 A 
ATOM     27  C   UNL     1      -3.725  13.182  22.500  0.00  0.00    +0.000 A 
ATOM     28  C   UNL     1      -2.768  12.210  22.146  0.00  0.00    +0.000 A 
BRANCH  26  29
ATOM     29  O   UNL     1      -4.198  15.265  23.707  0.00  0.00    +0.000 OA
ATOM     30  C   UNL     1      -3.656  16.581  23.664  0.00  0.00    +0.000 C 
ENDBRANCH  26  29
ENDBRANCH  20  23
ENDBRANCH  16  17
ENDBRANCH   1  16
TORSDOF 7
ENDMDL
MODEL 5
REMARK VINA RESULT:      -6.6      8.325      9.926
REMARK  Name = 
REMARK  9 active torsions:
REMARK  status: ('A' for Active; 'I' for Inactive)
REMARK    1  A    between atoms: C_1  and  C_2
REMARK    2  A    between atoms: C_2  and  C_3
REMARK    3  A    between atoms: C_6  and  N_7
REMARK    4  A    between atoms: N_10  and  C_11
REMARK    5  A    between atoms: C_11  and  C_12
REMARK    6  A    between atoms: C_12  and  N_13
REMARK    7  A    between atoms: N_16  and  C_17
REMARK    8  A    between atoms: C_20  and  O_21
REMARK    9  A    between atoms: O_21  and  C_22
REMARK                            x       y       z     vdW  Elec       q    Type
REMARK                         _______ _______ _______ _____ _____    ______ ____
ROOT
ATOM      1  C   UNL     1       8.952   9.358  18.489  0.00  0.00    +0.000 C 
ENDROOT
BRANCH   1   5
ATOM      2  N   UNL     1       6.359   7.330  16.935  0.00  0.00    +0.000 N 
ATOM      3  C   UNL     1       7.413   7.619  17.771  0.00  0.00    +0.000 C 
ATOM      4  O   UNL     1       7.840   6.915  18.685  0.00  0.00    +0.000 OA
ATOM      5  N   UNL     1       8.000   8.840  17.508  0.00  0.00    +0.000 N 
ATOM      6  H   UNL     1       6.249   7.910  16.118  0.00  0.00    +0.000 HD
ATOM      7  H   UNL     1       7.401   9.526  17.074  0.00  0.00    +0.000 HD
BRANCH   2  11
ATOM      8  C   UNL     1       3.769   3.968  17.163  0.00  0.00    +0.000 A 
ATOM      9  C   UNL     1       4.955   3.891  16.433  0.00  0.00    +0.000 A 
ATOM     10  C   UNL     1       5.826   4.980  16.370  0.00  0.00    +0.000 A 
ATOM     11  C   UNL     1       5.533   6.178  17.021  0.00  0.00    +0.000 A 
ATOM     12  C   UNL     1       4.367   6.247  17.794  0.00  0.00    +0.000 A 
ATOM     13  C   UNL     1       3.493   5.149  17.864  0.00  0.00    +0.000 A 
BRANCH   8  15
ATOM     14  C   UNL     1       3.256   1.730  18.184  0.00  0.00    +0.000 C 
ATOM     15  C   UNL     1       2.827   2.794  17.187  0.00  0.00    +0.000 C 
ENDBRANCH   8  15
ENDBRANCH   2  11
ENDBRANCH   1   5
BRANCH   1  16
ATOM     16  C   UNL     1       9.587  10.723  18.117  0.00  0.00    +0.000 C 
BRANCH  16  17
ATOM     17  N   UNL     1      10.527  11.205  19.149  0.00  0.00    +0.000 NA
ATOM     18  C   UNL     1      11.399  12.321  18.697  0.00  0.00    +0.000 C 
ATOM     19  C   UNL     1      10.810  13.755  18.717  0.00  0.00    +0.000 C 
ATOM     20  N   UNL     1      10.094  14.043  19.966  0.00  0.00    +0.000 N 
ATOM     21  C   UNL     1       9.137  12.998  20.360  0.00  0.00    +0.000 C 
ATOM     22  C   UNL     1       9.836  11.616  20.393  0.00  0.00    +0.000 C 
BRANCH  20  23
ATOM     23  C   UNL     1      10.502  14.988  20.893  0.00  0.00    +0.000 A 
ATOM     24  C   UNL     1      11.480  15.937  20.553  0.00  0.00    +0.000 A 
ATOM     25  C   UNL     1      11.918  16.914  21.457  0.00  0.00    +0.000 A 
ATOM     26  C   UNL     1      11.374  16.984  22.733  0.00  0.00    +0.000 A 
ATOM     27  C   UNL     1      10.428  16.037  23.113  0.00  0.00    +0.000 A 
ATOM     28  C   UNL     1      10.005  15.050  22.201  0.00  0.00    +0.000 A 
BRANCH  26  29
ATOM     29  O   UNL     1      11.872  17.977  23.529  0.00  0.00    +0.000 OA
ATOM     30  C   UNL     1      11.580  17.854  24.916  0.00  0.00    +0.000 C 
ENDBRANCH  26  29
ENDBRANCH  20  23
ENDBRANCH  16  17
ENDBRANCH   1  16
TORSDOF 7
ENDMDL
MODEL 6
REMARK VINA RESULT:      -6.6      5.410      9.967
REMARK  Name = 
REMARK  9 active torsions:
REMARK  status: ('A' for Active; 'I' for Inactive)
REMARK    1  A    between atoms: C_1  and  C_2
REMARK    2  A    between atoms: C_2  and  C_3
REMARK    3  A    between atoms: C_6  and  N_7
REMARK    4  A    between atoms: N_10  and  C_11
REMARK    5  A    between atoms: C_11  and  C_12
REMARK    6  A    between atoms: C_12  and  N_13
REMARK    7  A    between atoms: N_16  and  C_17
REMARK    8  A    between atoms: C_20  and  O_21
REMARK    9  A    between atoms: O_21  and  C_22
REMARK                            x       y       z     vdW  Elec       q    Type
REMARK                         _______ _______ _______ _____ _____    ______ ____
ROOT
ATOM      1  C   UNL     1       0.537  12.667  18.848  0.00  0.00    +0.000 C 
ENDROOT
BRANCH   1   5
ATOM      2  N   UNL     1       3.607  14.215  17.651  0.00  0.00    +0.000 N 
ATOM      3  C   UNL     1       2.529  14.011  18.481  0.00  0.00    +0.000 C 
ATOM      4  O   UNL     1       2.357  14.503  19.594  0.00  0.00    +0.000 OA
ATOM      5  N   UNL     1       1.587  13.151  17.953  0.00  0.00    +0.000 N 
ATOM      6  H   UNL     1       3.517  13.899  16.697  0.00  0.00    +0.000 HD
ATOM      7  H   UNL     1       1.937  12.482  17.284  0.00  0.00    +0.000 HD
BRANCH   2  11
ATOM      8  C   UNL     1       6.970  16.582  18.719  0.00  0.00    +0.000 A 
ATOM      9  C   UNL     1       7.153  15.322  18.150  0.00  0.00    +0.000 A 
ATOM     10  C   UNL     1       6.056  14.545  17.773  0.00  0.00    +0.000 A 
ATOM     11  C   UNL     1       4.751  14.995  17.964  0.00  0.00    +0.000 A 
ATOM     12  C   UNL     1       4.561  16.279  18.491  0.00  0.00    +0.000 A 
ATOM     13  C   UNL     1       5.664  17.066  18.865  0.00  0.00    +0.000 A 
BRANCH   8  15
ATOM     14  C   UNL     1       9.373  17.158  18.257  0.00  0.00    +0.000 C 
ATOM     15  C   UNL     1       8.166  17.388  19.152  0.00  0.00    +0.000 C 
ENDBRANCH   8  15
ENDBRANCH   2  11
ENDBRANCH   1   5
BRANCH   1  16
ATOM     16  C   UNL     1       0.963  11.493  19.769  0.00  0.00    +0.000 C 
BRANCH  16  17
ATOM     17  N   UNL     1       0.314  10.221  19.392  0.00  0.00    +0.000 NA
ATOM     18  C   UNL     1       0.919   9.562  18.205  0.00  0.00    +0.000 C 
ATOM     19  C   UNL     1       2.204   8.720  18.419  0.00  0.00    +0.000 C 
ATOM     20  N   UNL     1       2.098   7.835  19.586  0.00  0.00    +0.000 N 
ATOM     21  C   UNL     1       1.614   8.507  20.802  0.00  0.00    +0.000 C 
ATOM     22  C   UNL     1       0.287   9.250  20.512  0.00  0.00    +0.000 C 
BRANCH  20  23
ATOM     23  C   UNL     1       2.086   6.452  19.511  0.00  0.00    +0.000 A 
ATOM     24  C   UNL     1       2.465   5.804  18.325  0.00  0.00    +0.000 A 
ATOM     25  C   UNL     1       2.473   4.408  18.207  0.00  0.00    +0.000 A 
ATOM     26  C   UNL     1       2.117   3.610  19.287  0.00  0.00    +0.000 A 
ATOM     27  C   UNL     1       1.704   4.221  20.467  0.00  0.00    +0.000 A 
ATOM     28  C   UNL     1       1.685   5.627  20.570  0.00  0.00    +0.000 A 
BRANCH  26  29
ATOM     29  O   UNL     1       2.164   2.263  19.062  0.00  0.00    +0.000 OA
ATOM     30  C   UNL     1       3.041   1.846  18.022  0.00  0.00    +0.000 C 
ENDBRANCH  26  29
ENDBRANCH  20  23
ENDBRANCH  16  17
ENDBRANCH   1  16
TORSDOF 7
ENDMDL
MODEL 7
REMARK VINA RESULT:      -6.6      1.345      1.682
REMARK  Name = 
REMARK  9 active torsions:
REMARK  status: ('A' for Active; 'I' for Inactive)
REMARK    1  A    between atoms: C_1  and  C_2
REMARK    2  A    between atoms: C_2  and  C_3
REMARK    3  A    between atoms: C_6  and  N_7
REMARK    4  A    between atoms: N_10  and  C_11
REMARK    5  A    between atoms: C_11  and  C_12
REMARK    6  A    between atoms: C_12  and  N_13
REMARK    7  A    between atoms: N_16  and  C_17
REMARK    8  A    between atoms: C_20  and  O_21
REMARK    9  A    between atoms: O_21  and  C_22
REMARK                            x       y       z     vdW  Elec       q    Type
REMARK                         _______ _______ _______ _____ _____    ______ ____
ROOT
ATOM      1  C   UNL     1       1.860   8.411  19.980  0.00  0.00    +0.000 C 
ENDROOT
BRANCH   1   5
ATOM      2  N   UNL     1       3.795   5.798  18.342  0.00  0.00    +0.000 N 
ATOM      3  C   UNL     1       3.008   6.923  18.438  0.00  0.00    +0.000 C 
ATOM      4  O   UNL     1       2.752   7.719  17.537  0.00  0.00    +0.000 OA
ATOM      5  N   UNL     1       2.492   7.122  19.703  0.00  0.00    +0.000 N 
ATOM      6  H   UNL     1       3.756   5.145  19.109  0.00  0.00    +0.000 HD
ATOM      7  H   UNL     1       3.030   6.725  20.459  0.00  0.00    +0.000 HD
BRANCH   2  11
ATOM      8  C   UNL     1       5.811   4.470  14.845  0.00  0.00    +0.000 A 
ATOM      9  C   UNL     1       5.673   5.835  15.099  0.00  0.00    +0.000 A 
ATOM     10  C   UNL     1       5.034   6.283  16.256  0.00  0.00    +0.000 A 
ATOM     11  C   UNL     1       4.504   5.387  17.183  0.00  0.00    +0.000 A 
ATOM     12  C   UNL     1       4.681   4.016  16.958  0.00  0.00    +0.000 A 
ATOM     13  C   UNL     1       5.330   3.562  15.798  0.00  0.00    +0.000 A 
BRANCH   8  15
ATOM     14  C   UNL     1       5.481   3.402  12.594  0.00  0.00    +0.000 C 
ATOM     15  C   UNL     1       6.472   4.008  13.573  0.00  0.00    +0.000 C 
ENDBRANCH   8  15
ENDBRANCH   2  11
ENDBRANCH   1   5
BRANCH   1  16
ATOM     16  C   UNL     1       1.293   8.558  21.416  0.00  0.00    +0.000 C 
BRANCH  16  17
ATOM     17  N   UNL     1      -0.177   8.697  21.427  0.00  0.00    +0.000 NA
ATOM     18  C   UNL     1      -0.740   9.055  22.756  0.00  0.00    +0.000 C 
ATOM     19  C   UNL     1      -0.703  10.546  23.181  0.00  0.00    +0.000 C 
ATOM     20  N   UNL     1      -1.140  11.441  22.102  0.00  0.00    +0.000 N 
ATOM     21  C   UNL     1      -0.497  11.172  20.807  0.00  0.00    +0.000 C 
ATOM     22  C   UNL     1      -0.658   9.680  20.428  0.00  0.00    +0.000 C 
BRANCH  20  23
ATOM     23  C   UNL     1      -2.288  12.214  22.154  0.00  0.00    +0.000 A 
ATOM     24  C   UNL     1      -2.990  12.359  23.362  0.00  0.00    +0.000 A 
ATOM     25  C   UNL     1      -4.151  13.137  23.462  0.00  0.00    +0.000 A 
ATOM     26  C   UNL     1      -4.641  13.812  22.352  0.00  0.00    +0.000 A 
ATOM     27  C   UNL     1      -3.989  13.663  21.131  0.00  0.00    +0.000 A 
ATOM     28  C   UNL     1      -2.830  12.866  21.039  0.00  0.00    +0.000 A 
BRANCH  26  29
ATOM     29  O   UNL     1      -5.777  14.543  22.563  0.00  0.00    +0.000 OA
ATOM     30  C   UNL     1      -6.995  13.809  22.512  0.00  0.00    +0.000 C 
ENDBRANCH  26  29
ENDBRANCH  20  23
ENDBRANCH  16  17
ENDBRANCH   1  16
TORSDOF 7
ENDMDL
MODEL 8
REMARK VINA RESULT:      -6.6      3.497     10.611
REMARK  Name = 
REMARK  9 active torsions:
REMARK  status: ('A' for Active; 'I' for Inactive)
REMARK    1  A    between atoms: C_1  and  C_2
REMARK    2  A    between atoms: C_2  and  C_3
REMARK    3  A    between atoms: C_6  and  N_7
REMARK    4  A    between atoms: N_10  and  C_11
REMARK    5  A    between atoms: C_11  and  C_12
REMARK    6  A    between atoms: C_12  and  N_13
REMARK    7  A    between atoms: N_16  and  C_17
REMARK    8  A    between atoms: C_20  and  O_21
REMARK    9  A    between atoms: O_21  and  C_22
REMARK                            x       y       z     vdW  Elec       q    Type
REMARK                         _______ _______ _______ _____ _____    ______ ____
ROOT
ATOM      1  C   UNL     1       2.305   3.399  21.423  0.00  0.00    +0.000 C 
ENDROOT
BRANCH   1   5
ATOM      2  N   UNL     1       2.163   6.971  20.736  0.00  0.00    +0.000 N 
ATOM      3  C   UNL     1       1.728   5.667  20.763  0.00  0.00    +0.000 C 
ATOM      4  O   UNL     1       0.591   5.267  20.520  0.00  0.00    +0.000 OA
ATOM      5  N   UNL     1       2.715   4.768  21.114  0.00  0.00    +0.000 N 
ATOM      6  H   UNL     1       3.160   7.123  20.770  0.00  0.00    +0.000 HD
ATOM      7  H   UNL     1       3.460   5.142  21.683  0.00  0.00    +0.000 HD
BRANCH   2  11
ATOM      8  C   UNL     1      -0.234  10.419  20.084  0.00  0.00    +0.000 A 
ATOM      9  C   UNL     1       0.616   9.956  19.079  0.00  0.00    +0.000 A 
ATOM     10  C   UNL     1       1.391   8.811  19.273  0.00  0.00    +0.000 A 
ATOM     11  C   UNL     1       1.350   8.105  20.474  0.00  0.00    +0.000 A 
ATOM     12  C   UNL     1       0.464   8.537  21.469  0.00  0.00    +0.000 A 
ATOM     13  C   UNL     1      -0.322   9.685  21.274  0.00  0.00    +0.000 A 
BRANCH   8  15
ATOM     14  C   UNL     1      -0.494  12.514  18.720  0.00  0.00    +0.000 C 
ATOM     15  C   UNL     1      -1.033  11.677  19.868  0.00  0.00    +0.000 C 
ENDBRANCH   8  15
ENDBRANCH   2  11
ENDBRANCH   1   5
BRANCH   1  16
ATOM     16  C   UNL     1       1.863   2.563  20.193  0.00  0.00    +0.000 C 
BRANCH  16  17
ATOM     17  N   UNL     1       3.007   2.142  19.360  0.00  0.00    +0.000 NA
ATOM     18  C   UNL     1       2.708   2.090  17.905  0.00  0.00    +0.000 C 
ATOM     19  C   UNL     1       2.754   3.419  17.107  0.00  0.00    +0.000 C 
ATOM     20  N   UNL     1       3.943   4.217  17.430  0.00  0.00    +0.000 N 
ATOM     21  C   UNL     1       4.181   4.377  18.873  0.00  0.00    +0.000 C 
ATOM     22  C   UNL     1       4.200   2.995  19.569  0.00  0.00    +0.000 C 
BRANCH  20  23
ATOM     23  C   UNL     1       4.959   4.493  16.529  0.00  0.00    +0.000 A 
ATOM     24  C   UNL     1       6.039   5.306  16.908  0.00  0.00    +0.000 A 
ATOM     25  C   UNL     1       7.091   5.606  16.032  0.00  0.00    +0.000 A 
ATOM     26  C   UNL     1       7.103   5.083  14.746  0.00  0.00    +0.000 A 
ATOM     27  C   UNL     1       6.031   4.301  14.327  0.00  0.00    +0.000 A 
ATOM     28  C   UNL     1       4.971   4.018  15.212  0.00  0.00    +0.000 A 
BRANCH  26  29
ATOM     29  O   UNL     1       8.178   5.438  13.979  0.00  0.00    +0.000 OA
ATOM     30  C   UNL     1       7.981   5.352  12.572  0.00  0.00    +0.000 C 
ENDBRANCH  26  29
ENDBRANCH  20  23
ENDBRANCH  16  17
ENDBRANCH   1  16
TORSDOF 7
ENDMDL
MODEL 9
REMARK VINA RESULT:      -6.5      1.862      2.368
REMARK  Name = 
REMARK  9 active torsions:
REMARK  status: ('A' for Active; 'I' for Inactive)
REMARK    1  A    between atoms: C_1  and  C_2
REMARK    2  A    between atoms: C_2  and  C_3
REMARK    3  A    between atoms: C_6  and  N_7
REMARK    4  A    between atoms: N_10  and  C_11
REMARK    5  A    between atoms: C_11  and  C_12
REMARK    6  A    between atoms: C_12  and  N_13
REMARK    7  A    between atoms: N_16  and  C_17
REMARK    8  A    between atoms: C_20  and  O_21
REMARK    9  A    between atoms: O_21  and  C_22
REMARK                            x       y       z     vdW  Elec       q    Type
REMARK                         _______ _______ _______ _____ _____    ______ ____
ROOT
ATOM      1  C   UNL     1       1.217   9.904  19.350  0.00  0.00    +0.000 C 
ENDROOT
BRANCH   1   5
ATOM      2  N   UNL     1       2.998   6.822  18.589  0.00  0.00    +0.000 N 
ATOM      3  C   UNL     1       2.354   8.011  18.334  0.00  0.00    +0.000 C 
ATOM      4  O   UNL     1       2.319   8.612  17.263  0.00  0.00    +0.000 OA
ATOM      5  N   UNL     1       1.710   8.531  19.439  0.00  0.00    +0.000 N 
ATOM      6  H   UNL     1       2.779   6.359  19.457  0.00  0.00    +0.000 HD
ATOM      7  H   UNL     1       2.092   8.259  20.333  0.00  0.00    +0.000 HD
BRANCH   2  11
ATOM      8  C   UNL     1       5.496   4.731  15.860  0.00  0.00    +0.000 A 
ATOM      9  C   UNL     1       4.502   4.050  16.563  0.00  0.00    +0.000 A 
ATOM     10  C   UNL     1       3.659   4.730  17.444  0.00  0.00    +0.000 A 
ATOM     11  C   UNL     1       3.792   6.101  17.659  0.00  0.00    +0.000 A 
ATOM     12  C   UNL     1       4.757   6.799  16.921  0.00  0.00    +0.000 A 
ATOM     13  C   UNL     1       5.602   6.118  16.029  0.00  0.00    +0.000 A 
BRANCH   8  15
ATOM     14  C   UNL     1       5.854   3.839  13.537  0.00  0.00    +0.000 C 
ATOM     15  C   UNL     1       6.417   3.971  14.942  0.00  0.00    +0.000 C 
ENDBRANCH   8  15
ENDBRANCH   2  11
ENDBRANCH   1   5
BRANCH   1  16
ATOM     16  C   UNL     1       0.867  10.556  20.713  0.00  0.00    +0.000 C 
BRANCH  16  17
ATOM     17  N   UNL     1      -0.524  10.280  21.126  0.00  0.00    +0.000 NA
ATOM     18  C   UNL     1      -0.812  10.621  22.544  0.00  0.00    +0.000 C 
ATOM     19  C   UNL     1      -1.116  12.103  22.887  0.00  0.00    +0.000 C 
ATOM     20  N   UNL     1      -2.060  12.708  21.939  0.00  0.00    +0.000 N 
ATOM     21  C   UNL     1      -1.717  12.479  20.526  0.00  0.00    +0.000 C 
ATOM     22  C   UNL     1      -1.514  10.967  20.263  0.00  0.00    +0.000 C 
BRANCH  20  23
ATOM     23  C   UNL     1      -3.334  13.132  22.278  0.00  0.00    +0.000 A 
ATOM     24  C   UNL     1      -3.565  13.764  23.510  0.00  0.00    +0.000 A 
ATOM     25  C   UNL     1      -4.836  14.215  23.891  0.00  0.00    +0.000 A 
ATOM     26  C   UNL     1      -5.921  14.062  23.037  0.00  0.00    +0.000 A 
ATOM     27  C   UNL     1      -5.733  13.409  21.822  0.00  0.00    +0.000 A 
ATOM     28  C   UNL     1      -4.453  12.947  21.455  0.00  0.00    +0.000 A 
BRANCH  26  29
ATOM     29  O   UNL     1      -7.111  14.540  23.508  0.00  0.00    +0.000 OA
ATOM     30  C   UNL     1      -7.309  15.942  23.361  0.00  0.00    +0.000 C 
ENDBRANCH  26  29
ENDBRANCH  20  23
ENDBRANCH  16  17
ENDBRANCH   1  16
TORSDOF 7
ENDMDL
