MODEL 1
REMARK VINA RESULT:      -8.3      0.000      0.000
REMARK  Name = 
REMARK  10 active torsions:
REMARK  status: ('A' for Active; 'I' for Inactive)
REMARK    1  A    between atoms: C_1  and  C_2
REMARK    2  A    between atoms: C_2  and  C_3
REMARK    3  A    between atoms: C_3  and  C_4
REMARK    4  A    between atoms: C_4  and  O_5
REMARK    5  A    between atoms: O_5  and  C_6
REMARK    6  A    between atoms: C_6  and  C_8
REMARK    7  A    between atoms: C_8  and  N_18
REMARK    8  A    between atoms: C_9  and  C_10
REMARK    9  A    between atoms: C_11  and  C_12
REMARK   10  A    between atoms: C_19  and  C_21
REMARK                            x       y       z     vdW  Elec       q    Type
REMARK                         _______ _______ _______ _____ _____    ______ ____
ROOT
ATOM      1  C   UNL     1       5.383   5.180  16.706  0.00  0.00    +0.000 C 
ATOM      2  C   UNL     1       5.369   6.526  16.643  0.00  0.00    +0.000 C 
ENDROOT
BRANCH   1   3
ATOM      3  N   UNL     1       4.458   4.384  17.358  0.00  0.00    +0.000 N 
ATOM      4  C   UNL     1       4.585   3.798  18.605  0.00  0.00    +0.000 C 
ATOM      5  O   UNL     1       5.579   3.829  19.320  0.00  0.00    +0.000 OA
ATOM      6  H   UNL     1       3.788   3.953  16.732  0.00  0.00    +0.000 HD
BRANCH   4   7
ATOM      7  C   UNL     1       3.354   3.106  19.085  0.00  0.00    +0.000 A 
ATOM      8  C   UNL     1       2.418   2.555  18.198  0.00  0.00    +0.000 A 
ATOM      9  C   UNL     1       1.186   2.110  18.675  0.00  0.00    +0.000 A 
ATOM     10  C   UNL     1       0.897   2.185  20.037  0.00  0.00    +0.000 A 
ATOM     11  C   UNL     1       1.856   2.660  20.932  0.00  0.00    +0.000 A 
ATOM     12  C   UNL     1       3.089   3.112  20.459  0.00  0.00    +0.000 A 
ENDBRANCH   4   7
ENDBRANCH   1   3
BRANCH   1  13
ATOM     13  C   UNL     1       6.461   4.409  15.980  0.00  0.00    +0.000 C 
ATOM     14  O   UNL     1       7.657   4.627  16.145  0.00  0.00    +0.000 OA
BRANCH  13  15
ATOM     15  O   UNL     1       5.935   3.522  15.104  0.00  0.00    +0.000 OA
BRANCH  15  16
ATOM     16  C   UNL     1       5.537   4.079  13.849  0.00  0.00    +0.000 C 
BRANCH  16  17
ATOM     17  C   UNL     1       6.394   3.572  12.697  0.00  0.00    +0.000 C 
BRANCH  17  19
ATOM     18  C   UNL     1       4.209   3.299  11.439  0.00  0.00    +0.000 C 
ATOM     19  C   UNL     1       5.552   2.682  11.780  0.00  0.00    +0.000 C 
ENDBRANCH  17  19
ENDBRANCH  16  17
ENDBRANCH  15  16
ENDBRANCH  13  15
ENDBRANCH   1  13
BRANCH   2  20
ATOM     20  C   UNL     1       4.410   7.428  17.236  0.00  0.00    +0.000 C 
ATOM     21  C   UNL     1       3.451   7.050  18.097  0.00  0.00    +0.000 C 
BRANCH  21  22
ATOM     22  C   UNL     1       2.405   7.992  18.520  0.00  0.00    +0.000 A 
ATOM     23  C   UNL     1       1.945   7.987  19.846  0.00  0.00    +0.000 A 
ATOM     24  C   UNL     1       0.967   8.885  20.266  0.00  0.00    +0.000 A 
ATOM     25  C   UNL     1       0.449   9.815  19.370  0.00  0.00    +0.000 A 
ATOM     26  C   UNL     1       0.915   9.847  18.055  0.00  0.00    +0.000 A 
ATOM     27  C   UNL     1       1.894   8.943  17.630  0.00  0.00    +0.000 A 
ENDBRANCH  21  22
ENDBRANCH   2  20
TORSDOF 9
ENDMDL
MODEL 2
REMARK VINA RESULT:      -8.0      0.546      1.193
REMARK  Name = 
REMARK  10 active torsions:
REMARK  status: ('A' for Active; 'I' for Inactive)
REMARK    1  A    between atoms: C_1  and  C_2
REMARK    2  A    between atoms: C_2  and  C_3
REMARK    3  A    between atoms: C_3  and  C_4
REMARK    4  A    between atoms: C_4  and  O_5
REMARK    5  A    between atoms: O_5  and  C_6
REMARK    6  A    between atoms: C_6  and  C_8
REMARK    7  A    between atoms: C_8  and  N_18
REMARK    8  A    between atoms: C_9  and  C_10
REMARK    9  A    between atoms: C_11  and  C_12
REMARK   10  A    between atoms: C_19  and  C_21
REMARK                            x       y       z     vdW  Elec       q    Type
REMARK                         _______ _______ _______ _____ _____    ______ ____
ROOT
ATOM      1  C   UNL     1       5.352   5.192  16.547  0.00  0.00    +0.000 C 
ATOM      2  C   UNL     1       5.348   6.540  16.504  0.00  0.00    +0.000 C 
ENDROOT
BRANCH   1   3
ATOM      3  N   UNL     1       4.453   4.395  17.234  0.00  0.00    +0.000 N 
ATOM      4  C   UNL     1       4.626   3.816  18.478  0.00  0.00    +0.000 C 
ATOM      5  O   UNL     1       5.643   3.855  19.159  0.00  0.00    +0.000 OA
ATOM      6  H   UNL     1       3.764   3.959  16.633  0.00  0.00    +0.000 HD
BRANCH   4   7
ATOM      7  C   UNL     1       3.415   3.122  19.003  0.00  0.00    +0.000 A 
ATOM      8  C   UNL     1       2.636   2.278  18.199  0.00  0.00    +0.000 A 
ATOM      9  C   UNL     1       1.402   1.821  18.661  0.00  0.00    +0.000 A 
ATOM     10  C   UNL     1       0.959   2.177  19.934  0.00  0.00    +0.000 A 
ATOM     11  C   UNL     1       1.766   2.952  20.767  0.00  0.00    +0.000 A 
ATOM     12  C   UNL     1       2.999   3.417  20.306  0.00  0.00    +0.000 A 
ENDBRANCH   4   7
ENDBRANCH   1   3
BRANCH   1  13
ATOM     13  C   UNL     1       6.383   4.423  15.755  0.00  0.00    +0.000 C 
ATOM     14  O   UNL     1       7.580   4.450  16.023  0.00  0.00    +0.000 OA
BRANCH  13  15
ATOM     15  O   UNL     1       5.825   3.776  14.706  0.00  0.00    +0.000 OA
BRANCH  15  16
ATOM     16  C   UNL     1       6.422   4.058  13.438  0.00  0.00    +0.000 C 
BRANCH  16  17
ATOM     17  C   UNL     1       5.781   3.262  12.310  0.00  0.00    +0.000 C 
BRANCH  17  19
ATOM     18  C   UNL     1       6.324   1.125  11.055  0.00  0.00    +0.000 C 
ATOM     19  C   UNL     1       6.852   2.446  11.582  0.00  0.00    +0.000 C 
ENDBRANCH  17  19
ENDBRANCH  16  17
ENDBRANCH  15  16
ENDBRANCH  13  15
ENDBRANCH   1  13
BRANCH   2  20
ATOM     20  C   UNL     1       4.430   7.441  17.158  0.00  0.00    +0.000 C 
ATOM     21  C   UNL     1       3.448   7.049  17.987  0.00  0.00    +0.000 C 
BRANCH  21  22
ATOM     22  C   UNL     1       2.446   8.007  18.474  0.00  0.00    +0.000 A 
ATOM     23  C   UNL     1       1.870   8.936  17.593  0.00  0.00    +0.000 A 
ATOM     24  C   UNL     1       0.907   9.839  18.035  0.00  0.00    +0.000 A 
ATOM     25  C   UNL     1       0.490   9.812  19.362  0.00  0.00    +0.000 A 
ATOM     26  C   UNL     1       1.036   8.878  20.243  0.00  0.00    +0.000 A 
ATOM     27  C   UNL     1       2.007   7.973  19.802  0.00  0.00    +0.000 A 
ENDBRANCH  21  22
ENDBRANCH   2  20
TORSDOF 9
ENDMDL
MODEL 3
REMARK VINA RESULT:      -7.8      2.415      3.777
REMARK  Name = 
REMARK  10 active torsions:
REMARK  status: ('A' for Active; 'I' for Inactive)
REMARK    1  A    between atoms: C_1  and  C_2
REMARK    2  A    between atoms: C_2  and  C_3
REMARK    3  A    between atoms: C_3  and  C_4
REMARK    4  A    between atoms: C_4  and  O_5
REMARK    5  A    between atoms: O_5  and  C_6
REMARK    6  A    between atoms: C_6  and  C_8
REMARK    7  A    between atoms: C_8  and  N_18
REMARK    8  A    between atoms: C_9  and  C_10
REMARK    9  A    between atoms: C_11  and  C_12
REMARK   10  A    between atoms: C_19  and  C_21
REMARK                            x       y       z     vdW  Elec       q    Type
REMARK                         _______ _______ _______ _____ _____    ______ ____
ROOT
ATOM      1  C   UNL     1       3.730   6.768  17.518  0.00  0.00    +0.000 C 
ATOM      2  C   UNL     1       3.176   7.991  17.403  0.00  0.00    +0.000 C 
ENDROOT
BRANCH   1   3
ATOM      3  N   UNL     1       3.381   5.797  18.442  0.00  0.00    +0.000 N 
ATOM      4  C   UNL     1       2.333   4.899  18.359  0.00  0.00    +0.000 C 
ATOM      5  O   UNL     1       1.484   4.858  17.477  0.00  0.00    +0.000 OA
ATOM      6  H   UNL     1       3.731   5.987  19.373  0.00  0.00    +0.000 HD
BRANCH   4   7
ATOM      7  C   UNL     1       2.303   3.891  19.458  0.00  0.00    +0.000 A 
ATOM      8  C   UNL     1       1.188   3.739  20.296  0.00  0.00    +0.000 A 
ATOM      9  C   UNL     1       1.280   2.941  21.436  0.00  0.00    +0.000 A 
ATOM     10  C   UNL     1       2.468   2.272  21.725  0.00  0.00    +0.000 A 
ATOM     11  C   UNL     1       3.553   2.358  20.852  0.00  0.00    +0.000 A 
ATOM     12  C   UNL     1       3.468   3.161  19.713  0.00  0.00    +0.000 A 
ENDBRANCH   4   7
ENDBRANCH   1   3
BRANCH   1  13
ATOM     13  C   UNL     1       4.808   6.342  16.550  0.00  0.00    +0.000 C 
ATOM     14  O   UNL     1       5.025   6.933  15.497  0.00  0.00    +0.000 OA
BRANCH  13  15
ATOM     15  O   UNL     1       5.434   5.215  16.964  0.00  0.00    +0.000 OA
BRANCH  15  16
ATOM     16  C   UNL     1       6.852   5.213  16.784  0.00  0.00    +0.000 C 
BRANCH  16  17
ATOM     17  C   UNL     1       7.592   4.805  18.051  0.00  0.00    +0.000 C 
BRANCH  17  19
ATOM     18  C   UNL     1       7.938   7.317  18.114  0.00  0.00    +0.000 C 
ATOM     19  C   UNL     1       7.837   6.038  18.924  0.00  0.00    +0.000 C 
ENDBRANCH  17  19
ENDBRANCH  16  17
ENDBRANCH  15  16
ENDBRANCH  13  15
ENDBRANCH   1  13
BRANCH   2  20
ATOM     20  C   UNL     1       2.120   8.561  18.205  0.00  0.00    +0.000 C 
ATOM     21  C   UNL     1       1.671   9.820  18.079  0.00  0.00    +0.000 C 
BRANCH  21  22
ATOM     22  C   UNL     1       0.718  10.381  19.047  0.00  0.00    +0.000 A 
ATOM     23  C   UNL     1      -0.323  11.215  18.611  0.00  0.00    +0.000 A 
ATOM     24  C   UNL     1      -1.244  11.741  19.514  0.00  0.00    +0.000 A 
ATOM     25  C   UNL     1      -1.148  11.423  20.865  0.00  0.00    +0.000 A 
ATOM     26  C   UNL     1      -0.132  10.575  21.309  0.00  0.00    +0.000 A 
ATOM     27  C   UNL     1       0.796  10.050  20.404  0.00  0.00    +0.000 A 
ENDBRANCH  21  22
ENDBRANCH   2  20
TORSDOF 9
ENDMDL
MODEL 4
REMARK VINA RESULT:      -7.7      2.450      3.871
REMARK  Name = 
REMARK  10 active torsions:
REMARK  status: ('A' for Active; 'I' for Inactive)
REMARK    1  A    between atoms: C_1  and  C_2
REMARK    2  A    between atoms: C_2  and  C_3
REMARK    3  A    between atoms: C_3  and  C_4
REMARK    4  A    between atoms: C_4  and  O_5
REMARK    5  A    between atoms: O_5  and  C_6
REMARK    6  A    between atoms: C_6  and  C_8
REMARK    7  A    between atoms: C_8  and  N_18
REMARK    8  A    between atoms: C_9  and  C_10
REMARK    9  A    between atoms: C_11  and  C_12
REMARK   10  A    between atoms: C_19  and  C_21
REMARK                            x       y       z     vdW  Elec       q    Type
REMARK                         _______ _______ _______ _____ _____    ______ ____
ROOT
ATOM      1  C   UNL     1       4.002   6.521  17.437  0.00  0.00    +0.000 C 
ATOM      2  C   UNL     1       3.568   7.792  17.314  0.00  0.00    +0.000 C 
ENDROOT
BRANCH   1   3
ATOM      3  N   UNL     1       3.581   5.604  18.384  0.00  0.00    +0.000 N 
ATOM      4  C   UNL     1       2.435   4.830  18.351  0.00  0.00    +0.000 C 
ATOM      5  O   UNL     1       1.554   4.878  17.502  0.00  0.00    +0.000 OA
ATOM      6  H   UNL     1       3.986   5.759  19.299  0.00  0.00    +0.000 HD
BRANCH   4   7
ATOM      7  C   UNL     1       2.334   3.840  19.462  0.00  0.00    +0.000 A 
ATOM      8  C   UNL     1       1.157   3.678  20.208  0.00  0.00    +0.000 A 
ATOM      9  C   UNL     1       1.170   2.902  21.366  0.00  0.00    +0.000 A 
ATOM     10  C   UNL     1       2.343   2.262  21.765  0.00  0.00    +0.000 A 
ATOM     11  C   UNL     1       3.494   2.358  20.983  0.00  0.00    +0.000 A 
ATOM     12  C   UNL     1       3.489   3.139  19.826  0.00  0.00    +0.000 A 
ENDBRANCH   4   7
ENDBRANCH   1   3
BRANCH   1  13
ATOM     13  C   UNL     1       5.008   5.977  16.451  0.00  0.00    +0.000 C 
ATOM     14  O   UNL     1       4.848   4.914  15.858  0.00  0.00    +0.000 OA
BRANCH  13  15
ATOM     15  O   UNL     1       6.104   6.768  16.369  0.00  0.00    +0.000 OA
BRANCH  15  16
ATOM     16  C   UNL     1       7.264   6.258  17.029  0.00  0.00    +0.000 C 
BRANCH  16  17
ATOM     17  C   UNL     1       7.749   7.184  18.137  0.00  0.00    +0.000 C 
BRANCH  17  19
ATOM     18  C   UNL     1       8.715   9.511  18.425  0.00  0.00    +0.000 C 
ATOM     19  C   UNL     1       7.773   8.627  17.629  0.00  0.00    +0.000 C 
ENDBRANCH  17  19
ENDBRANCH  16  17
ENDBRANCH  15  16
ENDBRANCH  13  15
ENDBRANCH   1  13
BRANCH   2  20
ATOM     20  C   UNL     1       2.593   8.475  18.130  0.00  0.00    +0.000 C 
ATOM     21  C   UNL     1       1.988   9.623  17.783  0.00  0.00    +0.000 C 
BRANCH  21  22
ATOM     22  C   UNL     1       1.142  10.348  18.741  0.00  0.00    +0.000 A 
ATOM     23  C   UNL     1       0.368   9.642  19.675  0.00  0.00    +0.000 A 
ATOM     24  C   UNL     1      -0.425  10.315  20.601  0.00  0.00    +0.000 A 
ATOM     25  C   UNL     1      -0.440  11.707  20.618  0.00  0.00    +0.000 A 
ATOM     26  C   UNL     1       0.344  12.421  19.712  0.00  0.00    +0.000 A 
ATOM     27  C   UNL     1       1.138  11.747  18.779  0.00  0.00    +0.000 A 
ENDBRANCH  21  22
ENDBRANCH   2  20
TORSDOF 9
ENDMDL
MODEL 5
REMARK VINA RESULT:      -7.7      3.498      5.164
REMARK  Name = 
REMARK  10 active torsions:
REMARK  status: ('A' for Active; 'I' for Inactive)
REMARK    1  A    between atoms: C_1  and  C_2
REMARK    2  A    between atoms: C_2  and  C_3
REMARK    3  A    between atoms: C_3  and  C_4
REMARK    4  A    between atoms: C_4  and  O_5
REMARK    5  A    between atoms: O_5  and  C_6
REMARK    6  A    between atoms: C_6  and  C_8
REMARK    7  A    between atoms: C_8  and  N_18
REMARK    8  A    between atoms: C_9  and  C_10
REMARK    9  A    between atoms: C_11  and  C_12
REMARK   10  A    between atoms: C_19  and  C_21
REMARK                            x       y       z     vdW  Elec       q    Type
REMARK                         _______ _______ _______ _____ _____    ______ ____
ROOT
ATOM      1  C   UNL     1       6.203   6.354  16.969  0.00  0.00    +0.000 C 
ATOM      2  C   UNL     1       7.434   6.817  17.267  0.00  0.00    +0.000 C 
ENDROOT
BRANCH   1   3
ATOM      3  N   UNL     1       5.002   6.943  17.325  0.00  0.00    +0.000 N 
ATOM      4  C   UNL     1       4.050   6.446  18.197  0.00  0.00    +0.000 C 
ATOM      5  O   UNL     1       4.079   5.356  18.754  0.00  0.00    +0.000 OA
ATOM      6  H   UNL     1       4.674   7.623  16.650  0.00  0.00    +0.000 HD
BRANCH   4   7
ATOM      7  C   UNL     1       2.924   7.384  18.472  0.00  0.00    +0.000 A 
ATOM      8  C   UNL     1       2.544   8.377  17.557  0.00  0.00    +0.000 A 
ATOM      9  C   UNL     1       1.635   9.363  17.939  0.00  0.00    +0.000 A 
ATOM     10  C   UNL     1       1.080   9.343  19.218  0.00  0.00    +0.000 A 
ATOM     11  C   UNL     1       1.396   8.312  20.103  0.00  0.00    +0.000 A 
ATOM     12  C   UNL     1       2.311   7.327  19.728  0.00  0.00    +0.000 A 
ENDBRANCH   4   7
ENDBRANCH   1   3
BRANCH   1  13
ATOM     13  C   UNL     1       6.057   5.104  16.134  0.00  0.00    +0.000 C 
ATOM     14  O   UNL     1       6.106   3.976  16.614  0.00  0.00    +0.000 OA
BRANCH  13  15
ATOM     15  O   UNL     1       5.937   5.396  14.818  0.00  0.00    +0.000 OA
BRANCH  15  16
ATOM     16  C   UNL     1       6.944   4.824  13.980  0.00  0.00    +0.000 C 
BRANCH  16  17
ATOM     17  C   UNL     1       6.405   3.683  13.128  0.00  0.00    +0.000 C 
BRANCH  17  19
ATOM     18  C   UNL     1       4.523   3.097  11.533  0.00  0.00    +0.000 C 
ATOM     19  C   UNL     1       5.002   4.032  12.626  0.00  0.00    +0.000 C 
ENDBRANCH  17  19
ENDBRANCH  16  17
ENDBRANCH  15  16
ENDBRANCH  13  15
ENDBRANCH   1  13
BRANCH   2  20
ATOM     20  C   UNL     1       7.774   8.002  18.018  0.00  0.00    +0.000 C 
ATOM     21  C   UNL     1       8.197   9.151  17.465  0.00  0.00    +0.000 C 
BRANCH  21  22
ATOM     22  C   UNL     1       8.691  10.253  18.302  0.00  0.00    +0.000 A 
ATOM     23  C   UNL     1       9.244   9.987  19.564  0.00  0.00    +0.000 A 
ATOM     24  C   UNL     1       9.733  11.018  20.363  0.00  0.00    +0.000 A 
ATOM     25  C   UNL     1       9.694  12.330  19.900  0.00  0.00    +0.000 A 
ATOM     26  C   UNL     1       9.170  12.606  18.636  0.00  0.00    +0.000 A 
ATOM     27  C   UNL     1       8.674  11.572  17.835  0.00  0.00    +0.000 A 
ENDBRANCH  21  22
ENDBRANCH   2  20
TORSDOF 9
ENDMDL
MODEL 6
REMARK VINA RESULT:      -7.6      2.668      6.762
REMARK  Name = 
REMARK  10 active torsions:
REMARK  status: ('A' for Active; 'I' for Inactive)
REMARK    1  A    between atoms: C_1  and  C_2
REMARK    2  A    between atoms: C_2  and  C_3
REMARK    3  A    between atoms: C_3  and  C_4
REMARK    4  A    between atoms: C_4  and  O_5
REMARK    5  A    between atoms: O_5  and  C_6
REMARK    6  A    between atoms: C_6  and  C_8
REMARK    7  A    between atoms: C_8  and  N_18
REMARK    8  A    between atoms: C_9  and  C_10
REMARK    9  A    between atoms: C_11  and  C_12
REMARK   10  A    between atoms: C_19  and  C_21
REMARK                            x       y       z     vdW  Elec       q    Type
REMARK                         _______ _______ _______ _____ _____    ______ ____
ROOT
ATOM      1  C   UNL     1       6.220   5.321  17.326  0.00  0.00    +0.000 C 
ATOM      2  C   UNL     1       6.654   5.143  16.062  0.00  0.00    +0.000 C 
ENDROOT
BRANCH   1   3
ATOM      3  N   UNL     1       5.037   4.838  17.858  0.00  0.00    +0.000 N 
ATOM      4  C   UNL     1       3.858   5.535  18.052  0.00  0.00    +0.000 C 
ATOM      5  O   UNL     1       3.683   6.729  17.848  0.00  0.00    +0.000 OA
ATOM      6  H   UNL     1       5.163   4.011  18.430  0.00  0.00    +0.000 HD
BRANCH   4   7
ATOM      7  C   UNL     1       2.721   4.693  18.524  0.00  0.00    +0.000 A 
ATOM      8  C   UNL     1       2.035   4.971  19.716  0.00  0.00    +0.000 A 
ATOM      9  C   UNL     1       1.127   4.046  20.227  0.00  0.00    +0.000 A 
ATOM     10  C   UNL     1       0.877   2.859  19.539  0.00  0.00    +0.000 A 
ATOM     11  C   UNL     1       1.498   2.615  18.314  0.00  0.00    +0.000 A 
ATOM     12  C   UNL     1       2.414   3.536  17.800  0.00  0.00    +0.000 A 
ENDBRANCH   4   7
ENDBRANCH   1   3
BRANCH   1  13
ATOM     13  C   UNL     1       7.082   6.071  18.314  0.00  0.00    +0.000 C 
ATOM     14  O   UNL     1       7.528   5.553  19.333  0.00  0.00    +0.000 OA
BRANCH  13  15
ATOM     15  O   UNL     1       7.231   7.369  17.960  0.00  0.00    +0.000 OA
BRANCH  15  16
ATOM     16  C   UNL     1       8.382   8.015  18.509  0.00  0.00    +0.000 C 
BRANCH  16  17
ATOM     17  C   UNL     1       8.445   9.491  18.141  0.00  0.00    +0.000 C 
BRANCH  17  19
ATOM     18  C   UNL     1       9.986  11.476  18.485  0.00  0.00    +0.000 C 
ATOM     19  C   UNL     1       9.393  10.220  19.096  0.00  0.00    +0.000 C 
ENDBRANCH  17  19
ENDBRANCH  16  17
ENDBRANCH  15  16
ENDBRANCH  13  15
ENDBRANCH   1  13
BRANCH   2  20
ATOM     20  C   UNL     1       5.994   4.431  14.994  0.00  0.00    +0.000 C 
ATOM     21  C   UNL     1       6.628   3.900  13.936  0.00  0.00    +0.000 C 
BRANCH  21  22
ATOM     22  C   UNL     1       5.871   3.347  12.804  0.00  0.00    +0.000 A 
ATOM     23  C   UNL     1       4.632   3.899  12.446  0.00  0.00    +0.000 A 
ATOM     24  C   UNL     1       3.911   3.398  11.365  0.00  0.00    +0.000 A 
ATOM     25  C   UNL     1       4.429   2.347  10.615  0.00  0.00    +0.000 A 
ATOM     26  C   UNL     1       5.671   1.804  10.944  0.00  0.00    +0.000 A 
ATOM     27  C   UNL     1       6.395   2.304  12.032  0.00  0.00    +0.000 A 
ENDBRANCH  21  22
ENDBRANCH   2  20
TORSDOF 9
ENDMDL
MODEL 7
REMARK VINA RESULT:      -7.6      2.401      3.668
REMARK  Name = 
REMARK  10 active torsions:
REMARK  status: ('A' for Active; 'I' for Inactive)
REMARK    1  A    between atoms: C_1  and  C_2
REMARK    2  A    between atoms: C_2  and  C_3
REMARK    3  A    between atoms: C_3  and  C_4
REMARK    4  A    between atoms: C_4  and  O_5
REMARK    5  A    between atoms: O_5  and  C_6
REMARK    6  A    between atoms: C_6  and  C_8
REMARK    7  A    between atoms: C_8  and  N_18
REMARK    8  A    between atoms: C_9  and  C_10
REMARK    9  A    between atoms: C_11  and  C_12
REMARK   10  A    between atoms: C_19  and  C_21
REMARK                            x       y       z     vdW  Elec       q    Type
REMARK                         _______ _______ _______ _____ _____    ______ ____
ROOT
ATOM      1  C   UNL     1       3.725   6.843  17.581  0.00  0.00    +0.000 C 
ATOM      2  C   UNL     1       3.142   8.047  17.413  0.00  0.00    +0.000 C 
ENDROOT
BRANCH   1   3
ATOM      3  N   UNL     1       3.428   5.925  18.573  0.00  0.00    +0.000 N 
ATOM      4  C   UNL     1       2.411   4.988  18.573  0.00  0.00    +0.000 C 
ATOM      5  O   UNL     1       1.548   4.859  17.714  0.00  0.00    +0.000 OA
ATOM      6  H   UNL     1       3.789   6.187  19.483  0.00  0.00    +0.000 HD
BRANCH   4   7
ATOM      7  C   UNL     1       2.438   4.054  19.736  0.00  0.00    +0.000 A 
ATOM      8  C   UNL     1       3.560   3.264  20.028  0.00  0.00    +0.000 A 
ATOM      9  C   UNL     1       3.469   2.256  20.987  0.00  0.00    +0.000 A 
ATOM     10  C   UNL     1       2.274   2.055  21.677  0.00  0.00    +0.000 A 
ATOM     11  C   UNL     1       1.181   2.890  21.445  0.00  0.00    +0.000 A 
ATOM     12  C   UNL     1       1.265   3.897  20.481  0.00  0.00    +0.000 A 
ENDBRANCH   4   7
ENDBRANCH   1   3
BRANCH   1  13
ATOM     13  C   UNL     1       4.775   6.378  16.600  0.00  0.00    +0.000 C 
ATOM     14  O   UNL     1       4.999   6.959  15.543  0.00  0.00    +0.000 OA
BRANCH  13  15
ATOM     15  O   UNL     1       5.366   5.231  17.010  0.00  0.00    +0.000 OA
BRANCH  15  16
ATOM     16  C   UNL     1       6.720   5.065  16.581  0.00  0.00    +0.000 C 
BRANCH  16  17
ATOM     17  C   UNL     1       7.644   4.680  17.728  0.00  0.00    +0.000 C 
BRANCH  17  19
ATOM     18  C   UNL     1       8.006   7.115  18.340  0.00  0.00    +0.000 C 
ATOM     19  C   UNL     1       7.573   5.744  18.826  0.00  0.00    +0.000 C 
ENDBRANCH  17  19
ENDBRANCH  16  17
ENDBRANCH  15  16
ENDBRANCH  13  15
ENDBRANCH   1  13
BRANCH   2  20
ATOM     20  C   UNL     1       2.104   8.646  18.218  0.00  0.00    +0.000 C 
ATOM     21  C   UNL     1       1.222   9.551  17.763  0.00  0.00    +0.000 C 
BRANCH  21  22
ATOM     22  C   UNL     1       0.311  10.244  18.683  0.00  0.00    +0.000 A 
ATOM     23  C   UNL     1       0.674  10.435  20.025  0.00  0.00    +0.000 A 
ATOM     24  C   UNL     1      -0.171  11.105  20.906  0.00  0.00    +0.000 A 
ATOM     25  C   UNL     1      -1.383  11.614  20.451  0.00  0.00    +0.000 A 
ATOM     26  C   UNL     1      -1.746  11.454  19.113  0.00  0.00    +0.000 A 
ATOM     27  C   UNL     1      -0.900  10.777  18.228  0.00  0.00    +0.000 A 
ENDBRANCH  21  22
ENDBRANCH   2  20
TORSDOF 9
ENDMDL
MODEL 8
REMARK VINA RESULT:      -7.6      2.694      3.992
REMARK  Name = 
REMARK  10 active torsions:
REMARK  status: ('A' for Active; 'I' for Inactive)
REMARK    1  A    between atoms: C_1  and  C_2
REMARK    2  A    between atoms: C_2  and  C_3
REMARK    3  A    between atoms: C_3  and  C_4
REMARK    4  A    between atoms: C_4  and  O_5
REMARK    5  A    between atoms: O_5  and  C_6
REMARK    6  A    between atoms: C_6  and  C_8
REMARK    7  A    between atoms: C_8  and  N_18
REMARK    8  A    between atoms: C_9  and  C_10
REMARK    9  A    between atoms: C_11  and  C_12
REMARK   10  A    between atoms: C_19  and  C_21
REMARK                            x       y       z     vdW  Elec       q    Type
REMARK                         _______ _______ _______ _____ _____    ______ ____
ROOT
ATOM      1  C   UNL     1       3.756   7.011  17.648  0.00  0.00    +0.000 C 
ATOM      2  C   UNL     1       3.212   8.232  17.472  0.00  0.00    +0.000 C 
ENDROOT
BRANCH   1   3
ATOM      3  N   UNL     1       3.311   6.040  18.528  0.00  0.00    +0.000 N 
ATOM      4  C   UNL     1       2.281   5.137  18.331  0.00  0.00    +0.000 C 
ATOM      5  O   UNL     1       1.535   5.093  17.361  0.00  0.00    +0.000 OA
ATOM      6  H   UNL     1       3.556   6.230  19.492  0.00  0.00    +0.000 HD
BRANCH   4   7
ATOM      7  C   UNL     1       2.135   4.129  19.420  0.00  0.00    +0.000 A 
ATOM      8  C   UNL     1       1.492   2.900  19.212  0.00  0.00    +0.000 A 
ATOM      9  C   UNL     1       1.188   2.082  20.300  0.00  0.00    +0.000 A 
ATOM     10  C   UNL     1       1.552   2.471  21.588  0.00  0.00    +0.000 A 
ATOM     11  C   UNL     1       2.261   3.655  21.789  0.00  0.00    +0.000 A 
ATOM     12  C   UNL     1       2.562   4.481  20.705  0.00  0.00    +0.000 A 
ENDBRANCH   4   7
ENDBRANCH   1   3
BRANCH   1  13
ATOM     13  C   UNL     1       4.936   6.591  16.805  0.00  0.00    +0.000 C 
ATOM     14  O   UNL     1       5.026   6.858  15.611  0.00  0.00    +0.000 OA
BRANCH  13  15
ATOM     15  O   UNL     1       5.816   5.846  17.515  0.00  0.00    +0.000 OA
BRANCH  15  16
ATOM     16  C   UNL     1       7.192   6.095  17.219  0.00  0.00    +0.000 C 
BRANCH  16  17
ATOM     17  C   UNL     1       7.821   7.081  18.194  0.00  0.00    +0.000 C 
BRANCH  17  19
ATOM     18  C   UNL     1       8.590   9.487  18.423  0.00  0.00    +0.000 C 
ATOM     19  C   UNL     1       7.841   8.480  17.572  0.00  0.00    +0.000 C 
ENDBRANCH  17  19
ENDBRANCH  16  17
ENDBRANCH  15  16
ENDBRANCH  13  15
ENDBRANCH   1  13
BRANCH   2  20
ATOM     20  C   UNL     1       2.070   8.797  18.152  0.00  0.00    +0.000 C 
ATOM     21  C   UNL     1       1.703  10.086  18.068  0.00  0.00    +0.000 C 
BRANCH  21  22
ATOM     22  C   UNL     1       0.638  10.623  18.927  0.00  0.00    +0.000 A 
ATOM     23  C   UNL     1       0.878  10.849  20.291  0.00  0.00    +0.000 A 
ATOM     24  C   UNL     1      -0.115  11.374  21.114  0.00  0.00    +0.000 A 
ATOM     25  C   UNL     1      -1.357  11.700  20.579  0.00  0.00    +0.000 A 
ATOM     26  C   UNL     1      -1.602  11.504  19.219  0.00  0.00    +0.000 A 
ATOM     27  C   UNL     1      -0.607  10.973  18.392  0.00  0.00    +0.000 A 
ENDBRANCH  21  22
ENDBRANCH   2  20
TORSDOF 9
ENDMDL
MODEL 9
REMARK VINA RESULT:      -7.6      2.997      5.612
REMARK  Name = 
REMARK  10 active torsions:
REMARK  status: ('A' for Active; 'I' for Inactive)
REMARK    1  A    between atoms: C_1  and  C_2
REMARK    2  A    between atoms: C_2  and  C_3
REMARK    3  A    between atoms: C_3  and  C_4
REMARK    4  A    between atoms: C_4  and  O_5
REMARK    5  A    between atoms: O_5  and  C_6
REMARK    6  A    between atoms: C_6  and  C_8
REMARK    7  A    between atoms: C_8  and  N_18
REMARK    8  A    between atoms: C_9  and  C_10
REMARK    9  A    between atoms: C_11  and  C_12
REMARK   10  A    between atoms: C_19  and  C_21
REMARK                            x       y       z     vdW  Elec       q    Type
REMARK                         _______ _______ _______ _____ _____    ______ ____
ROOT
ATOM      1  C   UNL     1       2.076   5.535  20.658  0.00  0.00    +0.000 C 
ATOM      2  C   UNL     1       1.256   6.573  20.917  0.00  0.00    +0.000 C 
ENDROOT
BRANCH   1   3
ATOM      3  N   UNL     1       3.330   5.611  20.076  0.00  0.00    +0.000 N 
ATOM      4  C   UNL     1       3.624   5.718  18.729  0.00  0.00    +0.000 C 
ATOM      5  O   UNL     1       2.817   5.692  17.808  0.00  0.00    +0.000 OA
ATOM      6  H   UNL     1       4.067   5.241  20.663  0.00  0.00    +0.000 HD
BRANCH   4   7
ATOM      7  C   UNL     1       5.073   5.914  18.433  0.00  0.00    +0.000 A 
ATOM      8  C   UNL     1       6.077   5.337  19.224  0.00  0.00    +0.000 A 
ATOM      9  C   UNL     1       7.407   5.716  19.044  0.00  0.00    +0.000 A 
ATOM     10  C   UNL     1       7.741   6.643  18.057  0.00  0.00    +0.000 A 
ATOM     11  C   UNL     1       6.755   7.159  17.217  0.00  0.00    +0.000 A 
ATOM     12  C   UNL     1       5.421   6.788  17.397  0.00  0.00    +0.000 A 
ENDBRANCH   4   7
ENDBRANCH   1   3
BRANCH   1  13
ATOM     13  C   UNL     1       1.663   4.138  21.058  0.00  0.00    +0.000 C 
ATOM     14  O   UNL     1       2.193   3.528  21.981  0.00  0.00    +0.000 OA
BRANCH  13  15
ATOM     15  O   UNL     1       0.704   3.648  20.238  0.00  0.00    +0.000 OA
BRANCH  15  16
ATOM     16  C   UNL     1       0.970   2.346  19.711  0.00  0.00    +0.000 C 
BRANCH  16  17
ATOM     17  C   UNL     1       1.670   2.404  18.360  0.00  0.00    +0.000 C 
BRANCH  17  19
ATOM     18  C   UNL     1       4.027   2.432  17.424  0.00  0.00    +0.000 C 
ATOM     19  C   UNL     1       3.105   1.891  18.500  0.00  0.00    +0.000 C 
ENDBRANCH  17  19
ENDBRANCH  16  17
ENDBRANCH  15  16
ENDBRANCH  13  15
ENDBRANCH   1  13
BRANCH   2  20
ATOM     20  C   UNL     1       1.488   7.971  20.643  0.00  0.00    +0.000 C 
ATOM     21  C   UNL     1       0.574   8.938  20.826  0.00  0.00    +0.000 C 
BRANCH  21  22
ATOM     22  C   UNL     1       0.824  10.309  20.359  0.00  0.00    +0.000 A 
ATOM     23  C   UNL     1       1.283  10.537  19.053  0.00  0.00    +0.000 A 
ATOM     24  C   UNL     1       1.509  11.831  18.590  0.00  0.00    +0.000 A 
ATOM     25  C   UNL     1       1.257  12.918  19.422  0.00  0.00    +0.000 A 
ATOM     26  C   UNL     1       0.776  12.707  20.714  0.00  0.00    +0.000 A 
ATOM     27  C   UNL     1       0.553  11.407  21.182  0.00  0.00    +0.000 A 
ENDBRANCH  21  22
ENDBRANCH   2  20
TORSDOF 9
ENDMDL
