MODEL 1
REMARK VINA RESULT:      -6.6      0.000      0.000
REMARK  Name = 
REMARK  5 active torsions:
REMARK  status: ('A' for Active; 'I' for Inactive)
REMARK    1  A    between atoms: C_1  and  C_2
REMARK    2  A    between atoms: C_6  and  C_7
REMARK    3  A    between atoms: C_7  and  C_8
REMARK    4  A    between atoms: C_7  and  C_10
REMARK    5  A    between atoms: C_8  and  O_9
REMARK                            x       y       z     vdW  Elec       q    Type
REMARK                         _______ _______ _______ _____ _____    ______ ____
ROOT
ATOM      1  C   UNL     1       5.559   4.242  18.224  0.00  0.00    +0.000 C 
ENDROOT
BRANCH   1   7
ATOM      2  C   UNL     1       7.465   6.902  17.265  0.00  0.00    +0.000 C 
ATOM      3  C   UNL     1       6.997   5.719  16.487  0.00  0.00    +0.000 A 
ATOM      4  N   UNL     1       7.411   5.690  15.154  0.00  0.00    +0.000 NA
ATOM      5  C   UNL     1       6.903   4.651  14.541  0.00  0.00    +0.000 A 
ATOM      6  S   UNL     1       5.886   3.665  15.472  0.00  0.00    +0.000 S 
ATOM      7  C   UNL     1       6.203   4.641  16.884  0.00  0.00    +0.000 A 
ENDBRANCH   1   7
BRANCH   1   8
ATOM      8  C   UNL     1       4.071   3.893  18.126  0.00  0.00    +0.000 A 
ATOM      9  C   UNL     1       3.601   2.582  18.370  0.00  0.00    +0.000 A 
ATOM     10  C   UNL     1       2.232   2.301  18.364  0.00  0.00    +0.000 A 
ATOM     11  C   UNL     1       1.304   3.312  18.120  0.00  0.00    +0.000 A 
ATOM     12  C   UNL     1       1.751   4.603  17.854  0.00  0.00    +0.000 A 
ATOM     13  C   UNL     1       3.118   4.885  17.844  0.00  0.00    +0.000 A 
ENDBRANCH   1   8
BRANCH   1  14
ATOM     14  C   UNL     1       5.778   5.345  19.313  0.00  0.00    +0.000 C 
BRANCH  14  15
ATOM     15  O   UNL     1       6.993   5.208  20.043  0.00  0.00    +0.000 OA
ATOM     16  H   UNL     1       7.582   4.640  19.518  0.00  0.00    +0.000 HD
ENDBRANCH  14  15
ENDBRANCH   1  14
TORSDOF 4
ENDMDL
MODEL 2
REMARK VINA RESULT:      -6.6      1.901      2.528
REMARK  Name = 
REMARK  5 active torsions:
REMARK  status: ('A' for Active; 'I' for Inactive)
REMARK    1  A    between atoms: C_1  and  C_2
REMARK    2  A    between atoms: C_6  and  C_7
REMARK    3  A    between atoms: C_7  and  C_8
REMARK    4  A    between atoms: C_7  and  C_10
REMARK    5  A    between atoms: C_8  and  O_9
REMARK                            x       y       z     vdW  Elec       q    Type
REMARK                         _______ _______ _______ _____ _____    ______ ____
ROOT
ATOM      1  C   UNL     1       4.692   4.650  17.941  0.00  0.00    +0.000 C 
ENDROOT
BRANCH   1   7
ATOM      2  C   UNL     1       7.403   6.714  17.815  0.00  0.00    +0.000 C 
ATOM      3  C   UNL     1       6.850   5.783  16.789  0.00  0.00    +0.000 A 
ATOM      4  N   UNL     1       7.559   5.743  15.588  0.00  0.00    +0.000 NA
ATOM      5  C   UNL     1       6.965   4.947  14.735  0.00  0.00    +0.000 A 
ATOM      6  S   UNL     1       5.528   4.226  15.270  0.00  0.00    +0.000 S 
ATOM      7  C   UNL     1       5.729   4.953  16.844  0.00  0.00    +0.000 A 
ENDBRANCH   1   7
BRANCH   1   8
ATOM      8  C   UNL     1       3.760   5.822  18.264  0.00  0.00    +0.000 A 
ATOM      9  C   UNL     1       3.006   5.859  19.459  0.00  0.00    +0.000 A 
ATOM     10  C   UNL     1       2.230   6.977  19.780  0.00  0.00    +0.000 A 
ATOM     11  C   UNL     1       2.189   8.077  18.926  0.00  0.00    +0.000 A 
ATOM     12  C   UNL     1       2.906   8.047  17.734  0.00  0.00    +0.000 A 
ATOM     13  C   UNL     1       3.670   6.927  17.402  0.00  0.00    +0.000 A 
ENDBRANCH   1   8
BRANCH   1  14
ATOM     14  C   UNL     1       5.381   4.139  19.252  0.00  0.00    +0.000 C 
BRANCH  14  15
ATOM     15  O   UNL     1       5.150   2.762  19.529  0.00  0.00    +0.000 OA
ATOM     16  H   UNL     1       4.523   2.434  18.863  0.00  0.00    +0.000 HD
ENDBRANCH  14  15
ENDBRANCH   1  14
TORSDOF 4
ENDMDL
MODEL 3
REMARK VINA RESULT:      -6.6      2.353      3.341
REMARK  Name = 
REMARK  5 active torsions:
REMARK  status: ('A' for Active; 'I' for Inactive)
REMARK    1  A    between atoms: C_1  and  C_2
REMARK    2  A    between atoms: C_6  and  C_7
REMARK    3  A    between atoms: C_7  and  C_8
REMARK    4  A    between atoms: C_7  and  C_10
REMARK    5  A    between atoms: C_8  and  O_9
REMARK                            x       y       z     vdW  Elec       q    Type
REMARK                         _______ _______ _______ _____ _____    ______ ____
ROOT
ATOM      1  C   UNL     1       3.711   4.493  17.359  0.00  0.00    +0.000 C 
ENDROOT
BRANCH   1   7
ATOM      2  C   UNL     1       5.993   3.975  14.879  0.00  0.00    +0.000 C 
ATOM      3  C   UNL     1       6.187   4.391  16.298  0.00  0.00    +0.000 A 
ATOM      4  N   UNL     1       7.514   4.612  16.670  0.00  0.00    +0.000 NA
ATOM      5  C   UNL     1       7.586   4.913  17.942  0.00  0.00    +0.000 A 
ATOM      6  S   UNL     1       6.117   4.922  18.786  0.00  0.00    +0.000 S 
ATOM      7  C   UNL     1       5.247   4.585  17.311  0.00  0.00    +0.000 A 
ENDBRANCH   1   7
BRANCH   1   8
ATOM      8  C   UNL     1       3.067   5.313  18.480  0.00  0.00    +0.000 A 
ATOM      9  C   UNL     1       2.954   6.720  18.395  0.00  0.00    +0.000 A 
ATOM     10  C   UNL     1       2.284   7.444  19.386  0.00  0.00    +0.000 A 
ATOM     11  C   UNL     1       1.712   6.789  20.475  0.00  0.00    +0.000 A 
ATOM     12  C   UNL     1       1.835   5.408  20.586  0.00  0.00    +0.000 A 
ATOM     13  C   UNL     1       2.517   4.682  19.607  0.00  0.00    +0.000 A 
ENDBRANCH   1   8
BRANCH   1  14
ATOM     14  C   UNL     1       3.232   3.004  17.444  0.00  0.00    +0.000 C 
BRANCH  14  15
ATOM     15  O   UNL     1       4.234   2.097  17.891  0.00  0.00    +0.000 OA
ATOM     16  H   UNL     1       5.097   2.507  17.710  0.00  0.00    +0.000 HD
ENDBRANCH  14  15
ENDBRANCH   1  14
TORSDOF 4
ENDMDL
MODEL 4
REMARK VINA RESULT:      -6.6      2.292      3.123
REMARK  Name = 
REMARK  5 active torsions:
REMARK  status: ('A' for Active; 'I' for Inactive)
REMARK    1  A    between atoms: C_1  and  C_2
REMARK    2  A    between atoms: C_6  and  C_7
REMARK    3  A    between atoms: C_7  and  C_8
REMARK    4  A    between atoms: C_7  and  C_10
REMARK    5  A    between atoms: C_8  and  O_9
REMARK                            x       y       z     vdW  Elec       q    Type
REMARK                         _______ _______ _______ _____ _____    ______ ____
ROOT
ATOM      1  C   UNL     1       3.716   4.339  17.336  0.00  0.00    +0.000 C 
ENDROOT
BRANCH   1   7
ATOM      2  C   UNL     1       6.060   3.885  14.902  0.00  0.00    +0.000 C 
ATOM      3  C   UNL     1       6.211   4.338  16.315  0.00  0.00    +0.000 A 
ATOM      4  N   UNL     1       7.519   4.632  16.702  0.00  0.00    +0.000 NA
ATOM      5  C   UNL     1       7.556   4.962  17.969  0.00  0.00    +0.000 A 
ATOM      6  S   UNL     1       6.075   4.915  18.791  0.00  0.00    +0.000 S 
ATOM      7  C   UNL     1       5.246   4.506  17.310  0.00  0.00    +0.000 A 
ENDBRANCH   1   7
BRANCH   1   8
ATOM      8  C   UNL     1       3.001   5.262  18.326  0.00  0.00    +0.000 A 
ATOM      9  C   UNL     1       2.427   4.765  19.519  0.00  0.00    +0.000 A 
ATOM     10  C   UNL     1       1.856   5.633  20.454  0.00  0.00    +0.000 A 
ATOM     11  C   UNL     1       1.847   7.008  20.228  0.00  0.00    +0.000 A 
ATOM     12  C   UNL     1       2.386   7.512  19.048  0.00  0.00    +0.000 A 
ATOM     13  C   UNL     1       2.943   6.647  18.104  0.00  0.00    +0.000 A 
ENDBRANCH   1   8
BRANCH   1  14
ATOM     14  C   UNL     1       3.310   2.850  17.606  0.00  0.00    +0.000 C 
BRANCH  14  15
ATOM     15  O   UNL     1       4.311   2.087  18.272  0.00  0.00    +0.000 OA
ATOM     16  H   UNL     1       4.404   2.453  19.168  0.00  0.00    +0.000 HD
ENDBRANCH  14  15
ENDBRANCH   1  14
TORSDOF 4
ENDMDL
MODEL 5
REMARK VINA RESULT:      -6.6      2.274      2.905
REMARK  Name = 
REMARK  5 active torsions:
REMARK  status: ('A' for Active; 'I' for Inactive)
REMARK    1  A    between atoms: C_1  and  C_2
REMARK    2  A    between atoms: C_6  and  C_7
REMARK    3  A    between atoms: C_7  and  C_8
REMARK    4  A    between atoms: C_7  and  C_10
REMARK    5  A    between atoms: C_8  and  O_9
REMARK                            x       y       z     vdW  Elec       q    Type
REMARK                         _______ _______ _______ _____ _____    ______ ____
ROOT
ATOM      1  C   UNL     1       3.664   4.000  17.346  0.00  0.00    +0.000 C 
ENDROOT
BRANCH   1   7
ATOM      2  C   UNL     1       6.384   5.156  19.046  0.00  0.00    +0.000 C 
ATOM      3  C   UNL     1       6.223   4.810  17.605  0.00  0.00    +0.000 A 
ATOM      4  N   UNL     1       7.370   4.977  16.827  0.00  0.00    +0.000 NA
ATOM      5  C   UNL     1       7.113   4.706  15.572  0.00  0.00    +0.000 A 
ATOM      6  S   UNL     1       5.512   4.274  15.220  0.00  0.00    +0.000 S 
ATOM      7  C   UNL     1       5.099   4.351  16.914  0.00  0.00    +0.000 A 
ENDBRANCH   1   7
BRANCH   1   8
ATOM      8  C   UNL     1       3.018   5.032  18.274  0.00  0.00    +0.000 A 
ATOM      9  C   UNL     1       2.494   4.668  19.535  0.00  0.00    +0.000 A 
ATOM     10  C   UNL     1       1.989   5.636  20.407  0.00  0.00    +0.000 A 
ATOM     11  C   UNL     1       1.997   6.983  20.048  0.00  0.00    +0.000 A 
ATOM     12  C   UNL     1       2.488   7.357  18.801  0.00  0.00    +0.000 A 
ATOM     13  C   UNL     1       2.979   6.391  17.921  0.00  0.00    +0.000 A 
ENDBRANCH   1   8
BRANCH   1  14
ATOM     14  C   UNL     1       3.598   2.578  18.000  0.00  0.00    +0.000 C 
BRANCH  14  15
ATOM     15  O   UNL     1       2.456   1.818  17.622  0.00  0.00    +0.000 OA
ATOM     16  H   UNL     1       2.690   0.879  17.717  0.00  0.00    +0.000 HD
ENDBRANCH  14  15
ENDBRANCH   1  14
TORSDOF 4
ENDMDL
MODEL 6
REMARK VINA RESULT:      -6.6      0.119      1.249
REMARK  Name = 
REMARK  5 active torsions:
REMARK  status: ('A' for Active; 'I' for Inactive)
REMARK    1  A    between atoms: C_1  and  C_2
REMARK    2  A    between atoms: C_6  and  C_7
REMARK    3  A    between atoms: C_7  and  C_8
REMARK    4  A    between atoms: C_7  and  C_10
REMARK    5  A    between atoms: C_8  and  O_9
REMARK                            x       y       z     vdW  Elec       q    Type
REMARK                         _______ _______ _______ _____ _____    ______ ____
ROOT
ATOM      1  C   UNL     1       5.614   4.280  18.308  0.00  0.00    +0.000 C 
ENDROOT
BRANCH   1   7
ATOM      2  C   UNL     1       7.472   6.939  17.256  0.00  0.00    +0.000 C 
ATOM      3  C   UNL     1       6.997   5.738  16.511  0.00  0.00    +0.000 A 
ATOM      4  N   UNL     1       7.380   5.688  15.169  0.00  0.00    +0.000 NA
ATOM      5  C   UNL     1       6.868   4.633  14.588  0.00  0.00    +0.000 A 
ATOM      6  S   UNL     1       5.882   3.656  15.560  0.00  0.00    +0.000 S 
ATOM      7  C   UNL     1       6.222   4.661  16.946  0.00  0.00    +0.000 A 
ENDBRANCH   1   7
BRANCH   1   8
ATOM      8  C   UNL     1       4.111   3.988  18.264  0.00  0.00    +0.000 A 
ATOM      9  C   UNL     1       3.169   5.002  17.974  0.00  0.00    +0.000 A 
ATOM     10  C   UNL     1       1.810   4.701  17.850  0.00  0.00    +0.000 A 
ATOM     11  C   UNL     1       1.360   3.391  18.006  0.00  0.00    +0.000 A 
ATOM     12  C   UNL     1       2.270   2.385  18.314  0.00  0.00    +0.000 A 
ATOM     13  C   UNL     1       3.626   2.684  18.455  0.00  0.00    +0.000 A 
ENDBRANCH   1   8
BRANCH   1  14
ATOM     14  C   UNL     1       5.914   5.371  19.391  0.00  0.00    +0.000 C 
BRANCH  14  15
ATOM     15  O   UNL     1       7.158   5.196  20.061  0.00  0.00    +0.000 OA
ATOM     16  H   UNL     1       7.097   4.373  20.574  0.00  0.00    +0.000 HD
ENDBRANCH  14  15
ENDBRANCH   1  14
TORSDOF 4
ENDMDL
MODEL 7
REMARK VINA RESULT:      -6.5      2.268      3.080
REMARK  Name = 
REMARK  5 active torsions:
REMARK  status: ('A' for Active; 'I' for Inactive)
REMARK    1  A    between atoms: C_1  and  C_2
REMARK    2  A    between atoms: C_6  and  C_7
REMARK    3  A    between atoms: C_7  and  C_8
REMARK    4  A    between atoms: C_7  and  C_10
REMARK    5  A    between atoms: C_8  and  O_9
REMARK                            x       y       z     vdW  Elec       q    Type
REMARK                         _______ _______ _______ _____ _____    ______ ____
ROOT
ATOM      1  C   UNL     1       3.720   4.030  17.383  0.00  0.00    +0.000 C 
ENDROOT
BRANCH   1   7
ATOM      2  C   UNL     1       6.524   5.147  18.968  0.00  0.00    +0.000 C 
ATOM      3  C   UNL     1       6.302   4.789  17.538  0.00  0.00    +0.000 A 
ATOM      4  N   UNL     1       7.423   4.924  16.716  0.00  0.00    +0.000 NA
ATOM      5  C   UNL     1       7.114   4.645  15.475  0.00  0.00    +0.000 A 
ATOM      6  S   UNL     1       5.493   4.243  15.187  0.00  0.00    +0.000 S 
ATOM      7  C   UNL     1       5.145   4.346  16.894  0.00  0.00    +0.000 A 
ENDBRANCH   1   7
BRANCH   1   8
ATOM      8  C   UNL     1       3.148   5.061  18.359  0.00  0.00    +0.000 A 
ATOM      9  C   UNL     1       3.057   6.431  18.019  0.00  0.00    +0.000 A 
ATOM     10  C   UNL     1       2.450   7.344  18.886  0.00  0.00    +0.000 A 
ATOM     11  C   UNL     1       1.921   6.918  20.103  0.00  0.00    +0.000 A 
ATOM     12  C   UNL     1       2.023   5.578  20.464  0.00  0.00    +0.000 A 
ATOM     13  C   UNL     1       2.642   4.666  19.608  0.00  0.00    +0.000 A 
ENDBRANCH   1   8
BRANCH   1  14
ATOM     14  C   UNL     1       3.638   2.597  18.011  0.00  0.00    +0.000 C 
BRANCH  14  15
ATOM     15  O   UNL     1       2.511   1.840  17.584  0.00  0.00    +0.000 OA
ATOM     16  H   UNL     1       1.751   2.446  17.552  0.00  0.00    +0.000 HD
ENDBRANCH  14  15
ENDBRANCH   1  14
TORSDOF 4
ENDMDL
MODEL 8
REMARK VINA RESULT:      -6.5      1.582      1.817
REMARK  Name = 
REMARK  5 active torsions:
REMARK  status: ('A' for Active; 'I' for Inactive)
REMARK    1  A    between atoms: C_1  and  C_2
REMARK    2  A    between atoms: C_6  and  C_7
REMARK    3  A    between atoms: C_7  and  C_8
REMARK    4  A    between atoms: C_7  and  C_10
REMARK    5  A    between atoms: C_8  and  O_9
REMARK                            x       y       z     vdW  Elec       q    Type
REMARK                         _______ _______ _______ _____ _____    ______ ____
ROOT
ATOM      1  C   UNL     1       4.429   5.700  18.050  0.00  0.00    +0.000 C 
ENDROOT
BRANCH   1   7
ATOM      2  C   UNL     1       7.439   7.227  17.565  0.00  0.00    +0.000 C 
ATOM      3  C   UNL     1       6.792   6.110  16.818  0.00  0.00    +0.000 A 
ATOM      4  N   UNL     1       7.540   5.602  15.755  0.00  0.00    +0.000 NA
ATOM      5  C   UNL     1       6.866   4.671  15.128  0.00  0.00    +0.000 A 
ATOM      6  S   UNL     1       5.309   4.358  15.718  0.00  0.00    +0.000 S 
ATOM      7  C   UNL     1       5.551   5.501  17.015  0.00  0.00    +0.000 A 
ENDBRANCH   1   7
BRANCH   1   8
ATOM      8  C   UNL     1       3.565   4.458  18.284  0.00  0.00    +0.000 A 
ATOM      9  C   UNL     1       4.048   3.347  19.014  0.00  0.00    +0.000 A 
ATOM     10  C   UNL     1       3.216   2.260  19.295  0.00  0.00    +0.000 A 
ATOM     11  C   UNL     1       1.891   2.254  18.863  0.00  0.00    +0.000 A 
ATOM     12  C   UNL     1       1.406   3.328  18.123  0.00  0.00    +0.000 A 
ATOM     13  C   UNL     1       2.238   4.409  17.827  0.00  0.00    +0.000 A 
ENDBRANCH   1   8
BRANCH   1  14
ATOM     14  C   UNL     1       3.521   6.921  17.678  0.00  0.00    +0.000 C 
BRANCH  14  15
ATOM     15  O   UNL     1       2.837   7.494  18.787  0.00  0.00    +0.000 OA
ATOM     16  H   UNL     1       2.137   6.872  19.048  0.00  0.00    +0.000 HD
ENDBRANCH  14  15
ENDBRANCH   1  14
TORSDOF 4
ENDMDL
MODEL 9
REMARK VINA RESULT:      -6.5      2.086      2.824
REMARK  Name = 
REMARK  5 active torsions:
REMARK  status: ('A' for Active; 'I' for Inactive)
REMARK    1  A    between atoms: C_1  and  C_2
REMARK    2  A    between atoms: C_6  and  C_7
REMARK    3  A    between atoms: C_7  and  C_8
REMARK    4  A    between atoms: C_7  and  C_10
REMARK    5  A    between atoms: C_8  and  O_9
REMARK                            x       y       z     vdW  Elec       q    Type
REMARK                         _______ _______ _______ _____ _____    ______ ____
ROOT
ATOM      1  C   UNL     1       4.317   4.267  18.054  0.00  0.00    +0.000 C 
ENDROOT
BRANCH   1   7
ATOM      2  C   UNL     1       7.429   5.538  18.624  0.00  0.00    +0.000 C 
ATOM      3  C   UNL     1       6.816   5.010  17.371  0.00  0.00    +0.000 A 
ATOM      4  N   UNL     1       7.652   5.032  16.253  0.00  0.00    +0.000 NA
ATOM      5  C   UNL     1       7.009   4.607  15.195  0.00  0.00    +0.000 A 
ATOM      6  S   UNL     1       5.384   4.190  15.433  0.00  0.00    +0.000 S 
ATOM      7  C   UNL     1       5.535   4.505  17.143  0.00  0.00    +0.000 A 
ENDBRANCH   1   7
BRANCH   1   8
ATOM      8  C   UNL     1       3.598   5.546  18.489  0.00  0.00    +0.000 A 
ATOM      9  C   UNL     1       3.574   6.697  17.667  0.00  0.00    +0.000 A 
ATOM     10  C   UNL     1       2.839   7.826  18.039  0.00  0.00    +0.000 A 
ATOM     11  C   UNL     1       2.112   7.835  19.229  0.00  0.00    +0.000 A 
ATOM     12  C   UNL     1       2.144   6.720  20.060  0.00  0.00    +0.000 A 
ATOM     13  C   UNL     1       2.889   5.596  19.700  0.00  0.00    +0.000 A 
ENDBRANCH   1   8
BRANCH   1  14
ATOM     14  C   UNL     1       4.704   3.417  19.312  0.00  0.00    +0.000 C 
BRANCH  14  15
ATOM     15  O   UNL     1       4.370   2.038  19.206  0.00  0.00    +0.000 OA
ATOM     16  H   UNL     1       3.492   1.984  18.790  0.00  0.00    +0.000 HD
ENDBRANCH  14  15
ENDBRANCH   1  14
TORSDOF 4
ENDMDL
