MODEL 1
REMARK VINA RESULT:      -3.7      0.000      0.000
REMARK  Name = 
REMARK  3 active torsions:
REMARK  status: ('A' for Active; 'I' for Inactive)
REMARK    1  A    between atoms: C_1  and  C_2
REMARK    2  A    between atoms: C_3  and  C_4
REMARK    3  A    between atoms: C_3  and  C_5
REMARK                            x       y       z     vdW  Elec       q    Type
REMARK                         _______ _______ _______ _____ _____    ______ ____
ROOT
ATOM      1  C   UNL     1       6.762   4.469  16.600  0.00  0.00    +0.000 C 
ATOM      2  C   UNL     1       7.080   5.933  16.601  0.00  0.00    +0.000 C 
ATOM      3  C   UNL     1       7.467   6.636  17.685  0.00  0.00    +0.000 C 
ATOM      4  C   UNL     1       7.775   8.103  17.640  0.00  0.00    +0.000 C 
ENDROOT
BRANCH   3   5
ATOM      5  C   UNL     1       7.600   5.927  19.023  0.00  0.00    +0.000 C 
ATOM      6  N   UNL     1       7.712   5.339  20.132  0.00  0.00    +0.000 NA
ENDBRANCH   3   5
TORSDOF 1
ENDMDL
MODEL 2
REMARK VINA RESULT:      -3.6      6.630      7.819
REMARK  Name = 
REMARK  3 active torsions:
REMARK  status: ('A' for Active; 'I' for Inactive)
REMARK    1  A    between atoms: C_1  and  C_2
REMARK    2  A    between atoms: C_3  and  C_4
REMARK    3  A    between atoms: C_3  and  C_5
REMARK                            x       y       z     vdW  Elec       q    Type
REMARK                         _______ _______ _______ _____ _____    ______ ____
ROOT
ATOM      1  C   UNL     1       3.406   3.086  10.512  0.00  0.00    +0.000 C 
ATOM      2  C   UNL     1       4.271   3.638  11.603  0.00  0.00    +0.000 C 
ATOM      3  C   UNL     1       5.414   3.071  12.041  0.00  0.00    +0.000 C 
ATOM      4  C   UNL     1       6.251   3.659  13.137  0.00  0.00    +0.000 C 
ENDROOT
BRANCH   3   5
ATOM      5  C   UNL     1       5.892   1.775  11.406  0.00  0.00    +0.000 C 
ATOM      6  N   UNL     1       6.288   0.700  10.880  0.00  0.00    +0.000 NA
ENDBRANCH   3   5
TORSDOF 1
ENDMDL
MODEL 3
REMARK VINA RESULT:      -3.5      5.664      6.374
REMARK  Name = 
REMARK  3 active torsions:
REMARK  status: ('A' for Active; 'I' for Inactive)
REMARK    1  A    between atoms: C_1  and  C_2
REMARK    2  A    between atoms: C_3  and  C_4
REMARK    3  A    between atoms: C_3  and  C_5
REMARK                            x       y       z     vdW  Elec       q    Type
REMARK                         _______ _______ _______ _____ _____    ______ ____
ROOT
ATOM      1  C   UNL     1       1.512   2.725  21.547  0.00  0.00    +0.000 C 
ATOM      2  C   UNL     1       1.153   3.299  20.211  0.00  0.00    +0.000 C 
ATOM      3  C   UNL     1       2.033   3.557  19.222  0.00  0.00    +0.000 C 
ATOM      4  C   UNL     1       1.630   4.132  17.897  0.00  0.00    +0.000 C 
ENDROOT
BRANCH   3   5
ATOM      5  C   UNL     1       3.508   3.258  19.442  0.00  0.00    +0.000 C 
ATOM      6  N   UNL     1       4.730   3.011  19.626  0.00  0.00    +0.000 NA
ENDBRANCH   3   5
TORSDOF 1
ENDMDL
MODEL 4
REMARK VINA RESULT:      -3.5      6.142      6.790
REMARK  Name = 
REMARK  3 active torsions:
REMARK  status: ('A' for Active; 'I' for Inactive)
REMARK    1  A    between atoms: C_1  and  C_2
REMARK    2  A    between atoms: C_3  and  C_4
REMARK    3  A    between atoms: C_3  and  C_5
REMARK                            x       y       z     vdW  Elec       q    Type
REMARK                         _______ _______ _______ _____ _____    ______ ____
ROOT
ATOM      1  C   UNL     1       1.307   2.834  21.261  0.00  0.00    +0.000 C 
ATOM      2  C   UNL     1       1.116   3.734  20.079  0.00  0.00    +0.000 C 
ATOM      3  C   UNL     1       1.711   3.566  18.880  0.00  0.00    +0.000 C 
ATOM      4  C   UNL     1       1.491   4.492  17.721  0.00  0.00    +0.000 C 
ENDROOT
BRANCH   3   5
ATOM      5  C   UNL     1       2.653   2.391  18.675  0.00  0.00    +0.000 C 
ATOM      6  N   UNL     1       3.434   1.415  18.505  0.00  0.00    +0.000 NA
ENDBRANCH   3   5
TORSDOF 1
ENDMDL
MODEL 5
REMARK VINA RESULT:      -3.5      0.612      2.496
REMARK  Name = 
REMARK  3 active torsions:
REMARK  status: ('A' for Active; 'I' for Inactive)
REMARK    1  A    between atoms: C_1  and  C_2
REMARK    2  A    between atoms: C_3  and  C_4
REMARK    3  A    between atoms: C_3  and  C_5
REMARK                            x       y       z     vdW  Elec       q    Type
REMARK                         _______ _______ _______ _____ _____    ______ ____
ROOT
ATOM      1  C   UNL     1       8.482   8.732  18.510  0.00  0.00    +0.000 C 
ATOM      2  C   UNL     1       7.783   7.916  17.466  0.00  0.00    +0.000 C 
ATOM      3  C   UNL     1       7.353   6.649  17.638  0.00  0.00    +0.000 C 
ATOM      4  C   UNL     1       6.657   5.869  16.564  0.00  0.00    +0.000 C 
ENDROOT
BRANCH   3   5
ATOM      5  C   UNL     1       7.577   5.964  18.976  0.00  0.00    +0.000 C 
ATOM      6  N   UNL     1       7.763   5.395  20.086  0.00  0.00    +0.000 NA
ENDBRANCH   3   5
TORSDOF 1
ENDMDL
MODEL 6
REMARK VINA RESULT:      -3.5      5.744      6.452
REMARK  Name = 
REMARK  3 active torsions:
REMARK  status: ('A' for Active; 'I' for Inactive)
REMARK    1  A    between atoms: C_1  and  C_2
REMARK    2  A    between atoms: C_3  and  C_4
REMARK    3  A    between atoms: C_3  and  C_5
REMARK                            x       y       z     vdW  Elec       q    Type
REMARK                         _______ _______ _______ _____ _____    ______ ____
ROOT
ATOM      1  C   UNL     1       1.699   4.019  17.914  0.00  0.00    +0.000 C 
ATOM      2  C   UNL     1       1.224   3.591  19.269  0.00  0.00    +0.000 C 
ATOM      3  C   UNL     1       2.016   3.090  20.239  0.00  0.00    +0.000 C 
ATOM      4  C   UNL     1       1.498   2.674  21.583  0.00  0.00    +0.000 C 
ENDROOT
BRANCH   3   5
ATOM      5  C   UNL     1       3.505   2.932  19.977  0.00  0.00    +0.000 C 
ATOM      6  N   UNL     1       4.740   2.800  19.759  0.00  0.00    +0.000 NA
ENDBRANCH   3   5
TORSDOF 1
ENDMDL
MODEL 7
REMARK VINA RESULT:      -3.5      5.741      6.604
REMARK  Name = 
REMARK  3 active torsions:
REMARK  status: ('A' for Active; 'I' for Inactive)
REMARK    1  A    between atoms: C_1  and  C_2
REMARK    2  A    between atoms: C_3  and  C_4
REMARK    3  A    between atoms: C_3  and  C_5
REMARK                            x       y       z     vdW  Elec       q    Type
REMARK                         _______ _______ _______ _____ _____    ______ ____
ROOT
ATOM      1  C   UNL     1       1.435   2.826  21.459  0.00  0.00    +0.000 C 
ATOM      2  C   UNL     1       1.395   2.747  19.963  0.00  0.00    +0.000 C 
ATOM      3  C   UNL     1       2.459   2.482  19.178  0.00  0.00    +0.000 C 
ATOM      4  C   UNL     1       2.375   2.412  17.683  0.00  0.00    +0.000 C 
ENDROOT
BRANCH   3   5
ATOM      5  C   UNL     1       3.816   2.241  19.820  0.00  0.00    +0.000 C 
ATOM      6  N   UNL     1       4.941   2.042  20.352  0.00  0.00    +0.000 NA
ENDBRANCH   3   5
TORSDOF 1
ENDMDL
MODEL 8
REMARK VINA RESULT:      -3.5      6.347      7.083
REMARK  Name = 
REMARK  3 active torsions:
REMARK  status: ('A' for Active; 'I' for Inactive)
REMARK    1  A    between atoms: C_1  and  C_2
REMARK    2  A    between atoms: C_3  and  C_4
REMARK    3  A    between atoms: C_3  and  C_5
REMARK                            x       y       z     vdW  Elec       q    Type
REMARK                         _______ _______ _______ _____ _____    ______ ____
ROOT
ATOM      1  C   UNL     1       2.239   6.481  19.891  0.00  0.00    +0.000 C 
ATOM      2  C   UNL     1       1.909   5.272  20.712  0.00  0.00    +0.000 C 
ATOM      3  C   UNL     1       1.547   4.074  20.207  0.00  0.00    +0.000 C 
ATOM      4  C   UNL     1       1.226   2.889  21.067  0.00  0.00    +0.000 C 
ENDROOT
BRANCH   3   5
ATOM      5  C   UNL     1       1.454   3.900  18.700  0.00  0.00    +0.000 C 
ATOM      6  N   UNL     1       1.377   3.755  17.450  0.00  0.00    +0.000 NA
ENDBRANCH   3   5
TORSDOF 1
ENDMDL
MODEL 9
REMARK VINA RESULT:      -3.4      6.102      6.433
REMARK  Name = 
REMARK  3 active torsions:
REMARK  status: ('A' for Active; 'I' for Inactive)
REMARK    1  A    between atoms: C_1  and  C_2
REMARK    2  A    between atoms: C_3  and  C_4
REMARK    3  A    between atoms: C_3  and  C_5
REMARK                            x       y       z     vdW  Elec       q    Type
REMARK                         _______ _______ _______ _____ _____    ______ ____
ROOT
ATOM      1  C   UNL     1       0.932   2.447  18.749  0.00  0.00    +0.000 C 
ATOM      2  C   UNL     1       1.315   3.890  18.864  0.00  0.00    +0.000 C 
ATOM      3  C   UNL     1       1.849   4.460  19.964  0.00  0.00    +0.000 C 
ATOM      4  C   UNL     1       2.219   5.911  20.036  0.00  0.00    +0.000 C 
ENDROOT
BRANCH   3   5
ATOM      5  C   UNL     1       2.092   3.608  21.200  0.00  0.00    +0.000 C 
ATOM      6  N   UNL     1       2.293   2.902  22.224  0.00  0.00    +0.000 NA
ENDBRANCH   3   5
TORSDOF 1
ENDMDL
