MODEL 1
REMARK VINA RESULT:      -8.7      0.000      0.000
REMARK  Name = 
REMARK  4 active torsions:
REMARK  status: ('A' for Active; 'I' for Inactive)
REMARK    1  A    between atoms: C_1  and  C_2
REMARK    2  A    between atoms: C_7  and  N_8
REMARK    3  A    between atoms: N_11  and  C_12
REMARK    4  A    between atoms: C_20  and  O_21
REMARK                            x       y       z     vdW  Elec       q    Type
REMARK                         _______ _______ _______ _____ _____    ______ ____
ROOT
ATOM      1  C   UNL     1       4.229   6.409  17.251  0.00  0.00    +0.000 A 
ATOM      2  C   UNL     1       3.917   7.765  17.053  0.00  0.00    +0.000 A 
ATOM      3  C   UNL     1       2.950   8.421  17.837  0.00  0.00    +0.000 A 
ATOM      4  C   UNL     1       2.271   7.733  18.838  0.00  0.00    +0.000 A 
ATOM      5  C   UNL     1       2.571   6.393  18.999  0.00  0.00    +0.000 A 
ATOM      6  C   UNL     1       3.534   5.718  18.232  0.00  0.00    +0.000 A 
ATOM      7  C   UNL     1       3.743   4.366  18.840  0.00  0.00    +0.000 C 
ATOM      8  C   UNL     1       3.947   3.139  17.972  0.00  0.00    +0.000 C 
ATOM      9  C   UNL     1       3.988   1.916  18.889  0.00  0.00    +0.000 C 
ATOM     10  C   UNL     1       2.639   1.757  19.593  0.00  0.00    +0.000 C 
ATOM     11  C   UNL     1       2.320   2.998  20.428  0.00  0.00    +0.000 C 
ATOM     12  N   UNL     1       2.560   4.217  19.678  0.00  0.00    +0.000 N 
ATOM     13  C   UNL     1       1.986   5.442  19.959  0.00  0.00    +0.000 C 
ATOM     14  O   UNL     1       1.155   5.715  20.804  0.00  0.00    +0.000 OA
ENDROOT
BRANCH   1  18
ATOM     15  N   UNL     1       7.285   5.405  15.524  0.00  0.00    +0.000 N 
ATOM     16  C   UNL     1       6.532   5.978  16.506  0.00  0.00    +0.000 C 
ATOM     17  O   UNL     1       7.109   6.632  17.374  0.00  0.00    +0.000 OA
ATOM     18  N   UNL     1       5.183   5.772  16.452  0.00  0.00    +0.000 N 
ATOM     19  H   UNL     1       8.264   5.630  15.625  0.00  0.00    +0.000 HD
ATOM     20  H   UNL     1       4.912   5.001  15.851  0.00  0.00    +0.000 HD
BRANCH  15  27
ATOM     21  C   UNL     1       8.716   5.868  13.025  0.00  0.00    +0.000 C 
ATOM     22  C   UNL     1       7.526   4.963  13.159  0.00  0.00    +0.000 A 
ATOM     23  C   UNL     1       7.042   4.308  12.018  0.00  0.00    +0.000 A 
ATOM     24  C   UNL     1       5.942   3.464  12.109  0.00  0.00    +0.000 A 
ATOM     25  C   UNL     1       5.366   3.284  13.348  0.00  0.00    +0.000 A 
ATOM     26  N   UNL     1       5.805   3.892  14.474  0.00  0.00    +0.000 NA
ATOM     27  C   UNL     1       6.865   4.730  14.370  0.00  0.00    +0.000 A 
ENDBRANCH  15  27
ENDBRANCH   1  18
BRANCH   9  28
ATOM     28  O   UNL     1       4.293   0.755  18.128  0.00  0.00    +0.000 OA
ATOM     29  H   UNL     1       4.783   0.148  18.719  0.00  0.00    +0.000 HD
ENDBRANCH   9  28
TORSDOF 3
ENDMDL
MODEL 2
REMARK VINA RESULT:      -8.1      0.753      1.448
REMARK  Name = 
REMARK  4 active torsions:
REMARK  status: ('A' for Active; 'I' for Inactive)
REMARK    1  A    between atoms: C_1  and  C_2
REMARK    2  A    between atoms: C_7  and  N_8
REMARK    3  A    between atoms: N_11  and  C_12
REMARK    4  A    between atoms: C_20  and  O_21
REMARK                            x       y       z     vdW  Elec       q    Type
REMARK                         _______ _______ _______ _____ _____    ______ ____
ROOT
ATOM      1  C   UNL     1       4.260   6.451  17.412  0.00  0.00    +0.000 A 
ATOM      2  C   UNL     1       3.935   7.786  17.114  0.00  0.00    +0.000 A 
ATOM      3  C   UNL     1       2.934   8.477  17.822  0.00  0.00    +0.000 A 
ATOM      4  C   UNL     1       2.232   7.846  18.843  0.00  0.00    +0.000 A 
ATOM      5  C   UNL     1       2.546   6.525  19.103  0.00  0.00    +0.000 A 
ATOM      6  C   UNL     1       3.543   5.816  18.414  0.00  0.00    +0.000 A 
ATOM      7  C   UNL     1       3.751   4.511  19.118  0.00  0.00    +0.000 C 
ATOM      8  C   UNL     1       4.000   3.232  18.340  0.00  0.00    +0.000 C 
ATOM      9  C   UNL     1       4.028   2.074  19.337  0.00  0.00    +0.000 C 
ATOM     10  C   UNL     1       2.659   1.940  20.007  0.00  0.00    +0.000 C 
ATOM     11  C   UNL     1       2.295   3.228  20.747  0.00  0.00    +0.000 C 
ATOM     12  N   UNL     1       2.543   4.399  19.926  0.00  0.00    +0.000 N 
ATOM     13  C   UNL     1       1.943   5.630  20.105  0.00  0.00    +0.000 C 
ATOM     14  O   UNL     1       1.080   5.945  20.903  0.00  0.00    +0.000 OA
ENDROOT
BRANCH   1  18
ATOM     15  N   UNL     1       7.405   5.075  16.170  0.00  0.00    +0.000 N 
ATOM     16  C   UNL     1       6.541   5.591  17.090  0.00  0.00    +0.000 C 
ATOM     17  O   UNL     1       6.971   5.847  18.213  0.00  0.00    +0.000 OA
ATOM     18  N   UNL     1       5.249   5.779  16.688  0.00  0.00    +0.000 N 
ATOM     19  H   UNL     1       8.341   4.995  16.541  0.00  0.00    +0.000 HD
ATOM     20  H   UNL     1       5.005   5.269  15.845  0.00  0.00    +0.000 HD
BRANCH  15  27
ATOM     21  C   UNL     1       5.450   3.053  15.399  0.00  0.00    +0.000 C 
ATOM     22  C   UNL     1       6.281   3.836  14.424  0.00  0.00    +0.000 A 
ATOM     23  C   UNL     1       6.140   3.577  13.054  0.00  0.00    +0.000 A 
ATOM     24  C   UNL     1       6.895   4.285  12.127  0.00  0.00    +0.000 A 
ATOM     25  C   UNL     1       7.760   5.248  12.598  0.00  0.00    +0.000 A 
ATOM     26  N   UNL     1       7.922   5.533  13.910  0.00  0.00    +0.000 NA
ATOM     27  C   UNL     1       7.197   4.822  14.808  0.00  0.00    +0.000 A 
ENDBRANCH  15  27
ENDBRANCH   1  18
BRANCH   9  28
ATOM     28  O   UNL     1       4.375   0.870  18.665  0.00  0.00    +0.000 OA
ATOM     29  H   UNL     1       3.768   0.176  18.993  0.00  0.00    +0.000 HD
ENDBRANCH   9  28
TORSDOF 3
ENDMDL
MODEL 3
REMARK VINA RESULT:      -7.2      9.319     13.254
REMARK  Name = 
REMARK  4 active torsions:
REMARK  status: ('A' for Active; 'I' for Inactive)
REMARK    1  A    between atoms: C_1  and  C_2
REMARK    2  A    between atoms: C_7  and  N_8
REMARK    3  A    between atoms: N_11  and  C_12
REMARK    4  A    between atoms: C_20  and  O_21
REMARK                            x       y       z     vdW  Elec       q    Type
REMARK                         _______ _______ _______ _____ _____    ______ ____
ROOT
ATOM      1  C   UNL     1      -3.253  13.055  21.334  0.00  0.00    +0.000 A 
ATOM      2  C   UNL     1      -2.793  13.292  22.641  0.00  0.00    +0.000 A 
ATOM      3  C   UNL     1      -1.580  12.748  23.105  0.00  0.00    +0.000 A 
ATOM      4  C   UNL     1      -0.803  11.950  22.271  0.00  0.00    +0.000 A 
ATOM      5  C   UNL     1      -1.286  11.706  20.999  0.00  0.00    +0.000 A 
ATOM      6  C   UNL     1      -2.489  12.241  20.512  0.00  0.00    +0.000 A 
ATOM      7  C   UNL     1      -2.563  11.951  19.045  0.00  0.00    +0.000 C 
ATOM      8  C   UNL     1      -3.874  11.564  18.388  0.00  0.00    +0.000 C 
ATOM      9  C   UNL     1      -3.580  11.202  16.932  0.00  0.00    +0.000 C 
ATOM     10  C   UNL     1      -2.666   9.977  16.882  0.00  0.00    +0.000 C 
ATOM     11  C   UNL     1      -1.347  10.261  17.602  0.00  0.00    +0.000 C 
ATOM     12  N   UNL     1      -1.572  10.894  18.889  0.00  0.00    +0.000 N 
ATOM     13  C   UNL     1      -0.676  10.885  19.939  0.00  0.00    +0.000 C 
ATOM     14  O   UNL     1       0.397  10.318  20.018  0.00  0.00    +0.000 OA
ENDROOT
BRANCH   1  18
ATOM     15  N   UNL     1      -6.751  13.623  20.453  0.00  0.00    +0.000 N 
ATOM     16  C   UNL     1      -5.702  13.053  21.113  0.00  0.00    +0.000 C 
ATOM     17  O   UNL     1      -5.932  12.102  21.858  0.00  0.00    +0.000 OA
ATOM     18  N   UNL     1      -4.467  13.594  20.897  0.00  0.00    +0.000 N 
ATOM     19  H   UNL     1      -7.619  13.146  20.648  0.00  0.00    +0.000 HD
ATOM     20  H   UNL     1      -4.493  14.522  20.487  0.00  0.00    +0.000 HD
BRANCH  15  27
ATOM     21  C   UNL     1      -7.378  12.885  17.702  0.00  0.00    +0.000 C 
ATOM     22  C   UNL     1      -7.010  14.274  18.139  0.00  0.00    +0.000 A 
ATOM     23  C   UNL     1      -6.935  15.288  17.175  0.00  0.00    +0.000 A 
ATOM     24  C   UNL     1      -6.596  16.584  17.547  0.00  0.00    +0.000 A 
ATOM     25  C   UNL     1      -6.359  16.831  18.882  0.00  0.00    +0.000 A 
ATOM     26  N   UNL     1      -6.427  15.884  19.844  0.00  0.00    +0.000 NA
ATOM     27  C   UNL     1      -6.737  14.619  19.467  0.00  0.00    +0.000 A 
ENDBRANCH  15  27
ENDBRANCH   1  18
BRANCH   9  28
ATOM     28  O   UNL     1      -4.798  10.944  16.245  0.00  0.00    +0.000 OA
ATOM     29  H   UNL     1      -5.426  10.587  16.905  0.00  0.00    +0.000 HD
ENDBRANCH   9  28
TORSDOF 3
ENDMDL
MODEL 4
REMARK VINA RESULT:      -7.1      8.952     11.719
REMARK  Name = 
REMARK  4 active torsions:
REMARK  status: ('A' for Active; 'I' for Inactive)
REMARK    1  A    between atoms: C_1  and  C_2
REMARK    2  A    between atoms: C_7  and  N_8
REMARK    3  A    between atoms: N_11  and  C_12
REMARK    4  A    between atoms: C_20  and  O_21
REMARK                            x       y       z     vdW  Elec       q    Type
REMARK                         _______ _______ _______ _____ _____    ______ ____
ROOT
ATOM      1  C   UNL     1      -4.200  13.023  20.988  0.00  0.00    +0.000 A 
ATOM      2  C   UNL     1      -5.115  13.838  21.678  0.00  0.00    +0.000 A 
ATOM      3  C   UNL     1      -6.353  14.197  21.113  0.00  0.00    +0.000 A 
ATOM      4  C   UNL     1      -6.702  13.752  19.841  0.00  0.00    +0.000 A 
ATOM      5  C   UNL     1      -5.777  12.975  19.168  0.00  0.00    +0.000 A 
ATOM      6  C   UNL     1      -4.539  12.600  19.712  0.00  0.00    +0.000 A 
ATOM      7  C   UNL     1      -3.922  11.586  18.800  0.00  0.00    +0.000 C 
ATOM      8  C   UNL     1      -2.431  11.591  18.517  0.00  0.00    +0.000 C 
ATOM      9  C   UNL     1      -2.153  10.532  17.450  0.00  0.00    +0.000 C 
ATOM     10  C   UNL     1      -2.864  10.914  16.151  0.00  0.00    +0.000 C 
ATOM     11  C   UNL     1      -4.373  11.013  16.373  0.00  0.00    +0.000 C 
ATOM     12  N   UNL     1      -4.683  11.773  17.571  0.00  0.00    +0.000 N 
ATOM     13  C   UNL     1      -5.888  12.401  17.817  0.00  0.00    +0.000 C 
ATOM     14  O   UNL     1      -6.857  12.497  17.088  0.00  0.00    +0.000 OA
ENDROOT
BRANCH   1  18
ATOM     15  N   UNL     1      -0.784  13.042  22.278  0.00  0.00    +0.000 N 
ATOM     16  C   UNL     1      -1.984  13.570  21.902  0.00  0.00    +0.000 C 
ATOM     17  O   UNL     1      -2.104  14.795  21.897  0.00  0.00    +0.000 OA
ATOM     18  N   UNL     1      -2.970  12.689  21.563  0.00  0.00    +0.000 N 
ATOM     19  H   UNL     1      -0.107  13.762  22.484  0.00  0.00    +0.000 HD
ATOM     20  H   UNL     1      -2.799  11.741  21.882  0.00  0.00    +0.000 HD
BRANCH  15  27
ATOM     21  C   UNL     1       0.859  12.143  20.042  0.00  0.00    +0.000 C 
ATOM     22  C   UNL     1       0.407  11.255  21.165  0.00  0.00    +0.000 A 
ATOM     23  C   UNL     1       0.768   9.901  21.144  0.00  0.00    +0.000 A 
ATOM     24  C   UNL     1       0.365   9.054  22.169  0.00  0.00    +0.000 A 
ATOM     25  C   UNL     1      -0.375   9.592  23.200  0.00  0.00    +0.000 A 
ATOM     26  N   UNL     1      -0.739  10.893  23.262  0.00  0.00    +0.000 NA
ATOM     27  C   UNL     1      -0.360  11.707  22.246  0.00  0.00    +0.000 A 
ENDBRANCH  15  27
ENDBRANCH   1  18
BRANCH   9  28
ATOM     28  O   UNL     1      -0.751  10.421  17.238  0.00  0.00    +0.000 OA
ATOM     29  H   UNL     1      -0.484   9.537  17.560  0.00  0.00    +0.000 HD
ENDBRANCH   9  28
TORSDOF 3
ENDMDL
MODEL 5
REMARK VINA RESULT:      -7.0      8.010     11.342
REMARK  Name = 
REMARK  4 active torsions:
REMARK  status: ('A' for Active; 'I' for Inactive)
REMARK    1  A    between atoms: C_1  and  C_2
REMARK    2  A    between atoms: C_7  and  N_8
REMARK    3  A    between atoms: N_11  and  C_12
REMARK    4  A    between atoms: C_20  and  O_21
REMARK                            x       y       z     vdW  Elec       q    Type
REMARK                         _______ _______ _______ _____ _____    ______ ____
ROOT
ATOM      1  C   UNL     1      -3.131  11.697  18.652  0.00  0.00    +0.000 A 
ATOM      2  C   UNL     1      -3.328  11.222  17.344  0.00  0.00    +0.000 A 
ATOM      3  C   UNL     1      -4.576  11.327  16.702  0.00  0.00    +0.000 A 
ATOM      4  C   UNL     1      -5.657  11.908  17.356  0.00  0.00    +0.000 A 
ATOM      5  C   UNL     1      -5.451  12.345  18.652  0.00  0.00    +0.000 A 
ATOM      6  C   UNL     1      -4.215  12.255  19.312  0.00  0.00    +0.000 A 
ATOM      7  C   UNL     1      -4.318  13.028  20.590  0.00  0.00    +0.000 C 
ATOM      8  C   UNL     1      -3.667  12.524  21.865  0.00  0.00    +0.000 C 
ATOM      9  C   UNL     1      -4.076  13.460  23.002  0.00  0.00    +0.000 C 
ATOM     10  C   UNL     1      -5.590  13.390  23.206  0.00  0.00    +0.000 C 
ATOM     11  C   UNL     1      -6.323  13.805  21.929  0.00  0.00    +0.000 C 
ATOM     12  N   UNL     1      -5.760  13.155  20.760  0.00  0.00    +0.000 N 
ATOM     13  C   UNL     1      -6.425  12.969  19.564  0.00  0.00    +0.000 C 
ATOM     14  O   UNL     1      -7.579  13.236  19.287  0.00  0.00    +0.000 OA
ENDROOT
BRANCH   1  18
ATOM     15  N   UNL     1       0.392  11.929  19.582  0.00  0.00    +0.000 N 
ATOM     16  C   UNL     1      -0.778  12.321  19.002  0.00  0.00    +0.000 C 
ATOM     17  O   UNL     1      -0.765  13.318  18.281  0.00  0.00    +0.000 OA
ATOM     18  N   UNL     1      -1.886  11.571  19.277  0.00  0.00    +0.000 N 
ATOM     19  H   UNL     1       1.162  12.521  19.304  0.00  0.00    +0.000 HD
ATOM     20  H   UNL     1      -1.783  10.971  20.088  0.00  0.00    +0.000 HD
BRANCH  15  27
ATOM     21  C   UNL     1       1.394   9.563  18.202  0.00  0.00    +0.000 C 
ATOM     22  C   UNL     1       1.120   9.625  19.677  0.00  0.00    +0.000 A 
ATOM     23  C   UNL     1       1.330   8.477  20.452  0.00  0.00    +0.000 A 
ATOM     24  C   UNL     1       1.086   8.503  21.820  0.00  0.00    +0.000 A 
ATOM     25  C   UNL     1       0.653   9.686  22.378  0.00  0.00    +0.000 A 
ATOM     26  N   UNL     1       0.443  10.817  21.667  0.00  0.00    +0.000 NA
ATOM     27  C   UNL     1       0.664  10.776  20.330  0.00  0.00    +0.000 A 
ENDBRANCH  15  27
ENDBRANCH   1  18
BRANCH   9  28
ATOM     28  O   UNL     1      -3.394  13.092  24.195  0.00  0.00    +0.000 OA
ATOM     29  H   UNL     1      -3.125  12.158  24.092  0.00  0.00    +0.000 HD
ENDBRANCH   9  28
TORSDOF 3
ENDMDL
MODEL 6
REMARK VINA RESULT:      -6.9      8.793     11.901
REMARK  Name = 
REMARK  4 active torsions:
REMARK  status: ('A' for Active; 'I' for Inactive)
REMARK    1  A    between atoms: C_1  and  C_2
REMARK    2  A    between atoms: C_7  and  N_8
REMARK    3  A    between atoms: N_11  and  C_12
REMARK    4  A    between atoms: C_20  and  O_21
REMARK                            x       y       z     vdW  Elec       q    Type
REMARK                         _______ _______ _______ _____ _____    ______ ____
ROOT
ATOM      1  C   UNL     1      -4.534  11.947  18.871  0.00  0.00    +0.000 A 
ATOM      2  C   UNL     1      -5.437  11.485  17.898  0.00  0.00    +0.000 A 
ATOM      3  C   UNL     1      -6.815  11.379  18.162  0.00  0.00    +0.000 A 
ATOM      4  C   UNL     1      -7.320  11.730  19.410  0.00  0.00    +0.000 A 
ATOM      5  C   UNL     1      -6.413  12.156  20.362  0.00  0.00    +0.000 A 
ATOM      6  C   UNL     1      -5.036  12.274  20.121  0.00  0.00    +0.000 A 
ATOM      7  C   UNL     1      -4.420  12.973  21.293  0.00  0.00    +0.000 C 
ATOM      8  C   UNL     1      -3.063  12.557  21.830  0.00  0.00    +0.000 C 
ATOM      9  C   UNL     1      -2.793  13.365  23.099  0.00  0.00    +0.000 C 
ATOM     10  C   UNL     1      -3.832  13.011  24.164  0.00  0.00    +0.000 C 
ATOM     11  C   UNL     1      -5.243  13.324  23.663  0.00  0.00    +0.000 C 
ATOM     12  N   UNL     1      -5.449  12.828  22.315  0.00  0.00    +0.000 N 
ATOM     13  C   UNL     1      -6.681  12.560  21.753  0.00  0.00    +0.000 C 
ATOM     14  O   UNL     1      -7.781  12.619  22.270  0.00  0.00    +0.000 OA
ENDROOT
BRANCH   1  18
ATOM     15  N   UNL     1      -1.071  11.259  17.938  0.00  0.00    +0.000 N 
ATOM     16  C   UNL     1      -2.423  11.079  17.955  0.00  0.00    +0.000 C 
ATOM     17  O   UNL     1      -2.884  10.084  17.398  0.00  0.00    +0.000 OA
ATOM     18  N   UNL     1      -3.166  12.032  18.591  0.00  0.00    +0.000 N 
ATOM     19  H   UNL     1      -0.599  10.497  17.473  0.00  0.00    +0.000 HD
ATOM     20  H   UNL     1      -2.668  12.902  18.747  0.00  0.00    +0.000 HD
BRANCH  15  27
ATOM     21  C   UNL     1       0.646  10.424  20.143  0.00  0.00    +0.000 C 
ATOM     22  C   UNL     1       0.507  11.844  19.675  0.00  0.00    +0.000 A 
ATOM     23  C   UNL     1       1.221  12.848  20.342  0.00  0.00    +0.000 A 
ATOM     24  C   UNL     1       1.113  14.172  19.932  0.00  0.00    +0.000 A 
ATOM     25  C   UNL     1       0.305  14.451  18.851  0.00  0.00    +0.000 A 
ATOM     26  N   UNL     1      -0.396  13.511  18.177  0.00  0.00    +0.000 NA
ATOM     27  C   UNL     1      -0.301  12.226  18.598  0.00  0.00    +0.000 A 
ENDBRANCH  15  27
ENDBRANCH   1  18
BRANCH   9  28
ATOM     28  O   UNL     1      -1.480  13.091  23.572  0.00  0.00    +0.000 OA
ATOM     29  H   UNL     1      -0.883  13.735  23.141  0.00  0.00    +0.000 HD
ENDBRANCH   9  28
TORSDOF 3
ENDMDL
MODEL 7
REMARK VINA RESULT:      -6.9      9.635     13.536
REMARK  Name = 
REMARK  4 active torsions:
REMARK  status: ('A' for Active; 'I' for Inactive)
REMARK    1  A    between atoms: C_1  and  C_2
REMARK    2  A    between atoms: C_7  and  N_8
REMARK    3  A    between atoms: N_11  and  C_12
REMARK    4  A    between atoms: C_20  and  O_21
REMARK                            x       y       z     vdW  Elec       q    Type
REMARK                         _______ _______ _______ _____ _____    ______ ____
ROOT
ATOM      1  C   UNL     1      -4.171  11.573  17.305  0.00  0.00    +0.000 A 
ATOM      2  C   UNL     1      -4.061  10.921  16.065  0.00  0.00    +0.000 A 
ATOM      3  C   UNL     1      -2.949  10.118  15.750  0.00  0.00    +0.000 A 
ATOM      4  C   UNL     1      -1.918   9.953  16.669  0.00  0.00    +0.000 A 
ATOM      5  C   UNL     1      -2.030  10.624  17.872  0.00  0.00    +0.000 A 
ATOM      6  C   UNL     1      -3.132  11.426  18.211  0.00  0.00    +0.000 A 
ATOM      7  C   UNL     1      -3.008  11.792  19.658  0.00  0.00    +0.000 C 
ATOM      8  C   UNL     1      -3.383  13.177  20.151  0.00  0.00    +0.000 C 
ATOM      9  C   UNL     1      -3.010  13.266  21.630  0.00  0.00    +0.000 C 
ATOM     10  C   UNL     1      -1.495  13.121  21.787  0.00  0.00    +0.000 C 
ATOM     11  C   UNL     1      -1.024  11.776  21.233  0.00  0.00    +0.000 C 
ATOM     12  N   UNL     1      -1.605  11.507  19.930  0.00  0.00    +0.000 N 
ATOM     13  C   UNL     1      -1.079  10.637  18.996  0.00  0.00    +0.000 C 
ATOM     14  O   UNL     1      -0.040  10.006  19.046  0.00  0.00    +0.000 OA
ENDROOT
BRANCH   1  18
ATOM     15  N   UNL     1      -7.519  12.850  18.005  0.00  0.00    +0.000 N 
ATOM     16  C   UNL     1      -6.520  11.925  17.943  0.00  0.00    +0.000 C 
ATOM     17  O   UNL     1      -6.793  10.755  18.209  0.00  0.00    +0.000 OA
ATOM     18  N   UNL     1      -5.279  12.376  17.594  0.00  0.00    +0.000 N 
ATOM     19  H   UNL     1      -8.405  12.428  18.242  0.00  0.00    +0.000 HD
ATOM     20  H   UNL     1      -5.170  13.381  17.680  0.00  0.00    +0.000 HD
BRANCH  15  27
ATOM     21  C   UNL     1      -7.585  14.887  20.092  0.00  0.00    +0.000 C 
ATOM     22  C   UNL     1      -7.553  15.188  18.622  0.00  0.00    +0.000 A 
ATOM     23  C   UNL     1      -7.580  16.526  18.205  0.00  0.00    +0.000 A 
ATOM     24  C   UNL     1      -7.551  16.838  16.851  0.00  0.00    +0.000 A 
ATOM     25  C   UNL     1      -7.479  15.798  15.950  0.00  0.00    +0.000 A 
ATOM     26  N   UNL     1      -7.445  14.495  16.309  0.00  0.00    +0.000 NA
ATOM     27  C   UNL     1      -7.495  14.201  17.632  0.00  0.00    +0.000 A 
ENDBRANCH  15  27
ENDBRANCH   1  18
BRANCH   9  28
ATOM     28  O   UNL     1      -3.450  14.508  22.163  0.00  0.00    +0.000 OA
ATOM     29  H   UNL     1      -4.001  14.303  22.945  0.00  0.00    +0.000 HD
ENDBRANCH   9  28
TORSDOF 3
ENDMDL
MODEL 8
REMARK VINA RESULT:      -6.8      8.529     12.406
REMARK  Name = 
REMARK  4 active torsions:
REMARK  status: ('A' for Active; 'I' for Inactive)
REMARK    1  A    between atoms: C_1  and  C_2
REMARK    2  A    between atoms: C_7  and  N_8
REMARK    3  A    between atoms: N_11  and  C_12
REMARK    4  A    between atoms: C_20  and  O_21
REMARK                            x       y       z     vdW  Elec       q    Type
REMARK                         _______ _______ _______ _____ _____    ______ ____
ROOT
ATOM      1  C   UNL     1      -2.034  10.708  18.563  0.00  0.00    +0.000 A 
ATOM      2  C   UNL     1      -1.215   9.948  17.710  0.00  0.00    +0.000 A 
ATOM      3  C   UNL     1       0.184   9.924  17.860  0.00  0.00    +0.000 A 
ATOM      4  C   UNL     1       0.797  10.665  18.866  0.00  0.00    +0.000 A 
ATOM      5  C   UNL     1      -0.022  11.428  19.677  0.00  0.00    +0.000 A 
ATOM      6  C   UNL     1      -1.420  11.464  19.550  0.00  0.00    +0.000 A 
ATOM      7  C   UNL     1      -1.971  12.204  20.730  0.00  0.00    +0.000 C 
ATOM      8  C   UNL     1      -3.142  13.157  20.580  0.00  0.00    +0.000 C 
ATOM      9  C   UNL     1      -3.362  13.846  21.926  0.00  0.00    +0.000 C 
ATOM     10  C   UNL     1      -2.134  14.686  22.279  0.00  0.00    +0.000 C 
ATOM     11  C   UNL     1      -0.887  13.805  22.367  0.00  0.00    +0.000 C 
ATOM     12  N   UNL     1      -0.796  12.903  21.233  0.00  0.00    +0.000 N 
ATOM     13  C   UNL     1       0.370  12.311  20.788  0.00  0.00    +0.000 C 
ATOM     14  O   UNL     1       1.506  12.471  21.193  0.00  0.00    +0.000 OA
ENDROOT
BRANCH   1  18
ATOM     15  N   UNL     1      -5.433  11.277  17.358  0.00  0.00    +0.000 N 
ATOM     16  C   UNL     1      -4.077  11.159  17.272  0.00  0.00    +0.000 C 
ATOM     17  O   UNL     1      -3.535  11.439  16.203  0.00  0.00    +0.000 OA
ATOM     18  N   UNL     1      -3.421  10.728  18.389  0.00  0.00    +0.000 N 
ATOM     19  H   UNL     1      -5.832  11.626  16.499  0.00  0.00    +0.000 HD
ATOM     20  H   UNL     1      -4.026  10.286  19.073  0.00  0.00    +0.000 HD
BRANCH  15  27
ATOM     21  C   UNL     1      -6.428  13.687  18.665  0.00  0.00    +0.000 C 
ATOM     22  C   UNL     1      -6.724  12.291  19.133  0.00  0.00    +0.000 A 
ATOM     23  C   UNL     1      -7.506  12.115  20.282  0.00  0.00    +0.000 A 
ATOM     24  C   UNL     1      -7.798  10.836  20.741  0.00  0.00    +0.000 A 
ATOM     25  C   UNL     1      -7.310   9.765  20.023  0.00  0.00    +0.000 A 
ATOM     26  N   UNL     1      -6.557   9.891  18.907  0.00  0.00    +0.000 NA
ATOM     27  C   UNL     1      -6.261  11.143  18.480  0.00  0.00    +0.000 A 
ENDBRANCH  15  27
ENDBRANCH   1  18
BRANCH   9  28
ATOM     28  O   UNL     1      -4.524  14.663  21.864  0.00  0.00    +0.000 OA
ATOM     29  H   UNL     1      -5.296  14.061  21.881  0.00  0.00    +0.000 HD
ENDBRANCH   9  28
TORSDOF 3
ENDMDL
MODEL 9
REMARK VINA RESULT:      -6.8      7.704     11.041
REMARK  Name = 
REMARK  4 active torsions:
REMARK  status: ('A' for Active; 'I' for Inactive)
REMARK    1  A    between atoms: C_1  and  C_2
REMARK    2  A    between atoms: C_7  and  N_8
REMARK    3  A    between atoms: N_11  and  C_12
REMARK    4  A    between atoms: C_20  and  O_21
REMARK                            x       y       z     vdW  Elec       q    Type
REMARK                         _______ _______ _______ _____ _____    ______ ____
ROOT
ATOM      1  C   UNL     1      -0.274  13.343  21.693  0.00  0.00    +0.000 A 
ATOM      2  C   UNL     1      -1.181  13.555  22.745  0.00  0.00    +0.000 A 
ATOM      3  C   UNL     1      -1.788  12.481  23.423  0.00  0.00    +0.000 A 
ATOM      4  C   UNL     1      -1.504  11.169  23.059  0.00  0.00    +0.000 A 
ATOM      5  C   UNL     1      -0.631  10.981  22.003  0.00  0.00    +0.000 A 
ATOM      6  C   UNL     1      -0.010  12.036  21.315  0.00  0.00    +0.000 A 
ATOM      7  C   UNL     1       1.026  11.448  20.407  0.00  0.00    +0.000 C 
ATOM      8  C   UNL     1       1.257  12.008  19.016  0.00  0.00    +0.000 C 
ATOM      9  C   UNL     1       2.267  11.104  18.309  0.00  0.00    +0.000 C 
ATOM     10  C   UNL     1       1.675   9.704  18.143  0.00  0.00    +0.000 C 
ATOM     11  C   UNL     1       1.334   9.100  19.506  0.00  0.00    +0.000 C 
ATOM     12  N   UNL     1       0.622  10.049  20.343  0.00  0.00    +0.000 N 
ATOM     13  C   UNL     1      -0.184   9.709  21.411  0.00  0.00    +0.000 C 
ATOM     14  O   UNL     1      -0.498   8.601  21.803  0.00  0.00    +0.000 OA
ENDROOT
BRANCH   1  18
ATOM     15  N   UNL     1       1.752  16.226  20.736  0.00  0.00    +0.000 N 
ATOM     16  C   UNL     1       1.442  15.081  21.409  0.00  0.00    +0.000 C 
ATOM     17  O   UNL     1       2.197  14.711  22.307  0.00  0.00    +0.000 OA
ATOM     18  N   UNL     1       0.308  14.425  21.024  0.00  0.00    +0.000 N 
ATOM     19  H   UNL     1       2.587  16.659  21.102  0.00  0.00    +0.000 HD
ATOM     20  H   UNL     1      -0.036  14.703  20.111  0.00  0.00    +0.000 HD
BRANCH  15  27
ATOM     21  C   UNL     1       2.878  16.594  18.071  0.00  0.00    +0.000 C 
ATOM     22  C   UNL     1       1.540  17.122  18.500  0.00  0.00    +0.000 A 
ATOM     23  C   UNL     1       0.779  17.862  17.585  0.00  0.00    +0.000 A 
ATOM     24  C   UNL     1      -0.464  18.364  17.952  0.00  0.00    +0.000 A 
ATOM     25  C   UNL     1      -0.918  18.097  19.225  0.00  0.00    +0.000 A 
ATOM     26  N   UNL     1      -0.220  17.384  20.137  0.00  0.00    +0.000 NA
ATOM     27  C   UNL     1       1.001  16.916  19.775  0.00  0.00    +0.000 A 
ENDBRANCH  15  27
ENDBRANCH   1  18
BRANCH   9  28
ATOM     28  O   UNL     1       2.601  11.658  17.042  0.00  0.00    +0.000 OA
ATOM     29  H   UNL     1       3.577  11.712  17.005  0.00  0.00    +0.000 HD
ENDBRANCH   9  28
TORSDOF 3
ENDMDL
