MODEL 1
REMARK VINA RESULT:      -8.9      0.000      0.000
REMARK  Name = 
REMARK  8 active torsions:
REMARK  status: ('A' for Active; 'I' for Inactive)
REMARK    1  A    between atoms: C_1  and  C_2
REMARK    2  A    between atoms: C_2  and  O_3
REMARK    3  A    between atoms: O_3  and  C_4
REMARK    4  A    between atoms: C_4  and  C_6
REMARK    5  A    between atoms: N_10  and  C_11
REMARK    6  A    between atoms: C_11  and  C_12
REMARK    7  A    between atoms: N_18  and  C_19
REMARK    8  A    between atoms: C_22  and  C_23
REMARK                            x       y       z     vdW  Elec       q    Type
REMARK                         _______ _______ _______ _____ _____    ______ ____
ROOT
ATOM      1  C   UNL     1       5.286   5.895  18.092  0.00  0.00    +0.000 A 
ATOM      2  N   UNL     1       6.066   5.851  19.171  0.00  0.00    +0.000 NA
ATOM      3  C   UNL     1       7.346   5.618  18.924  0.00  0.00    +0.000 A 
ATOM      4  N   UNL     1       8.186   5.584  20.018  0.00  0.00    +0.000 N 
ATOM      5  N   UNL     1       7.886   5.453  17.726  0.00  0.00    +0.000 NA
ATOM      6  C   UNL     1       7.031   5.471  16.712  0.00  0.00    +0.000 A 
ATOM      7  N   UNL     1       7.542   5.246  15.430  0.00  0.00    +0.000 N 
ATOM      8  N   UNL     1       5.728   5.716  16.850  0.00  0.00    +0.000 NA
ATOM      9  H   UNL     1       7.755   6.067  20.796  0.00  0.00    +0.000 HD
ATOM     10  H   UNL     1       9.118   5.871  19.757  0.00  0.00    +0.000 HD
ATOM     11  H   UNL     1       8.538   5.086  15.451  0.00  0.00    +0.000 HD
ENDROOT
BRANCH   7  12
ATOM     12  C   UNL     1       6.861   4.714  14.321  0.00  0.00    +0.000 A 
ATOM     13  C   UNL     1       5.567   4.209  14.468  0.00  0.00    +0.000 A 
ATOM     14  C   UNL     1       4.920   3.573  13.400  0.00  0.00    +0.000 A 
ATOM     15  C   UNL     1       5.554   3.442  12.158  0.00  0.00    +0.000 A 
ATOM     16  C   UNL     1       4.911   2.716  11.015  0.00  0.00    +0.000 C 
ATOM     17  C   UNL     1       6.830   3.981  11.994  0.00  0.00    +0.000 A 
ATOM     18  C   UNL     1       7.465   4.615  13.061  0.00  0.00    +0.000 A 
ENDBRANCH   7  12
BRANCH   1  19
ATOM     19  C   UNL     1       3.789   6.119  18.288  0.00  0.00    +0.000 C 
BRANCH  19  24
ATOM     20  C   UNL     1       1.720   4.126  20.818  0.00  0.00    +0.000 C 
ATOM     21  C   UNL     1       0.575   3.712  19.889  0.00  0.00    +0.000 C 
ATOM     22  C   UNL     1       1.087   3.439  18.478  0.00  0.00    +0.000 C 
ATOM     23  C   UNL     1       1.885   4.626  17.939  0.00  0.00    +0.000 C 
ATOM     24  N   UNL     1       2.988   4.991  18.838  0.00  0.00    +0.000 NA
ATOM     25  C   UNL     1       2.525   5.272  20.203  0.00  0.00    +0.000 C 
BRANCH  20  26
ATOM     26  C   UNL     1       2.569   2.931  21.218  0.00  0.00    +0.000 C 
ATOM     27  O   UNL     1       2.239   2.087  22.041  0.00  0.00    +0.000 OA
BRANCH  26  28
ATOM     28  O   UNL     1       3.825   3.053  20.699  0.00  0.00    +0.000 OA
BRANCH  28  30
ATOM     29  C   UNL     1       3.879   1.561  18.843  0.00  0.00    +0.000 C 
ATOM     30  C   UNL     1       4.402   1.821  20.245  0.00  0.00    +0.000 C 
ENDBRANCH  28  30
ENDBRANCH  26  28
ENDBRANCH  20  26
ENDBRANCH  19  24
ENDBRANCH   1  19
TORSDOF 6
ENDMDL
MODEL 2
REMARK VINA RESULT:      -8.3      1.733      2.783
REMARK  Name = 
REMARK  8 active torsions:
REMARK  status: ('A' for Active; 'I' for Inactive)
REMARK    1  A    between atoms: C_1  and  C_2
REMARK    2  A    between atoms: C_2  and  O_3
REMARK    3  A    between atoms: O_3  and  C_4
REMARK    4  A    between atoms: C_4  and  C_6
REMARK    5  A    between atoms: N_10  and  C_11
REMARK    6  A    between atoms: C_11  and  C_12
REMARK    7  A    between atoms: N_18  and  C_19
REMARK    8  A    between atoms: C_22  and  C_23
REMARK                            x       y       z     vdW  Elec       q    Type
REMARK                         _______ _______ _______ _____ _____    ______ ____
ROOT
ATOM      1  C   UNL     1       5.904   4.367  18.398  0.00  0.00    +0.000 A 
ATOM      2  N   UNL     1       6.751   4.866  19.298  0.00  0.00    +0.000 NA
ATOM      3  C   UNL     1       7.668   5.683  18.806  0.00  0.00    +0.000 A 
ATOM      4  N   UNL     1       8.551   6.232  19.713  0.00  0.00    +0.000 N 
ATOM      5  N   UNL     1       7.787   6.041  17.535  0.00  0.00    +0.000 NA
ATOM      6  C   UNL     1       6.930   5.465  16.703  0.00  0.00    +0.000 A 
ATOM      7  N   UNL     1       7.047   5.765  15.342  0.00  0.00    +0.000 N 
ATOM      8  N   UNL     1       5.957   4.643  17.098  0.00  0.00    +0.000 NA
ATOM      9  H   UNL     1       8.156   6.189  20.644  0.00  0.00    +0.000 HD
ATOM     10  H   UNL     1       8.873   7.134  19.391  0.00  0.00    +0.000 HD
ATOM     11  H   UNL     1       7.808   6.404  15.168  0.00  0.00    +0.000 HD
ENDROOT
BRANCH   7  12
ATOM     12  C   UNL     1       6.664   4.960  14.254  0.00  0.00    +0.000 A 
ATOM     13  C   UNL     1       5.439   4.290  14.275  0.00  0.00    +0.000 A 
ATOM     14  C   UNL     1       5.094   3.396  13.252  0.00  0.00    +0.000 A 
ATOM     15  C   UNL     1       5.966   3.167  12.181  0.00  0.00    +0.000 A 
ATOM     16  C   UNL     1       5.651   2.175  11.103  0.00  0.00    +0.000 C 
ATOM     17  C   UNL     1       7.172   3.866  12.134  0.00  0.00    +0.000 A 
ATOM     18  C   UNL     1       7.506   4.755  13.155  0.00  0.00    +0.000 A 
ENDBRANCH   7  12
BRANCH   1  19
ATOM     19  C   UNL     1       4.837   3.384  18.873  0.00  0.00    +0.000 C 
BRANCH  19  24
ATOM     20  C   UNL     1       1.480   5.134  19.446  0.00  0.00    +0.000 C 
ATOM     21  C   UNL     1       0.859   4.111  20.401  0.00  0.00    +0.000 C 
ATOM     22  C   UNL     1       1.917   3.506  21.318  0.00  0.00    +0.000 C 
ATOM     23  C   UNL     1       3.083   2.931  20.515  0.00  0.00    +0.000 C 
ATOM     24  N   UNL     1       3.674   3.936  19.621  0.00  0.00    +0.000 NA
ATOM     25  C   UNL     1       2.681   4.529  18.716  0.00  0.00    +0.000 C 
BRANCH  20  26
ATOM     26  C   UNL     1       1.795   6.439  20.158  0.00  0.00    +0.000 C 
ATOM     27  O   UNL     1       1.202   6.852  21.147  0.00  0.00    +0.000 OA
BRANCH  26  28
ATOM     28  O   UNL     1       2.671   7.178  19.419  0.00  0.00    +0.000 OA
BRANCH  28  30
ATOM     29  C   UNL     1       1.880   9.122  18.294  0.00  0.00    +0.000 C 
ATOM     30  C   UNL     1       2.152   7.634  18.163  0.00  0.00    +0.000 C 
ENDBRANCH  28  30
ENDBRANCH  26  28
ENDBRANCH  20  26
ENDBRANCH  19  24
ENDBRANCH   1  19
TORSDOF 6
ENDMDL
MODEL 3
REMARK VINA RESULT:      -8.0      1.276      2.399
REMARK  Name = 
REMARK  8 active torsions:
REMARK  status: ('A' for Active; 'I' for Inactive)
REMARK    1  A    between atoms: C_1  and  C_2
REMARK    2  A    between atoms: C_2  and  O_3
REMARK    3  A    between atoms: O_3  and  C_4
REMARK    4  A    between atoms: C_4  and  C_6
REMARK    5  A    between atoms: N_10  and  C_11
REMARK    6  A    between atoms: C_11  and  C_12
REMARK    7  A    between atoms: N_18  and  C_19
REMARK    8  A    between atoms: C_22  and  C_23
REMARK                            x       y       z     vdW  Elec       q    Type
REMARK                         _______ _______ _______ _____ _____    ______ ____
ROOT
ATOM      1  C   UNL     1       5.427   5.895  17.908  0.00  0.00    +0.000 A 
ATOM      2  N   UNL     1       6.301   6.243  18.851  0.00  0.00    +0.000 NA
ATOM      3  C   UNL     1       7.546   6.393  18.428  0.00  0.00    +0.000 A 
ATOM      4  N   UNL     1       8.476   6.771  19.375  0.00  0.00    +0.000 N 
ATOM      5  N   UNL     1       7.964   6.245  17.179  0.00  0.00    +0.000 NA
ATOM      6  C   UNL     1       7.035   5.857  16.315  0.00  0.00    +0.000 A 
ATOM      7  N   UNL     1       7.435   5.633  14.993  0.00  0.00    +0.000 N 
ATOM      8  N   UNL     1       5.751   5.697  16.633  0.00  0.00    +0.000 NA
ATOM      9  H   UNL     1       8.006   7.196  20.165  0.00  0.00    +0.000 HD
ATOM     10  H   UNL     1       9.223   7.299  18.946  0.00  0.00    +0.000 HD
ATOM     11  H   UNL     1       8.422   5.797  14.872  0.00  0.00    +0.000 HD
ENDROOT
BRANCH   7  12
ATOM     12  C   UNL     1       6.839   4.769  14.056  0.00  0.00    +0.000 A 
ATOM     13  C   UNL     1       7.472   4.511  12.839  0.00  0.00    +0.000 A 
ATOM     14  C   UNL     1       6.839   3.745  11.850  0.00  0.00    +0.000 A 
ATOM     15  C   UNL     1       5.563   3.212  12.069  0.00  0.00    +0.000 A 
ATOM     16  C   UNL     1       4.837   2.439  11.010  0.00  0.00    +0.000 C 
ATOM     17  C   UNL     1       4.944   3.432  13.299  0.00  0.00    +0.000 A 
ATOM     18  C   UNL     1       5.583   4.193  14.278  0.00  0.00    +0.000 A 
ENDBRANCH   7  12
BRANCH   1  19
ATOM     19  C   UNL     1       3.974   5.663  18.316  0.00  0.00    +0.000 C 
BRANCH  19  24
ATOM     20  C   UNL     1       2.401   2.209  17.810  0.00  0.00    +0.000 C 
ATOM     21  C   UNL     1       3.565   1.359  18.326  0.00  0.00    +0.000 C 
ATOM     22  C   UNL     1       4.273   2.050  19.488  0.00  0.00    +0.000 C 
ATOM     23  C   UNL     1       4.700   3.469  19.113  0.00  0.00    +0.000 C 
ATOM     24  N   UNL     1       3.562   4.269  18.639  0.00  0.00    +0.000 NA
ATOM     25  C   UNL     1       2.867   3.636  17.511  0.00  0.00    +0.000 C 
BRANCH  20  26
ATOM     26  C   UNL     1       1.207   2.142  18.746  0.00  0.00    +0.000 C 
ATOM     27  O   UNL     1       0.045   2.329  18.407  0.00  0.00    +0.000 OA
BRANCH  26  28
ATOM     28  O   UNL     1       1.629   2.063  20.041  0.00  0.00    +0.000 OA
BRANCH  28  30
ATOM     29  C   UNL     1       2.123   3.363  21.974  0.00  0.00    +0.000 C 
ATOM     30  C   UNL     1       1.085   3.070  20.905  0.00  0.00    +0.000 C 
ENDBRANCH  28  30
ENDBRANCH  26  28
ENDBRANCH  20  26
ENDBRANCH  19  24
ENDBRANCH   1  19
TORSDOF 6
ENDMDL
MODEL 4
REMARK VINA RESULT:      -8.0      1.437      2.178
REMARK  Name = 
REMARK  8 active torsions:
REMARK  status: ('A' for Active; 'I' for Inactive)
REMARK    1  A    between atoms: C_1  and  C_2
REMARK    2  A    between atoms: C_2  and  O_3
REMARK    3  A    between atoms: O_3  and  C_4
REMARK    4  A    between atoms: C_4  and  C_6
REMARK    5  A    between atoms: N_10  and  C_11
REMARK    6  A    between atoms: C_11  and  C_12
REMARK    7  A    between atoms: N_18  and  C_19
REMARK    8  A    between atoms: C_22  and  C_23
REMARK                            x       y       z     vdW  Elec       q    Type
REMARK                         _______ _______ _______ _____ _____    ______ ____
ROOT
ATOM      1  C   UNL     1       6.400   4.956  18.376  0.00  0.00    +0.000 A 
ATOM      2  N   UNL     1       7.171   5.792  19.070  0.00  0.00    +0.000 NA
ATOM      3  C   UNL     1       7.791   6.710  18.346  0.00  0.00    +0.000 A 
ATOM      4  N   UNL     1       8.584   7.604  19.036  0.00  0.00    +0.000 N 
ATOM      5  N   UNL     1       7.687   6.863  17.034  0.00  0.00    +0.000 NA
ATOM      6  C   UNL     1       6.933   5.962  16.418  0.00  0.00    +0.000 A 
ATOM      7  N   UNL     1       6.834   6.044  15.025  0.00  0.00    +0.000 N 
ATOM      8  N   UNL     1       6.251   5.010  17.055  0.00  0.00    +0.000 NA
ATOM      9  H   UNL     1       8.307   7.627  20.009  0.00  0.00    +0.000 HD
ATOM     10  H   UNL     1       8.626   8.488  18.549  0.00  0.00    +0.000 HD
ATOM     11  H   UNL     1       7.381   6.809  14.660  0.00  0.00    +0.000 HD
ENDROOT
BRANCH   7  12
ATOM     12  C   UNL     1       6.569   4.997  14.125  0.00  0.00    +0.000 A 
ATOM     13  C   UNL     1       7.452   4.734  13.075  0.00  0.00    +0.000 A 
ATOM     14  C   UNL     1       7.146   3.769  12.106  0.00  0.00    +0.000 A 
ATOM     15  C   UNL     1       5.952   3.040  12.177  0.00  0.00    +0.000 A 
ATOM     16  C   UNL     1       5.570   2.045  11.124  0.00  0.00    +0.000 C 
ATOM     17  C   UNL     1       5.087   3.270  13.246  0.00  0.00    +0.000 A 
ATOM     18  C   UNL     1       5.401   4.229  14.209  0.00  0.00    +0.000 A 
ENDBRANCH   7  12
BRANCH   1  19
ATOM     19  C   UNL     1       5.678   3.840  19.127  0.00  0.00    +0.000 C 
BRANCH  19  24
ATOM     20  C   UNL     1       2.080   5.085  18.726  0.00  0.00    +0.000 C 
ATOM     21  C   UNL     1       1.628   4.104  17.641  0.00  0.00    +0.000 C 
ATOM     22  C   UNL     1       2.267   2.733  17.842  0.00  0.00    +0.000 C 
ATOM     23  C   UNL     1       3.788   2.840  17.943  0.00  0.00    +0.000 C 
ATOM     24  N   UNL     1       4.197   3.772  19.003  0.00  0.00    +0.000 NA
ATOM     25  C   UNL     1       3.606   5.106  18.831  0.00  0.00    +0.000 C 
BRANCH  20  26
ATOM     26  C   UNL     1       1.383   4.810  20.048  0.00  0.00    +0.000 C 
ATOM     27  O   UNL     1       1.339   5.594  20.988  0.00  0.00    +0.000 OA
BRANCH  26  28
ATOM     28  O   UNL     1       1.009   3.500  20.118  0.00  0.00    +0.000 OA
BRANCH  28  30
ATOM     29  C   UNL     1       2.640   2.528  21.556  0.00  0.00    +0.000 C 
ATOM     30  C   UNL     1       1.176   2.903  21.412  0.00  0.00    +0.000 C 
ENDBRANCH  28  30
ENDBRANCH  26  28
ENDBRANCH  20  26
ENDBRANCH  19  24
ENDBRANCH   1  19
TORSDOF 6
ENDMDL
MODEL 5
REMARK VINA RESULT:      -7.9      3.817      6.221
REMARK  Name = 
REMARK  8 active torsions:
REMARK  status: ('A' for Active; 'I' for Inactive)
REMARK    1  A    between atoms: C_1  and  C_2
REMARK    2  A    between atoms: C_2  and  O_3
REMARK    3  A    between atoms: O_3  and  C_4
REMARK    4  A    between atoms: C_4  and  C_6
REMARK    5  A    between atoms: N_10  and  C_11
REMARK    6  A    between atoms: C_11  and  C_12
REMARK    7  A    between atoms: N_18  and  C_19
REMARK    8  A    between atoms: C_22  and  C_23
REMARK                            x       y       z     vdW  Elec       q    Type
REMARK                         _______ _______ _______ _____ _____    ______ ____
ROOT
ATOM      1  C   UNL     1       2.608   4.688  19.949  0.00  0.00    +0.000 A 
ATOM      2  N   UNL     1       1.910   3.596  19.640  0.00  0.00    +0.000 NA
ATOM      3  C   UNL     1       2.590   2.664  18.991  0.00  0.00    +0.000 A 
ATOM      4  N   UNL     1       1.902   1.512  18.671  0.00  0.00    +0.000 N 
ATOM      5  N   UNL     1       3.871   2.731  18.657  0.00  0.00    +0.000 NA
ATOM      6  C   UNL     1       4.477   3.869  18.965  0.00  0.00    +0.000 A 
ATOM      7  N   UNL     1       5.816   4.014  18.585  0.00  0.00    +0.000 N 
ATOM      8  N   UNL     1       3.889   4.861  19.635  0.00  0.00    +0.000 NA
ATOM      9  H   UNL     1       1.091   1.421  19.269  0.00  0.00    +0.000 HD
ATOM     10  H   UNL     1       2.533   0.724  18.629  0.00  0.00    +0.000 HD
ATOM     11  H   UNL     1       6.153   3.197  18.099  0.00  0.00    +0.000 HD
ENDROOT
BRANCH   7  12
ATOM     12  C   UNL     1       6.503   5.211  18.318  0.00  0.00    +0.000 A 
ATOM     13  C   UNL     1       7.604   5.577  19.094  0.00  0.00    +0.000 A 
ATOM     14  C   UNL     1       8.228   6.819  18.914  0.00  0.00    +0.000 A 
ATOM     15  C   UNL     1       7.766   7.715  17.941  0.00  0.00    +0.000 A 
ATOM     16  C   UNL     1       8.375   9.072  17.764  0.00  0.00    +0.000 C 
ATOM     17  C   UNL     1       6.693   7.337  17.135  0.00  0.00    +0.000 A 
ATOM     18  C   UNL     1       6.080   6.097  17.320  0.00  0.00    +0.000 A 
ENDBRANCH   7  12
BRANCH   1  19
ATOM     19  C   UNL     1       1.891   5.830  20.664  0.00  0.00    +0.000 C 
BRANCH  19  24
ATOM     20  C   UNL     1       1.445   9.540  19.832  0.00  0.00    +0.000 C 
ATOM     21  C   UNL     1       2.109   9.537  18.452  0.00  0.00    +0.000 C 
ATOM     22  C   UNL     1       1.823   8.236  17.710  0.00  0.00    +0.000 C 
ATOM     23  C   UNL     1       2.210   7.020  18.553  0.00  0.00    +0.000 C 
ATOM     24  N   UNL     1       1.546   7.036  19.864  0.00  0.00    +0.000 NA
ATOM     25  C   UNL     1       1.813   8.274  20.608  0.00  0.00    +0.000 C 
BRANCH  20  26
ATOM     26  C   UNL     1      -0.051   9.778  19.728  0.00  0.00    +0.000 C 
ATOM     27  O   UNL     1      -0.879   9.372  20.534  0.00  0.00    +0.000 OA
BRANCH  26  28
ATOM     28  O   UNL     1      -0.358  10.310  18.510  0.00  0.00    +0.000 OA
BRANCH  28  30
ATOM     29  C   UNL     1      -2.024   9.911  16.854  0.00  0.00    +0.000 C 
ATOM     30  C   UNL     1      -1.764  10.438  18.255  0.00  0.00    +0.000 C 
ENDBRANCH  28  30
ENDBRANCH  26  28
ENDBRANCH  20  26
ENDBRANCH  19  24
ENDBRANCH   1  19
TORSDOF 6
ENDMDL
MODEL 6
REMARK VINA RESULT:      -7.8      3.942      6.434
REMARK  Name = 
REMARK  8 active torsions:
REMARK  status: ('A' for Active; 'I' for Inactive)
REMARK    1  A    between atoms: C_1  and  C_2
REMARK    2  A    between atoms: C_2  and  O_3
REMARK    3  A    between atoms: O_3  and  C_4
REMARK    4  A    between atoms: C_4  and  C_6
REMARK    5  A    between atoms: N_10  and  C_11
REMARK    6  A    between atoms: C_11  and  C_12
REMARK    7  A    between atoms: N_18  and  C_19
REMARK    8  A    between atoms: C_22  and  C_23
REMARK                            x       y       z     vdW  Elec       q    Type
REMARK                         _______ _______ _______ _____ _____    ______ ____
ROOT
ATOM      1  C   UNL     1       2.528   4.782  19.941  0.00  0.00    +0.000 A 
ATOM      2  N   UNL     1       1.843   3.671  19.673  0.00  0.00    +0.000 NA
ATOM      3  C   UNL     1       2.547   2.706  19.102  0.00  0.00    +0.000 A 
ATOM      4  N   UNL     1       1.872   1.534  18.828  0.00  0.00    +0.000 N 
ATOM      5  N   UNL     1       3.838   2.758  18.809  0.00  0.00    +0.000 NA
ATOM      6  C   UNL     1       4.431   3.915  19.071  0.00  0.00    +0.000 A 
ATOM      7  N   UNL     1       5.781   4.041  18.730  0.00  0.00    +0.000 N 
ATOM      8  N   UNL     1       3.819   4.941  19.661  0.00  0.00    +0.000 NA
ATOM      9  H   UNL     1       1.041   1.475  19.402  0.00  0.00    +0.000 HD
ATOM     10  H   UNL     1       2.505   0.748  18.853  0.00  0.00    +0.000 HD
ATOM     11  H   UNL     1       6.136   3.199  18.304  0.00  0.00    +0.000 HD
ENDROOT
BRANCH   7  12
ATOM     12  C   UNL     1       6.475   5.224  18.416  0.00  0.00    +0.000 A 
ATOM     13  C   UNL     1       7.609   5.587  19.145  0.00  0.00    +0.000 A 
ATOM     14  C   UNL     1       8.244   6.816  18.920  0.00  0.00    +0.000 A 
ATOM     15  C   UNL     1       7.759   7.702  17.949  0.00  0.00    +0.000 A 
ATOM     16  C   UNL     1       8.380   9.047  17.726  0.00  0.00    +0.000 C 
ATOM     17  C   UNL     1       6.652   7.326  17.189  0.00  0.00    +0.000 A 
ATOM     18  C   UNL     1       6.029   6.099  17.418  0.00  0.00    +0.000 A 
ENDBRANCH   7  12
BRANCH   1  19
ATOM     19  C   UNL     1       1.785   5.961  20.563  0.00  0.00    +0.000 C 
BRANCH  19  24
ATOM     20  C   UNL     1       1.374   9.650  19.625  0.00  0.00    +0.000 C 
ATOM     21  C   UNL     1       2.243   9.654  18.364  0.00  0.00    +0.000 C 
ATOM     22  C   UNL     1       2.109   8.338  17.603  0.00  0.00    +0.000 C 
ATOM     23  C   UNL     1       2.393   7.142  18.511  0.00  0.00    +0.000 C 
ATOM     24  N   UNL     1       1.535   7.150  19.704  0.00  0.00    +0.000 NA
ATOM     25  C   UNL     1       1.651   8.401  20.464  0.00  0.00    +0.000 C 
BRANCH  20  26
ATOM     26  C   UNL     1      -0.094   9.844  19.288  0.00  0.00    +0.000 C 
ATOM     27  O   UNL     1      -0.538   9.968  18.153  0.00  0.00    +0.000 OA
BRANCH  26  28
ATOM     28  O   UNL     1      -0.810  10.079  20.425  0.00  0.00    +0.000 OA
BRANCH  28  30
ATOM     29  C   UNL     1      -1.873  12.201  20.630  0.00  0.00    +0.000 C 
ATOM     30  C   UNL     1      -0.635  11.391  20.976  0.00  0.00    +0.000 C 
ENDBRANCH  28  30
ENDBRANCH  26  28
ENDBRANCH  20  26
ENDBRANCH  19  24
ENDBRANCH   1  19
TORSDOF 6
ENDMDL
MODEL 7
REMARK VINA RESULT:      -7.7      3.247      7.214
REMARK  Name = 
REMARK  8 active torsions:
REMARK  status: ('A' for Active; 'I' for Inactive)
REMARK    1  A    between atoms: C_1  and  C_2
REMARK    2  A    between atoms: C_2  and  O_3
REMARK    3  A    between atoms: O_3  and  C_4
REMARK    4  A    between atoms: C_4  and  C_6
REMARK    5  A    between atoms: N_10  and  C_11
REMARK    6  A    between atoms: C_11  and  C_12
REMARK    7  A    between atoms: N_18  and  C_19
REMARK    8  A    between atoms: C_22  and  C_23
REMARK                            x       y       z     vdW  Elec       q    Type
REMARK                         _______ _______ _______ _____ _____    ______ ____
ROOT
ATOM      1  C   UNL     1       2.914   3.792  18.889  0.00  0.00    +0.000 A 
ATOM      2  N   UNL     1       3.077   2.863  19.830  0.00  0.00    +0.000 NA
ATOM      3  C   UNL     1       2.622   3.196  21.027  0.00  0.00    +0.000 A 
ATOM      4  N   UNL     1       2.758   2.249  22.021  0.00  0.00    +0.000 N 
ATOM      5  N   UNL     1       2.022   4.336  21.338  0.00  0.00    +0.000 NA
ATOM      6  C   UNL     1       1.939   5.219  20.353  0.00  0.00    +0.000 A 
ATOM      7  N   UNL     1       1.364   6.461  20.643  0.00  0.00    +0.000 N 
ATOM      8  N   UNL     1       2.348   4.976  19.107  0.00  0.00    +0.000 NA
ATOM      9  H   UNL     1       2.879   1.334  21.608  0.00  0.00    +0.000 HD
ATOM     10  H   UNL     1       2.025   2.351  22.709  0.00  0.00    +0.000 HD
ATOM     11  H   UNL     1       1.083   6.522  21.609  0.00  0.00    +0.000 HD
ENDROOT
BRANCH   7  12
ATOM     12  C   UNL     1       1.610   7.687  19.999  0.00  0.00    +0.000 A 
ATOM     13  C   UNL     1       1.089   8.872  20.523  0.00  0.00    +0.000 A 
ATOM     14  C   UNL     1       1.229  10.083  19.833  0.00  0.00    +0.000 A 
ATOM     15  C   UNL     1       1.906  10.132  18.608  0.00  0.00    +0.000 A 
ATOM     16  C   UNL     1       2.021  11.401  17.819  0.00  0.00    +0.000 C 
ATOM     17  C   UNL     1       2.464   8.959  18.100  0.00  0.00    +0.000 A 
ATOM     18  C   UNL     1       2.322   7.758  18.795  0.00  0.00    +0.000 A 
ENDBRANCH   7  12
BRANCH   1  19
ATOM     19  C   UNL     1       3.445   3.506  17.487  0.00  0.00    +0.000 C 
BRANCH  19  24
ATOM     20  C   UNL     1       5.966   5.942  15.946  0.00  0.00    +0.000 C 
ATOM     21  C   UNL     1       6.893   6.093  17.156  0.00  0.00    +0.000 C 
ATOM     22  C   UNL     1       7.010   4.780  17.923  0.00  0.00    +0.000 C 
ATOM     23  C   UNL     1       5.633   4.233  18.300  0.00  0.00    +0.000 C 
ATOM     24  N   UNL     1       4.770   4.079  17.121  0.00  0.00    +0.000 NA
ATOM     25  C   UNL     1       4.628   5.332  16.367  0.00  0.00    +0.000 C 
BRANCH  20  26
ATOM     26  C   UNL     1       6.648   5.192  14.815  0.00  0.00    +0.000 C 
ATOM     27  O   UNL     1       7.793   5.400  14.433  0.00  0.00    +0.000 OA
BRANCH  26  28
ATOM     28  O   UNL     1       5.742   4.419  14.151  0.00  0.00    +0.000 OA
BRANCH  28  30
ATOM     29  C   UNL     1       5.212   3.349  12.089  0.00  0.00    +0.000 C 
ATOM     30  C   UNL     1       6.305   3.603  13.114  0.00  0.00    +0.000 C 
ENDBRANCH  28  30
ENDBRANCH  26  28
ENDBRANCH  20  26
ENDBRANCH  19  24
ENDBRANCH   1  19
TORSDOF 6
ENDMDL
MODEL 8
REMARK VINA RESULT:      -7.7      1.963      3.036
REMARK  Name = 
REMARK  8 active torsions:
REMARK  status: ('A' for Active; 'I' for Inactive)
REMARK    1  A    between atoms: C_1  and  C_2
REMARK    2  A    between atoms: C_2  and  O_3
REMARK    3  A    between atoms: O_3  and  C_4
REMARK    4  A    between atoms: C_4  and  C_6
REMARK    5  A    between atoms: N_10  and  C_11
REMARK    6  A    between atoms: C_11  and  C_12
REMARK    7  A    between atoms: N_18  and  C_19
REMARK    8  A    between atoms: C_22  and  C_23
REMARK                            x       y       z     vdW  Elec       q    Type
REMARK                         _______ _______ _______ _____ _____    ______ ____
ROOT
ATOM      1  C   UNL     1       5.829   4.498  17.885  0.00  0.00    +0.000 A 
ATOM      2  N   UNL     1       6.628   5.145  18.732  0.00  0.00    +0.000 NA
ATOM      3  C   UNL     1       7.499   5.963  18.162  0.00  0.00    +0.000 A 
ATOM      4  N   UNL     1       8.330   6.664  19.013  0.00  0.00    +0.000 N 
ATOM      5  N   UNL     1       7.614   6.188  16.862  0.00  0.00    +0.000 NA
ATOM      6  C   UNL     1       6.810   5.471  16.090  0.00  0.00    +0.000 A 
ATOM      7  N   UNL     1       6.929   5.630  14.705  0.00  0.00    +0.000 N 
ATOM      8  N   UNL     1       5.885   4.635  16.563  0.00  0.00    +0.000 NA
ATOM      9  H   UNL     1       7.923   6.696  19.939  0.00  0.00    +0.000 HD
ATOM     10  H   UNL     1       8.598   7.545  18.597  0.00  0.00    +0.000 HD
ATOM     11  H   UNL     1       7.650   6.294  14.470  0.00  0.00    +0.000 HD
ENDROOT
BRANCH   7  12
ATOM     12  C   UNL     1       6.616   4.689  13.708  0.00  0.00    +0.000 A 
ATOM     13  C   UNL     1       5.364   4.071  13.695  0.00  0.00    +0.000 A 
ATOM     14  C   UNL     1       5.077   3.051  12.778  0.00  0.00    +0.000 A 
ATOM     15  C   UNL     1       6.038   2.638  11.847  0.00  0.00    +0.000 A 
ATOM     16  C   UNL     1       5.782   1.511  10.893  0.00  0.00    +0.000 C 
ATOM     17  C   UNL     1       7.276   3.280  11.829  0.00  0.00    +0.000 A 
ATOM     18  C   UNL     1       7.551   4.297  12.743  0.00  0.00    +0.000 A 
ENDBRANCH   7  12
BRANCH   1  19
ATOM     19  C   UNL     1       4.820   3.504  18.454  0.00  0.00    +0.000 C 
BRANCH  19  24
ATOM     20  C   UNL     1       1.493   5.132  19.423  0.00  0.00    +0.000 C 
ATOM     21  C   UNL     1       1.061   4.129  20.496  0.00  0.00    +0.000 C 
ATOM     22  C   UNL     1       2.265   3.614  21.279  0.00  0.00    +0.000 C 
ATOM     23  C   UNL     1       3.336   3.053  20.344  0.00  0.00    +0.000 C 
ATOM     24  N   UNL     1       3.747   4.040  19.336  0.00  0.00    +0.000 NA
ATOM     25  C   UNL     1       2.609   4.546  18.556  0.00  0.00    +0.000 C 
BRANCH  20  26
ATOM     26  C   UNL     1       1.838   6.481  20.031  0.00  0.00    +0.000 C 
ATOM     27  O   UNL     1       2.862   7.109  19.795  0.00  0.00    +0.000 OA
BRANCH  26  28
ATOM     28  O   UNL     1       0.961   6.783  21.031  0.00  0.00    +0.000 OA
BRANCH  28  30
ATOM     29  C   UNL     1      -0.337   8.689  21.629  0.00  0.00    +0.000 C 
ATOM     30  C   UNL     1       1.069   8.123  21.530  0.00  0.00    +0.000 C 
ENDBRANCH  28  30
ENDBRANCH  26  28
ENDBRANCH  20  26
ENDBRANCH  19  24
ENDBRANCH   1  19
TORSDOF 6
ENDMDL
MODEL 9
REMARK VINA RESULT:      -7.7      4.203      5.528
REMARK  Name = 
REMARK  8 active torsions:
REMARK  status: ('A' for Active; 'I' for Inactive)
REMARK    1  A    between atoms: C_1  and  C_2
REMARK    2  A    between atoms: C_2  and  O_3
REMARK    3  A    between atoms: O_3  and  C_4
REMARK    4  A    between atoms: C_4  and  C_6
REMARK    5  A    between atoms: N_10  and  C_11
REMARK    6  A    between atoms: C_11  and  C_12
REMARK    7  A    between atoms: N_18  and  C_19
REMARK    8  A    between atoms: C_22  and  C_23
REMARK                            x       y       z     vdW  Elec       q    Type
REMARK                         _______ _______ _______ _____ _____    ______ ____
ROOT
ATOM      1  C   UNL     1       2.800   7.340  18.422  0.00  0.00    +0.000 A 
ATOM      2  N   UNL     1       2.198   6.937  19.540  0.00  0.00    +0.000 NA
ATOM      3  C   UNL     1       2.724   5.857  20.098  0.00  0.00    +0.000 A 
ATOM      4  N   UNL     1       2.136   5.423  21.268  0.00  0.00    +0.000 N 
ATOM      5  N   UNL     1       3.776   5.188  19.650  0.00  0.00    +0.000 NA
ATOM      6  C   UNL     1       4.287   5.633  18.510  0.00  0.00    +0.000 A 
ATOM      7  N   UNL     1       5.365   4.929  17.965  0.00  0.00    +0.000 N 
ATOM      8  N   UNL     1       3.845   6.721  17.879  0.00  0.00    +0.000 NA
ATOM      9  H   UNL     1       1.615   6.180  21.691  0.00  0.00    +0.000 HD
ATOM     10  H   UNL     1       2.813   4.950  21.849  0.00  0.00    +0.000 HD
ATOM     11  H   UNL     1       5.616   4.136  18.535  0.00  0.00    +0.000 HD
ENDROOT
BRANCH   7  12
ATOM     12  C   UNL     1       5.734   4.849  16.610  0.00  0.00    +0.000 A 
ATOM     13  C   UNL     1       4.895   4.216  15.690  0.00  0.00    +0.000 A 
ATOM     14  C   UNL     1       5.300   4.028  14.362  0.00  0.00    +0.000 A 
ATOM     15  C   UNL     1       6.552   4.482  13.927  0.00  0.00    +0.000 A 
ATOM     16  C   UNL     1       7.037   4.244  12.529  0.00  0.00    +0.000 C 
ATOM     17  C   UNL     1       7.376   5.151  14.831  0.00  0.00    +0.000 A 
ATOM     18  C   UNL     1       6.964   5.336  16.150  0.00  0.00    +0.000 A 
ENDBRANCH   7  12
BRANCH   1  19
ATOM     19  C   UNL     1       2.235   8.555  17.691  0.00  0.00    +0.000 C 
BRANCH  19  24
ATOM     20  C   UNL     1       0.893  11.652  19.499  0.00  0.00    +0.000 C 
ATOM     21  C   UNL     1      -0.466  11.743  18.800  0.00  0.00    +0.000 C 
ATOM     22  C   UNL     1      -1.024  10.354  18.505  0.00  0.00    +0.000 C 
ATOM     23  C   UNL     1      -0.017   9.505  17.729  0.00  0.00    +0.000 C 
ATOM     24  N   UNL     1       1.272   9.417  18.429  0.00  0.00    +0.000 NA
ATOM     25  C   UNL     1       1.841  10.741  18.716  0.00  0.00    +0.000 C 
BRANCH  20  26
ATOM     26  C   UNL     1       0.741  11.262  20.959  0.00  0.00    +0.000 C 
ATOM     27  O   UNL     1       0.254  11.979  21.824  0.00  0.00    +0.000 OA
BRANCH  26  28
ATOM     28  O   UNL     1       1.415  10.102  21.208  0.00  0.00    +0.000 OA
BRANCH  28  30
ATOM     29  C   UNL     1      -0.330   8.547  21.662  0.00  0.00    +0.000 C 
ATOM     30  C   UNL     1       0.849   9.299  22.253  0.00  0.00    +0.000 C 
ENDBRANCH  28  30
ENDBRANCH  26  28
ENDBRANCH  20  26
ENDBRANCH  19  24
ENDBRANCH   1  19
TORSDOF 6
ENDMDL
