MODEL 1
REMARK VINA RESULT:      -7.2      0.000      0.000
REMARK  Name = 
REMARK  6 active torsions:
REMARK  status: ('A' for Active; 'I' for Inactive)
REMARK    1  A    between atoms: C_1  and  C_2
REMARK    2  A    between atoms: C_2  and  N_3
REMARK    3  A    between atoms: N_14  and  C_15
REMARK    4  A    between atoms: C_15  and  C_16
REMARK    5  A    between atoms: C_16  and  C_17
REMARK    6  A    between atoms: N_23  and  C_24
REMARK                            x       y       z     vdW  Elec       q    Type
REMARK                         _______ _______ _______ _____ _____    ______ ____
ROOT
ATOM      1  N   UNL     1       4.179   4.787  18.269  0.00  0.00    +0.000 N 
ATOM      2  C   UNL     1       3.786   6.086  17.937  0.00  0.00    +0.000 A 
ATOM      3  O   UNL     1       4.163   6.684  16.933  0.00  0.00    +0.000 OA
ATOM      4  C   UNL     1       2.887   6.652  18.878  0.00  0.00    +0.000 A 
ATOM      5  C   UNL     1       2.436   6.003  19.985  0.00  0.00    +0.000 A 
ATOM      6  N   UNL     1       1.558   6.773  20.703  0.00  0.00    +0.000 NA
ATOM      7  C   UNL     1       1.486   7.917  20.047  0.00  0.00    +0.000 A 
ATOM      8  N   UNL     1       2.279   7.869  18.917  0.00  0.00    +0.000 N 
ATOM      9  C   UNL     1       2.410   8.947  17.959  0.00  0.00    +0.000 C 
ATOM     10  C   UNL     1       1.318   9.994  18.139  0.00  0.00    +0.000 C 
ATOM     11  C   UNL     1       1.157  10.285  19.625  0.00  0.00    +0.000 C 
ATOM     12  N   UNL     1       0.766   9.046  20.293  0.00  0.00    +0.000 N 
ATOM     13  N   UNL     1       2.853   4.719  20.266  0.00  0.00    +0.000 N 
ATOM     14  C   UNL     1       2.393   3.997  21.433  0.00  0.00    +0.000 C 
ATOM     15  C   UNL     1       3.737   4.070  19.397  0.00  0.00    +0.000 A 
ATOM     16  O   UNL     1       4.110   2.910  19.608  0.00  0.00    +0.000 OA
ENDROOT
BRANCH   1  18
ATOM     17  C   UNL     1       6.508   4.504  17.507  0.00  0.00    +0.000 C 
ATOM     18  C   UNL     1       5.051   4.097  17.324  0.00  0.00    +0.000 C 
ENDBRANCH   1  18
BRANCH  12  19
ATOM     19  C   UNL     1      -0.242   9.098  21.353  0.00  0.00    +0.000 C 
BRANCH  19  20
ATOM     20  C   UNL     1       0.168  10.117  22.439  0.00  0.00    +0.000 C 
BRANCH  20  21
ATOM     21  C   UNL     1      -0.757  11.306  22.561  0.00  0.00    +0.000 A 
ATOM     22  C   UNL     1      -1.967  11.213  23.268  0.00  0.00    +0.000 A 
ATOM     23  C   UNL     1      -2.796  12.330  23.403  0.00  0.00    +0.000 A 
ATOM     24  C   UNL     1      -2.426  13.547  22.835  0.00  0.00    +0.000 A 
ATOM     25  C   UNL     1      -1.224  13.651  22.138  0.00  0.00    +0.000 A 
ATOM     26  C   UNL     1      -0.392  12.538  22.005  0.00  0.00    +0.000 A 
ENDBRANCH  20  21
ENDBRANCH  19  20
ENDBRANCH  12  19
TORSDOF 4
ENDMDL
MODEL 2
REMARK VINA RESULT:      -7.2      2.947      8.115
REMARK  Name = 
REMARK  6 active torsions:
REMARK  status: ('A' for Active; 'I' for Inactive)
REMARK    1  A    between atoms: C_1  and  C_2
REMARK    2  A    between atoms: C_2  and  N_3
REMARK    3  A    between atoms: N_14  and  C_15
REMARK    4  A    between atoms: C_15  and  C_16
REMARK    5  A    between atoms: C_16  and  C_17
REMARK    6  A    between atoms: N_23  and  C_24
REMARK                            x       y       z     vdW  Elec       q    Type
REMARK                         _______ _______ _______ _____ _____    ______ ____
ROOT
ATOM      1  N   UNL     1      -0.419  12.304  20.494  0.00  0.00    +0.000 N 
ATOM      2  C   UNL     1       0.303  11.617  19.514  0.00  0.00    +0.000 A 
ATOM      3  O   UNL     1       0.597  12.087  18.420  0.00  0.00    +0.000 OA
ATOM      4  C   UNL     1       0.681  10.308  19.917  0.00  0.00    +0.000 A 
ATOM      5  C   UNL     1       0.389   9.773  21.133  0.00  0.00    +0.000 A 
ATOM      6  N   UNL     1       0.896   8.506  21.265  0.00  0.00    +0.000 NA
ATOM      7  C   UNL     1       1.485   8.249  20.111  0.00  0.00    +0.000 A 
ATOM      8  N   UNL     1       1.381   9.339  19.270  0.00  0.00    +0.000 N 
ATOM      9  C   UNL     1       1.942   9.402  17.936  0.00  0.00    +0.000 C 
ATOM     10  C   UNL     1       2.950   8.287  17.696  0.00  0.00    +0.000 C 
ATOM     11  C   UNL     1       2.381   6.984  18.243  0.00  0.00    +0.000 C 
ATOM     12  N   UNL     1       2.160   7.150  19.677  0.00  0.00    +0.000 N 
ATOM     13  N   UNL     1      -0.326  10.495  22.066  0.00  0.00    +0.000 N 
ATOM     14  C   UNL     1      -0.653   9.959  23.370  0.00  0.00    +0.000 C 
ATOM     15  C   UNL     1      -0.741  11.797  21.767  0.00  0.00    +0.000 A 
ATOM     16  O   UNL     1      -1.361  12.479  22.592  0.00  0.00    +0.000 OA
ENDROOT
BRANCH   1  18
ATOM     17  C   UNL     1       0.308  14.658  20.592  0.00  0.00    +0.000 C 
ATOM     18  C   UNL     1      -0.792  13.682  20.196  0.00  0.00    +0.000 C 
ENDBRANCH   1  18
BRANCH  12  19
ATOM     19  C   UNL     1       2.481   6.040  20.578  0.00  0.00    +0.000 C 
BRANCH  19  20
ATOM     20  C   UNL     1       1.577   4.824  20.281  0.00  0.00    +0.000 C 
BRANCH  20  21
ATOM     21  C   UNL     1       2.267   3.697  19.548  0.00  0.00    +0.000 A 
ATOM     22  C   UNL     1       3.378   3.043  20.103  0.00  0.00    +0.000 A 
ATOM     23  C   UNL     1       3.983   1.979  19.429  0.00  0.00    +0.000 A 
ATOM     24  C   UNL     1       3.487   1.559  18.197  0.00  0.00    +0.000 A 
ATOM     25  C   UNL     1       2.380   2.197  17.641  0.00  0.00    +0.000 A 
ATOM     26  C   UNL     1       1.771   3.257  18.314  0.00  0.00    +0.000 A 
ENDBRANCH  20  21
ENDBRANCH  19  20
ENDBRANCH  12  19
TORSDOF 4
ENDMDL
MODEL 3
REMARK VINA RESULT:      -7.1      2.339      3.848
REMARK  Name = 
REMARK  6 active torsions:
REMARK  status: ('A' for Active; 'I' for Inactive)
REMARK    1  A    between atoms: C_1  and  C_2
REMARK    2  A    between atoms: C_2  and  N_3
REMARK    3  A    between atoms: N_14  and  C_15
REMARK    4  A    between atoms: C_15  and  C_16
REMARK    5  A    between atoms: C_16  and  C_17
REMARK    6  A    between atoms: N_23  and  C_24
REMARK                            x       y       z     vdW  Elec       q    Type
REMARK                         _______ _______ _______ _____ _____    ______ ____
ROOT
ATOM      1  N   UNL     1       3.947   4.407  19.095  0.00  0.00    +0.000 N 
ATOM      2  C   UNL     1       3.071   5.079  19.952  0.00  0.00    +0.000 A 
ATOM      3  O   UNL     1       2.655   4.617  21.009  0.00  0.00    +0.000 OA
ATOM      4  C   UNL     1       2.713   6.369  19.480  0.00  0.00    +0.000 A 
ATOM      5  C   UNL     1       3.180   6.913  18.324  0.00  0.00    +0.000 A 
ATOM      6  N   UNL     1       2.693   8.179  18.126  0.00  0.00    +0.000 NA
ATOM      7  C   UNL     1       1.901   8.409  19.157  0.00  0.00    +0.000 A 
ATOM      8  N   UNL     1       1.903   7.324  20.011  0.00  0.00    +0.000 N 
ATOM      9  C   UNL     1       1.161   7.255  21.253  0.00  0.00    +0.000 C 
ATOM     10  C   UNL     1       0.665   8.627  21.688  0.00  0.00    +0.000 C 
ATOM     11  C   UNL     1       0.093   9.350  20.475  0.00  0.00    +0.000 C 
ATOM     12  N   UNL     1       1.160   9.501  19.490  0.00  0.00    +0.000 N 
ATOM     13  N   UNL     1       4.045   6.208  17.514  0.00  0.00    +0.000 N 
ATOM     14  C   UNL     1       4.562   6.754  16.278  0.00  0.00    +0.000 C 
ATOM     15  C   UNL     1       4.462   4.927  17.892  0.00  0.00    +0.000 A 
ATOM     16  O   UNL     1       5.258   4.280  17.201  0.00  0.00    +0.000 OA
ENDROOT
BRANCH   1  18
ATOM     17  C   UNL     1       3.582   1.973  18.946  0.00  0.00    +0.000 C 
ATOM     18  C   UNL     1       4.425   3.098  19.529  0.00  0.00    +0.000 C 
ENDBRANCH   1  18
BRANCH  12  19
ATOM     19  C   UNL     1       1.263  10.756  18.742  0.00  0.00    +0.000 C 
BRANCH  19  20
ATOM     20  C   UNL     1       0.047  11.661  19.035  0.00  0.00    +0.000 C 
BRANCH  20  21
ATOM     21  C   UNL     1      -1.227  11.241  18.338  0.00  0.00    +0.000 A 
ATOM     22  C   UNL     1      -1.214  10.264  17.330  0.00  0.00    +0.000 A 
ATOM     23  C   UNL     1      -2.404   9.859  16.720  0.00  0.00    +0.000 A 
ATOM     24  C   UNL     1      -3.616  10.426  17.109  0.00  0.00    +0.000 A 
ATOM     25  C   UNL     1      -3.640  11.390  18.114  0.00  0.00    +0.000 A 
ATOM     26  C   UNL     1      -2.453  11.793  18.728  0.00  0.00    +0.000 A 
ENDBRANCH  20  21
ENDBRANCH  19  20
ENDBRANCH  12  19
TORSDOF 4
ENDMDL
MODEL 4
REMARK VINA RESULT:      -7.1      2.557      4.061
REMARK  Name = 
REMARK  6 active torsions:
REMARK  status: ('A' for Active; 'I' for Inactive)
REMARK    1  A    between atoms: C_1  and  C_2
REMARK    2  A    between atoms: C_2  and  N_3
REMARK    3  A    between atoms: N_14  and  C_15
REMARK    4  A    between atoms: C_15  and  C_16
REMARK    5  A    between atoms: C_16  and  C_17
REMARK    6  A    between atoms: N_23  and  C_24
REMARK                            x       y       z     vdW  Elec       q    Type
REMARK                         _______ _______ _______ _____ _____    ______ ____
ROOT
ATOM      1  N   UNL     1       4.003   4.282  18.887  0.00  0.00    +0.000 N 
ATOM      2  C   UNL     1       3.133   5.022  19.692  0.00  0.00    +0.000 A 
ATOM      3  O   UNL     1       2.645   4.607  20.739  0.00  0.00    +0.000 OA
ATOM      4  C   UNL     1       2.872   6.321  19.182  0.00  0.00    +0.000 A 
ATOM      5  C   UNL     1       3.419   6.812  18.037  0.00  0.00    +0.000 A 
ATOM      6  N   UNL     1       3.017   8.100  17.795  0.00  0.00    +0.000 NA
ATOM      7  C   UNL     1       2.196   8.398  18.787  0.00  0.00    +0.000 A 
ATOM      8  N   UNL     1       2.098   7.332  19.659  0.00  0.00    +0.000 N 
ATOM      9  C   UNL     1       1.301   7.333  20.869  0.00  0.00    +0.000 C 
ATOM     10  C   UNL     1       0.869   8.740  21.257  0.00  0.00    +0.000 C 
ATOM     11  C   UNL     1       0.394   9.470  20.008  0.00  0.00    +0.000 C 
ATOM     12  N   UNL     1       1.508   9.538  19.067  0.00  0.00    +0.000 N 
ATOM     13  N   UNL     1       4.274   6.041  17.279  0.00  0.00    +0.000 N 
ATOM     14  C   UNL     1       4.875   6.530  16.057  0.00  0.00    +0.000 C 
ATOM     15  C   UNL     1       4.599   4.746  17.699  0.00  0.00    +0.000 A 
ATOM     16  O   UNL     1       5.383   4.039  17.055  0.00  0.00    +0.000 OA
ENDROOT
BRANCH   1  18
ATOM     17  C   UNL     1       3.481   1.874  18.791  0.00  0.00    +0.000 C 
ATOM     18  C   UNL     1       4.384   2.957  19.366  0.00  0.00    +0.000 C 
ENDBRANCH   1  18
BRANCH  12  19
ATOM     19  C   UNL     1       1.718  10.769  18.301  0.00  0.00    +0.000 C 
BRANCH  19  20
ATOM     20  C   UNL     1       0.953  11.944  18.949  0.00  0.00    +0.000 C 
BRANCH  20  21
ATOM     21  C   UNL     1       1.572  13.301  18.707  0.00  0.00    +0.000 A 
ATOM     22  C   UNL     1       0.831  14.479  18.890  0.00  0.00    +0.000 A 
ATOM     23  C   UNL     1       1.426  15.728  18.697  0.00  0.00    +0.000 A 
ATOM     24  C   UNL     1       2.765  15.813  18.320  0.00  0.00    +0.000 A 
ATOM     25  C   UNL     1       3.511  14.650  18.143  0.00  0.00    +0.000 A 
ATOM     26  C   UNL     1       2.919  13.401  18.339  0.00  0.00    +0.000 A 
ENDBRANCH  20  21
ENDBRANCH  19  20
ENDBRANCH  12  19
TORSDOF 4
ENDMDL
MODEL 5
REMARK VINA RESULT:      -7.1      2.934      8.158
REMARK  Name = 
REMARK  6 active torsions:
REMARK  status: ('A' for Active; 'I' for Inactive)
REMARK    1  A    between atoms: C_1  and  C_2
REMARK    2  A    between atoms: C_2  and  N_3
REMARK    3  A    between atoms: N_14  and  C_15
REMARK    4  A    between atoms: C_15  and  C_16
REMARK    5  A    between atoms: C_16  and  C_17
REMARK    6  A    between atoms: N_23  and  C_24
REMARK                            x       y       z     vdW  Elec       q    Type
REMARK                         _______ _______ _______ _____ _____    ______ ____
ROOT
ATOM      1  N   UNL     1      -0.180  12.248  20.739  0.00  0.00    +0.000 N 
ATOM      2  C   UNL     1       0.471  11.558  19.713  0.00  0.00    +0.000 A 
ATOM      3  O   UNL     1       0.731  12.043  18.616  0.00  0.00    +0.000 OA
ATOM      4  C   UNL     1       0.817  10.228  20.069  0.00  0.00    +0.000 A 
ATOM      5  C   UNL     1       0.561   9.676  21.286  0.00  0.00    +0.000 A 
ATOM      6  N   UNL     1       1.027   8.389  21.367  0.00  0.00    +0.000 NA
ATOM      7  C   UNL     1       1.553   8.137  20.181  0.00  0.00    +0.000 A 
ATOM      8  N   UNL     1       1.451   9.250  19.370  0.00  0.00    +0.000 N 
ATOM      9  C   UNL     1       1.953   9.324  18.013  0.00  0.00    +0.000 C 
ATOM     10  C   UNL     1       2.908   8.179  17.703  0.00  0.00    +0.000 C 
ATOM     11  C   UNL     1       2.316   6.885  18.247  0.00  0.00    +0.000 C 
ATOM     12  N   UNL     1       2.167   7.025  19.693  0.00  0.00    +0.000 N 
ATOM     13  N   UNL     1      -0.083  10.400  22.266  0.00  0.00    +0.000 N 
ATOM     14  C   UNL     1      -0.371   9.846  23.571  0.00  0.00    +0.000 C 
ATOM     15  C   UNL     1      -0.464  11.724  22.015  0.00  0.00    +0.000 A 
ATOM     16  O   UNL     1      -1.020  12.408  22.882  0.00  0.00    +0.000 OA
ENDROOT
BRANCH   1  18
ATOM     17  C   UNL     1      -1.980  13.808  20.100  0.00  0.00    +0.000 C 
ATOM     18  C   UNL     1      -0.516  13.645  20.489  0.00  0.00    +0.000 C 
ENDBRANCH   1  18
BRANCH  12  19
ATOM     19  C   UNL     1       2.487   5.884  20.554  0.00  0.00    +0.000 C 
BRANCH  19  20
ATOM     20  C   UNL     1       1.566   4.688  20.231  0.00  0.00    +0.000 C 
BRANCH  20  21
ATOM     21  C   UNL     1       2.252   3.545  19.518  0.00  0.00    +0.000 A 
ATOM     22  C   UNL     1       1.820   3.117  18.253  0.00  0.00    +0.000 A 
ATOM     23  C   UNL     1       2.486   2.082  17.590  0.00  0.00    +0.000 A 
ATOM     24  C   UNL     1       3.587   1.467  18.183  0.00  0.00    +0.000 A 
ATOM     25  C   UNL     1       4.027   1.890  19.435  0.00  0.00    +0.000 A 
ATOM     26  C   UNL     1       3.366   2.926  20.098  0.00  0.00    +0.000 A 
ENDBRANCH  20  21
ENDBRANCH  19  20
ENDBRANCH  12  19
TORSDOF 4
ENDMDL
MODEL 6
REMARK VINA RESULT:      -7.1      2.702      8.090
REMARK  Name = 
REMARK  6 active torsions:
REMARK  status: ('A' for Active; 'I' for Inactive)
REMARK    1  A    between atoms: C_1  and  C_2
REMARK    2  A    between atoms: C_2  and  N_3
REMARK    3  A    between atoms: N_14  and  C_15
REMARK    4  A    between atoms: C_15  and  C_16
REMARK    5  A    between atoms: C_16  and  C_17
REMARK    6  A    between atoms: N_23  and  C_24
REMARK                            x       y       z     vdW  Elec       q    Type
REMARK                         _______ _______ _______ _____ _____    ______ ____
ROOT
ATOM      1  N   UNL     1      -0.114  11.757  20.886  0.00  0.00    +0.000 N 
ATOM      2  C   UNL     1       0.466  11.153  19.768  0.00  0.00    +0.000 A 
ATOM      3  O   UNL     1       0.564  11.691  18.669  0.00  0.00    +0.000 OA
ATOM      4  C   UNL     1       0.950   9.844  20.030  0.00  0.00    +0.000 A 
ATOM      5  C   UNL     1       0.875   9.235  21.244  0.00  0.00    +0.000 A 
ATOM      6  N   UNL     1       1.441   7.987  21.221  0.00  0.00    +0.000 NA
ATOM      7  C   UNL     1       1.847   7.815  19.976  0.00  0.00    +0.000 A 
ATOM      8  N   UNL     1       1.572   8.941  19.226  0.00  0.00    +0.000 N 
ATOM      9  C   UNL     1       1.909   9.097  17.826  0.00  0.00    +0.000 C 
ATOM     10  C   UNL     1       2.906   8.041  17.366  0.00  0.00    +0.000 C 
ATOM     11  C   UNL     1       2.478   6.689  17.921  0.00  0.00    +0.000 C 
ATOM     12  N   UNL     1       2.483   6.771  19.379  0.00  0.00    +0.000 N 
ATOM     13  N   UNL     1       0.293   9.875  22.317  0.00  0.00    +0.000 N 
ATOM     14  C   UNL     1       0.198   9.259  23.623  0.00  0.00    +0.000 C 
ATOM     15  C   UNL     1      -0.211  11.172  22.163  0.00  0.00    +0.000 A 
ATOM     16  O   UNL     1      -0.715  11.783  23.114  0.00  0.00    +0.000 OA
ENDROOT
BRANCH   1  18
ATOM     17  C   UNL     1      -2.004  13.182  20.194  0.00  0.00    +0.000 C 
ATOM     18  C   UNL     1      -0.579  13.131  20.731  0.00  0.00    +0.000 C 
ENDBRANCH   1  18
BRANCH  12  19
ATOM     19  C   UNL     1       2.984   5.632  20.152  0.00  0.00    +0.000 C 
BRANCH  19  20
ATOM     20  C   UNL     1       3.444   4.499  19.209  0.00  0.00    +0.000 C 
BRANCH  20  21
ATOM     21  C   UNL     1       4.825   4.693  18.627  0.00  0.00    +0.000 A 
ATOM     22  C   UNL     1       5.837   5.336  19.358  0.00  0.00    +0.000 A 
ATOM     23  C   UNL     1       7.119   5.476  18.821  0.00  0.00    +0.000 A 
ATOM     24  C   UNL     1       7.402   4.978  17.551  0.00  0.00    +0.000 A 
ATOM     25  C   UNL     1       6.407   4.333  16.820  0.00  0.00    +0.000 A 
ATOM     26  C   UNL     1       5.127   4.187  17.356  0.00  0.00    +0.000 A 
ENDBRANCH  20  21
ENDBRANCH  19  20
ENDBRANCH  12  19
TORSDOF 4
ENDMDL
MODEL 7
REMARK VINA RESULT:      -7.0      2.902      9.181
REMARK  Name = 
REMARK  6 active torsions:
REMARK  status: ('A' for Active; 'I' for Inactive)
REMARK    1  A    between atoms: C_1  and  C_2
REMARK    2  A    between atoms: C_2  and  N_3
REMARK    3  A    between atoms: N_14  and  C_15
REMARK    4  A    between atoms: C_15  and  C_16
REMARK    5  A    between atoms: C_16  and  C_17
REMARK    6  A    between atoms: N_23  and  C_24
REMARK                            x       y       z     vdW  Elec       q    Type
REMARK                         _______ _______ _______ _____ _____    ______ ____
ROOT
ATOM      1  N   UNL     1       0.780   8.259  20.692  0.00  0.00    +0.000 N 
ATOM      2  C   UNL     1       1.558   7.103  20.585  0.00  0.00    +0.000 A 
ATOM      3  O   UNL     1       1.493   6.155  21.361  0.00  0.00    +0.000 OA
ATOM      4  C   UNL     1       2.436   7.127  19.469  0.00  0.00    +0.000 A 
ATOM      5  C   UNL     1       2.511   8.155  18.581  0.00  0.00    +0.000 A 
ATOM      6  N   UNL     1       3.422   7.903  17.588  0.00  0.00    +0.000 NA
ATOM      7  C   UNL     1       3.932   6.720  17.880  0.00  0.00    +0.000 A 
ATOM      8  N   UNL     1       3.338   6.214  19.019  0.00  0.00    +0.000 N 
ATOM      9  C   UNL     1       3.646   4.923  19.601  0.00  0.00    +0.000 C 
ATOM     10  C   UNL     1       4.428   4.043  18.635  0.00  0.00    +0.000 C 
ATOM     11  C   UNL     1       5.514   4.882  17.976  0.00  0.00    +0.000 C 
ATOM     12  N   UNL     1       4.870   5.968  17.242  0.00  0.00    +0.000 N 
ATOM     13  N   UNL     1       1.718   9.273  18.732  0.00  0.00    +0.000 N 
ATOM     14  C   UNL     1       1.769  10.384  17.807  0.00  0.00    +0.000 C 
ATOM     15  C   UNL     1       0.815   9.346  19.798  0.00  0.00    +0.000 A 
ATOM     16  O   UNL     1       0.072  10.324  19.946  0.00  0.00    +0.000 OA
ENDROOT
BRANCH   1  18
ATOM     17  C   UNL     1       0.210   9.270  22.868  0.00  0.00    +0.000 C 
ATOM     18  C   UNL     1      -0.202   8.297  21.771  0.00  0.00    +0.000 C 
ENDBRANCH   1  18
BRANCH  12  19
ATOM     19  C   UNL     1       5.395   6.348  15.929  0.00  0.00    +0.000 C 
BRANCH  19  20
ATOM     20  C   UNL     1       6.640   5.502  15.580  0.00  0.00    +0.000 C 
BRANCH  20  21
ATOM     21  C   UNL     1       6.560   4.793  14.248  0.00  0.00    +0.000 A 
ATOM     22  C   UNL     1       7.611   4.870  13.321  0.00  0.00    +0.000 A 
ATOM     23  C   UNL     1       7.539   4.180  12.109  0.00  0.00    +0.000 A 
ATOM     24  C   UNL     1       6.418   3.408  11.810  0.00  0.00    +0.000 A 
ATOM     25  C   UNL     1       5.373   3.319  12.727  0.00  0.00    +0.000 A 
ATOM     26  C   UNL     1       5.445   4.004  13.941  0.00  0.00    +0.000 A 
ENDBRANCH  20  21
ENDBRANCH  19  20
ENDBRANCH  12  19
TORSDOF 4
ENDMDL
MODEL 8
REMARK VINA RESULT:      -6.9      4.493      9.129
REMARK  Name = 
REMARK  6 active torsions:
REMARK  status: ('A' for Active; 'I' for Inactive)
REMARK    1  A    between atoms: C_1  and  C_2
REMARK    2  A    between atoms: C_2  and  N_3
REMARK    3  A    between atoms: N_14  and  C_15
REMARK    4  A    between atoms: C_15  and  C_16
REMARK    5  A    between atoms: C_16  and  C_17
REMARK    6  A    between atoms: N_23  and  C_24
REMARK                            x       y       z     vdW  Elec       q    Type
REMARK                         _______ _______ _______ _____ _____    ______ ____
ROOT
ATOM      1  N   UNL     1      -4.665  12.425  18.966  0.00  0.00    +0.000 N 
ATOM      2  C   UNL     1      -3.512  12.267  19.739  0.00  0.00    +0.000 A 
ATOM      3  O   UNL     1      -3.382  12.707  20.877  0.00  0.00    +0.000 OA
ATOM      4  C   UNL     1      -2.496  11.528  19.079  0.00  0.00    +0.000 A 
ATOM      5  C   UNL     1      -2.625  11.009  17.828  0.00  0.00    +0.000 A 
ATOM      6  N   UNL     1      -1.502  10.320  17.446  0.00  0.00    +0.000 NA
ATOM      7  C   UNL     1      -0.665  10.435  18.461  0.00  0.00    +0.000 A 
ATOM      8  N   UNL     1      -1.251  11.159  19.482  0.00  0.00    +0.000 N 
ATOM      9  C   UNL     1      -0.616  11.448  20.751  0.00  0.00    +0.000 C 
ATOM     10  C   UNL     1       0.614  10.579  20.977  0.00  0.00    +0.000 C 
ATOM     11  C   UNL     1       1.426  10.535  19.689  0.00  0.00    +0.000 C 
ATOM     12  N   UNL     1       0.593   9.948  18.643  0.00  0.00    +0.000 N 
ATOM     13  N   UNL     1      -3.785  11.192  17.106  0.00  0.00    +0.000 N 
ATOM     14  C   UNL     1      -3.958  10.653  15.774  0.00  0.00    +0.000 C 
ATOM     15  C   UNL     1      -4.849  11.904  17.671  0.00  0.00    +0.000 A 
ATOM     16  O   UNL     1      -5.913  12.063  17.059  0.00  0.00    +0.000 OA
ENDROOT
BRANCH   1  18
ATOM     17  C   UNL     1      -6.654  12.157  20.398  0.00  0.00    +0.000 C 
ATOM     18  C   UNL     1      -5.791  13.114  19.587  0.00  0.00    +0.000 C 
ENDBRANCH   1  18
BRANCH  12  19
ATOM     19  C   UNL     1       1.198   9.011  17.695  0.00  0.00    +0.000 C 
BRANCH  19  20
ATOM     20  C   UNL     1       2.629   8.640  18.141  0.00  0.00    +0.000 C 
BRANCH  20  21
ATOM     21  C   UNL     1       3.010   7.199  17.887  0.00  0.00    +0.000 A 
ATOM     22  C   UNL     1       2.105   6.156  18.138  0.00  0.00    +0.000 A 
ATOM     23  C   UNL     1       2.457   4.832  17.865  0.00  0.00    +0.000 A 
ATOM     24  C   UNL     1       3.714   4.538  17.341  0.00  0.00    +0.000 A 
ATOM     25  C   UNL     1       4.617   5.567  17.082  0.00  0.00    +0.000 A 
ATOM     26  C   UNL     1       4.265   6.891  17.349  0.00  0.00    +0.000 A 
ENDBRANCH  20  21
ENDBRANCH  19  20
ENDBRANCH  12  19
TORSDOF 4
ENDMDL
MODEL 9
REMARK VINA RESULT:      -6.9      4.445      9.078
REMARK  Name = 
REMARK  6 active torsions:
REMARK  status: ('A' for Active; 'I' for Inactive)
REMARK    1  A    between atoms: C_1  and  C_2
REMARK    2  A    between atoms: C_2  and  N_3
REMARK    3  A    between atoms: N_14  and  C_15
REMARK    4  A    between atoms: C_15  and  C_16
REMARK    5  A    between atoms: C_16  and  C_17
REMARK    6  A    between atoms: N_23  and  C_24
REMARK                            x       y       z     vdW  Elec       q    Type
REMARK                         _______ _______ _______ _____ _____    ______ ____
ROOT
ATOM      1  N   UNL     1      -4.502  12.192  18.615  0.00  0.00    +0.000 N 
ATOM      2  C   UNL     1      -3.375  12.069  19.431  0.00  0.00    +0.000 A 
ATOM      3  O   UNL     1      -3.288  12.542  20.560  0.00  0.00    +0.000 OA
ATOM      4  C   UNL     1      -2.329  11.323  18.826  0.00  0.00    +0.000 A 
ATOM      5  C   UNL     1      -2.411  10.768  17.586  0.00  0.00    +0.000 A 
ATOM      6  N   UNL     1      -1.269  10.081  17.262  0.00  0.00    +0.000 NA
ATOM      7  C   UNL     1      -0.467  10.234  18.301  0.00  0.00    +0.000 A 
ATOM      8  N   UNL     1      -1.095  10.979  19.280  0.00  0.00    +0.000 N 
ATOM      9  C   UNL     1      -0.506  11.310  20.562  0.00  0.00    +0.000 C 
ATOM     10  C   UNL     1       0.724  10.461  20.853  0.00  0.00    +0.000 C 
ATOM     11  C   UNL     1       1.580  10.391  19.595  0.00  0.00    +0.000 C 
ATOM     12  N   UNL     1       0.788   9.766  18.538  0.00  0.00    +0.000 N 
ATOM     13  N   UNL     1      -3.547  10.918  16.821  0.00  0.00    +0.000 N 
ATOM     14  C   UNL     1      -3.670  10.341  15.500  0.00  0.00    +0.000 C 
ATOM     15  C   UNL     1      -4.637  11.634  17.330  0.00  0.00    +0.000 A 
ATOM     16  O   UNL     1      -5.681  11.764  16.679  0.00  0.00    +0.000 OA
ENDROOT
BRANCH   1  18
ATOM     17  C   UNL     1      -6.549  11.937  19.967  0.00  0.00    +0.000 C 
ATOM     18  C   UNL     1      -5.655  12.886  19.179  0.00  0.00    +0.000 C 
ENDBRANCH   1  18
BRANCH  12  19
ATOM     19  C   UNL     1       1.435   8.810  17.637  0.00  0.00    +0.000 C 
BRANCH  19  20
ATOM     20  C   UNL     1       2.684   8.197  18.307  0.00  0.00    +0.000 C 
BRANCH  20  21
ATOM     21  C   UNL     1       2.952   6.758  17.931  0.00  0.00    +0.000 A 
ATOM     22  C   UNL     1       4.182   6.370  17.377  0.00  0.00    +0.000 A 
ATOM     23  C   UNL     1       4.429   5.030  17.067  0.00  0.00    +0.000 A 
ATOM     24  C   UNL     1       3.451   4.067  17.307  0.00  0.00    +0.000 A 
ATOM     25  C   UNL     1       2.230   4.440  17.864  0.00  0.00    +0.000 A 
ATOM     26  C   UNL     1       1.983   5.778  18.178  0.00  0.00    +0.000 A 
ENDBRANCH  20  21
ENDBRANCH  19  20
ENDBRANCH  12  19
TORSDOF 4
ENDMDL
