MODEL 1
REMARK VINA RESULT:      -7.4      0.000      0.000
REMARK  Name = 
REMARK  5 active torsions:
REMARK  status: ('A' for Active; 'I' for Inactive)
REMARK    1  A    between atoms: C_1  and  C_2
REMARK    2  A    between atoms: C_6  and  C_7
REMARK    3  A    between atoms: N_8  and  N_9
REMARK    4  A    between atoms: C_21  and  C_22
REMARK    5  A    between atoms: N_23  and  N_24
REMARK                            x       y       z     vdW  Elec       q    Type
REMARK                         _______ _______ _______ _____ _____    ______ ____
ROOT
ATOM      1  C   UNL     1      -5.511  10.899  17.947  0.00  0.00    +0.000 C 
ATOM      2  C   UNL     1      -4.046  11.068  18.224  0.00  0.00    +0.000 A 
ATOM      3  C   UNL     1      -3.131  10.328  17.517  0.00  0.00    +0.000 A 
ATOM      4  C   UNL     1      -1.786  10.451  17.773  0.00  0.00    +0.000 A 
ATOM      5  C   UNL     1      -1.259  11.355  18.744  0.00  0.00    +0.000 A 
ATOM      6  C   UNL     1       0.155  11.469  18.993  0.00  0.00    +0.000 A 
ATOM      7  C   UNL     1       0.601  12.501  19.887  0.00  0.00    +0.000 A 
ATOM      8  C   UNL     1       1.995  12.733  20.102  0.00  0.00    +0.000 A 
ATOM      9  C   UNL     1       2.458  13.740  20.934  0.00  0.00    +0.000 A 
ATOM     10  C   UNL     1       1.568  14.550  21.592  0.00  0.00    +0.000 A 
ATOM     11  C   UNL     1       0.207  14.361  21.430  0.00  0.00    +0.000 A 
ATOM     12  C   UNL     1      -0.336  13.345  20.582  0.00  0.00    +0.000 A 
ATOM     13  C   UNL     1      -1.759  13.157  20.413  0.00  0.00    +0.000 A 
ATOM     14  C   UNL     1      -2.203  12.169  19.463  0.00  0.00    +0.000 A 
ATOM     15  C   UNL     1      -3.596  11.972  19.185  0.00  0.00    +0.000 A 
ENDROOT
BRANCH   6  16
ATOM     16  C   UNL     1       1.191  10.528  18.354  0.00  0.00    +0.000 C 
ATOM     17  N   UNL     1       1.327   9.299  18.701  0.00  0.00    +0.000 NA
BRANCH  17  18
ATOM     18  N   UNL     1       2.273   8.444  18.187  0.00  0.00    +0.000 N 
ATOM     19  C   UNL     1       2.557   7.231  18.874  0.00  0.00    +0.000 C 
ATOM     20  N   UNL     1       1.972   6.895  19.961  0.00  0.00    +0.000 NA
ATOM     21  C   UNL     1       2.452   5.610  20.414  0.00  0.00    +0.000 C 
ATOM     22  C   UNL     1       3.409   5.139  19.300  0.00  0.00    +0.000 C 
ATOM     23  N   UNL     1       3.468   6.275  18.421  0.00  0.00    +0.000 N 
ATOM     24  H   UNL     1       2.755   8.655  17.302  0.00  0.00    +0.000 HD
ATOM     25  H   UNL     1       4.020   6.331  17.550  0.00  0.00    +0.000 HD
ENDBRANCH  17  18
ENDBRANCH   6  16
BRANCH  13  26
ATOM     26  C   UNL     1      -2.809  13.969  21.184  0.00  0.00    +0.000 C 
ATOM     27  N   UNL     1      -3.266  13.645  22.340  0.00  0.00    +0.000 NA
BRANCH  27  28
ATOM     28  N   UNL     1      -4.226  14.383  23.001  0.00  0.00    +0.000 N 
ATOM     29  C   UNL     1      -5.478  13.792  23.324  0.00  0.00    +0.000 C 
ATOM     30  N   UNL     1      -5.782  12.591  23.018  0.00  0.00    +0.000 NA
ATOM     31  C   UNL     1      -7.110  12.279  23.490  0.00  0.00    +0.000 C 
ATOM     32  C   UNL     1      -7.544  13.526  24.289  0.00  0.00    +0.000 C 
ATOM     33  N   UNL     1      -6.483  14.459  24.037  0.00  0.00    +0.000 N 
ATOM     34  H   UNL     1      -4.039  15.355  23.291  0.00  0.00    +0.000 HD
ATOM     35  H   UNL     1      -6.425  15.419  24.408  0.00  0.00    +0.000 HD
ENDBRANCH  27  28
ENDBRANCH  13  26
TORSDOF 4
ENDMDL
MODEL 2
REMARK VINA RESULT:      -7.4      1.795      8.488
REMARK  Name = 
REMARK  5 active torsions:
REMARK  status: ('A' for Active; 'I' for Inactive)
REMARK    1  A    between atoms: C_1  and  C_2
REMARK    2  A    between atoms: C_6  and  C_7
REMARK    3  A    between atoms: N_8  and  N_9
REMARK    4  A    between atoms: C_21  and  C_22
REMARK    5  A    between atoms: N_23  and  N_24
REMARK                            x       y       z     vdW  Elec       q    Type
REMARK                         _______ _______ _______ _____ _____    ______ ____
ROOT
ATOM      1  C   UNL     1      -3.523  10.005  14.215  0.00  0.00    +0.000 C 
ATOM      2  C   UNL     1      -3.385  10.515  15.619  0.00  0.00    +0.000 A 
ATOM      3  C   UNL     1      -4.409  11.235  16.183  0.00  0.00    +0.000 A 
ATOM      4  C   UNL     1      -4.292  11.732  17.460  0.00  0.00    +0.000 A 
ATOM      5  C   UNL     1      -3.141  11.515  18.276  0.00  0.00    +0.000 A 
ATOM      6  C   UNL     1      -3.042  12.044  19.613  0.00  0.00    +0.000 A 
ATOM      7  C   UNL     1      -1.910  11.660  20.408  0.00  0.00    +0.000 A 
ATOM      8  C   UNL     1      -1.799  12.068  21.773  0.00  0.00    +0.000 A 
ATOM      9  C   UNL     1      -0.735  11.689  22.575  0.00  0.00    +0.000 A 
ATOM     10  C   UNL     1       0.264  10.902  22.062  0.00  0.00    +0.000 A 
ATOM     11  C   UNL     1       0.214  10.488  20.743  0.00  0.00    +0.000 A 
ATOM     12  C   UNL     1      -0.858  10.839  19.864  0.00  0.00    +0.000 A 
ATOM     13  C   UNL     1      -0.908  10.400  18.489  0.00  0.00    +0.000 A 
ATOM     14  C   UNL     1      -2.077  10.726  17.714  0.00  0.00    +0.000 A 
ATOM     15  C   UNL     1      -2.234  10.266  16.365  0.00  0.00    +0.000 A 
ENDROOT
BRANCH   6  16
ATOM     16  C   UNL     1      -4.087  13.006  20.206  0.00  0.00    +0.000 C 
ATOM     17  N   UNL     1      -4.986  12.631  21.043  0.00  0.00    +0.000 NA
BRANCH  17  18
ATOM     18  N   UNL     1      -5.965  13.452  21.555  0.00  0.00    +0.000 N 
ATOM     19  C   UNL     1      -5.632  14.355  22.602  0.00  0.00    +0.000 C 
ATOM     20  N   UNL     1      -4.457  14.440  23.100  0.00  0.00    +0.000 NA
ATOM     21  C   UNL     1      -4.420  15.452  24.131  0.00  0.00    +0.000 C 
ATOM     22  C   UNL     1      -5.827  16.082  24.106  0.00  0.00    +0.000 C 
ATOM     23  N   UNL     1      -6.537  15.258  23.166  0.00  0.00    +0.000 N 
ATOM     24  H   UNL     1      -6.920  13.440  21.173  0.00  0.00    +0.000 HD
ATOM     25  H   UNL     1      -7.523  15.378  22.888  0.00  0.00    +0.000 HD
ENDBRANCH  17  18
ENDBRANCH   6  16
BRANCH  13  26
ATOM     26  C   UNL     1       0.217   9.591  17.827  0.00  0.00    +0.000 C 
ATOM     27  N   UNL     1       1.364   9.375  18.364  0.00  0.00    +0.000 NA
BRANCH  27  28
ATOM     28  N   UNL     1       2.364   8.662  17.737  0.00  0.00    +0.000 N 
ATOM     29  C   UNL     1       2.832   7.445  18.304  0.00  0.00    +0.000 C 
ATOM     30  N   UNL     1       2.380   6.966  19.396  0.00  0.00    +0.000 NA
ATOM     31  C   UNL     1       3.040   5.720  19.704  0.00  0.00    +0.000 C 
ATOM     32  C   UNL     1       3.938   5.442  18.479  0.00  0.00    +0.000 C 
ATOM     33  N   UNL     1       3.808   6.641  17.701  0.00  0.00    +0.000 N 
ATOM     34  H   UNL     1       2.764   8.986  16.842  0.00  0.00    +0.000 HD
ATOM     35  H   UNL     1       4.273   6.826  16.801  0.00  0.00    +0.000 HD
ENDBRANCH  27  28
ENDBRANCH  13  26
TORSDOF 4
ENDMDL
MODEL 3
REMARK VINA RESULT:      -7.4      4.288     11.461
REMARK  Name = 
REMARK  5 active torsions:
REMARK  status: ('A' for Active; 'I' for Inactive)
REMARK    1  A    between atoms: C_1  and  C_2
REMARK    2  A    between atoms: C_6  and  C_7
REMARK    3  A    between atoms: N_8  and  N_9
REMARK    4  A    between atoms: C_21  and  C_22
REMARK    5  A    between atoms: N_23  and  N_24
REMARK                            x       y       z     vdW  Elec       q    Type
REMARK                         _______ _______ _______ _____ _____    ______ ____
ROOT
ATOM      1  C   UNL     1       7.060   4.477  14.220  0.00  0.00    +0.000 C 
ATOM      2  C   UNL     1       6.098   5.060  15.213  0.00  0.00    +0.000 A 
ATOM      3  C   UNL     1       5.601   6.325  15.014  0.00  0.00    +0.000 A 
ATOM      4  C   UNL     1       4.738   6.886  15.925  0.00  0.00    +0.000 A 
ATOM      5  C   UNL     1       4.286   6.201  17.093  0.00  0.00    +0.000 A 
ATOM      6  C   UNL     1       3.378   6.809  18.032  0.00  0.00    +0.000 A 
ATOM      7  C   UNL     1       2.871   5.996  19.101  0.00  0.00    +0.000 A 
ATOM      8  C   UNL     1       1.892   6.506  20.010  0.00  0.00    +0.000 A 
ATOM      9  C   UNL     1       1.360   5.739  21.033  0.00  0.00    +0.000 A 
ATOM     10  C   UNL     1       1.777   4.443  21.206  0.00  0.00    +0.000 A 
ATOM     11  C   UNL     1       2.732   3.902  20.363  0.00  0.00    +0.000 A 
ATOM     12  C   UNL     1       3.316   4.639  19.285  0.00  0.00    +0.000 A 
ATOM     13  C   UNL     1       4.308   4.066  18.405  0.00  0.00    +0.000 A 
ATOM     14  C   UNL     1       4.763   4.858  17.291  0.00  0.00    +0.000 A 
ATOM     15  C   UNL     1       5.693   4.336  16.332  0.00  0.00    +0.000 A 
ENDROOT
BRANCH   6  16
ATOM     16  C   UNL     1       2.950   8.284  17.939  0.00  0.00    +0.000 C 
ATOM     17  N   UNL     1       1.738   8.647  17.718  0.00  0.00    +0.000 NA
BRANCH  17  18
ATOM     18  N   UNL     1       1.329   9.953  17.579  0.00  0.00    +0.000 N 
ATOM     19  C   UNL     1       0.786  10.632  18.706  0.00  0.00    +0.000 C 
ATOM     20  N   UNL     1       0.653  10.080  19.852  0.00  0.00    +0.000 NA
ATOM     21  C   UNL     1       0.091  11.016  20.798  0.00  0.00    +0.000 C 
ATOM     22  C   UNL     1      -0.005  12.343  20.020  0.00  0.00    +0.000 C 
ATOM     23  N   UNL     1       0.378  11.967  18.686  0.00  0.00    +0.000 N 
ATOM     24  H   UNL     1       1.437  10.452  16.685  0.00  0.00    +0.000 HD
ATOM     25  H   UNL     1       0.431  12.604  17.875  0.00  0.00    +0.000 HD
ENDBRANCH  17  18
ENDBRANCH   6  16
BRANCH  13  26
ATOM     26  C   UNL     1       4.882   2.655  18.595  0.00  0.00    +0.000 C 
ATOM     27  N   UNL     1       4.201   1.648  19.010  0.00  0.00    +0.000 NA
BRANCH  27  28
ATOM     28  N   UNL     1       4.748   0.395  19.192  0.00  0.00    +0.000 N 
ATOM     29  C   UNL     1       5.453   0.094  20.390  0.00  0.00    +0.000 C 
ATOM     30  N   UNL     1       5.627   0.942  21.327  0.00  0.00    +0.000 NA
ATOM     31  C   UNL     1       6.365   0.340  22.411  0.00  0.00    +0.000 C 
ATOM     32  C   UNL     1       6.514  -1.142  22.005  0.00  0.00    +0.000 C 
ATOM     33  N   UNL     1       5.992  -1.168  20.669  0.00  0.00    +0.000 N 
ATOM     34  H   UNL     1       4.631  -0.342  18.479  0.00  0.00    +0.000 HD
ATOM     35  H   UNL     1       5.930  -1.999  20.063  0.00  0.00    +0.000 HD
ENDBRANCH  27  28
ENDBRANCH  13  26
TORSDOF 4
ENDMDL
MODEL 4
REMARK VINA RESULT:      -7.3      1.228      9.105
REMARK  Name = 
REMARK  5 active torsions:
REMARK  status: ('A' for Active; 'I' for Inactive)
REMARK    1  A    between atoms: C_1  and  C_2
REMARK    2  A    between atoms: C_6  and  C_7
REMARK    3  A    between atoms: N_8  and  N_9
REMARK    4  A    between atoms: C_21  and  C_22
REMARK    5  A    between atoms: N_23  and  N_24
REMARK                            x       y       z     vdW  Elec       q    Type
REMARK                         _______ _______ _______ _____ _____    ______ ____
ROOT
ATOM      1  C   UNL     1       3.469  13.980  21.100  0.00  0.00    +0.000 C 
ATOM      2  C   UNL     1       2.036  13.663  20.787  0.00  0.00    +0.000 A 
ATOM      3  C   UNL     1       1.037  14.437  21.324  0.00  0.00    +0.000 A 
ATOM      4  C   UNL     1      -0.283  14.147  21.069  0.00  0.00    +0.000 A 
ATOM      5  C   UNL     1      -0.694  13.071  20.227  0.00  0.00    +0.000 A 
ATOM      6  C   UNL     1      -2.084  12.788  19.971  0.00  0.00    +0.000 A 
ATOM      7  C   UNL     1      -2.399  11.776  19.004  0.00  0.00    +0.000 A 
ATOM      8  C   UNL     1      -3.754  11.514  18.631  0.00  0.00    +0.000 A 
ATOM      9  C   UNL     1      -4.090  10.565  17.679  0.00  0.00    +0.000 A 
ATOM     10  C   UNL     1      -3.106   9.832  17.064  0.00  0.00    +0.000 A 
ATOM     11  C   UNL     1      -1.778  10.036  17.396  0.00  0.00    +0.000 A 
ATOM     12  C   UNL     1      -1.364  11.003  18.366  0.00  0.00    +0.000 A 
ATOM     13  C   UNL     1       0.024  11.214  18.704  0.00  0.00    +0.000 A 
ATOM     14  C   UNL     1       0.343  12.278  19.621  0.00  0.00    +0.000 A 
ATOM     15  C   UNL     1       1.701  12.598  19.953  0.00  0.00    +0.000 A 
ENDROOT
BRANCH   6  16
ATOM     16  C   UNL     1      -3.228  13.515  20.700  0.00  0.00    +0.000 C 
ATOM     17  N   UNL     1      -3.545  13.273  21.921  0.00  0.00    +0.000 NA
BRANCH  17  18
ATOM     18  N   UNL     1      -4.591  13.867  22.587  0.00  0.00    +0.000 N 
ATOM     19  C   UNL     1      -4.318  14.916  23.509  0.00  0.00    +0.000 C 
ATOM     20  N   UNL     1      -3.135  15.335  23.754  0.00  0.00    +0.000 NA
ATOM     21  C   UNL     1      -3.173  16.414  24.715  0.00  0.00    +0.000 C 
ATOM     22  C   UNL     1      -4.675  16.670  24.951  0.00  0.00    +0.000 C 
ATOM     23  N   UNL     1      -5.306  15.613  24.207  0.00  0.00    +0.000 N 
ATOM     24  H   UNL     1      -5.564  13.584  22.408  0.00  0.00    +0.000 HD
ATOM     25  H   UNL     1      -6.324  15.459  24.131  0.00  0.00    +0.000 HD
ENDBRANCH  17  18
ENDBRANCH   6  16
BRANCH  13  26
ATOM     26  C   UNL     1       1.166  10.372  18.120  0.00  0.00    +0.000 C 
ATOM     27  N   UNL     1       1.434   9.168  18.482  0.00  0.00    +0.000 NA
BRANCH  27  28
ATOM     28  N   UNL     1       2.481   8.442  17.955  0.00  0.00    +0.000 N 
ATOM     29  C   UNL     1       2.852   7.201  18.542  0.00  0.00    +0.000 C 
ATOM     30  N   UNL     1       2.267   6.711  19.565  0.00  0.00    +0.000 NA
ATOM     31  C   UNL     1       2.857   5.442  19.915  0.00  0.00    +0.000 C 
ATOM     32  C   UNL     1       3.880   5.164  18.793  0.00  0.00    +0.000 C 
ATOM     33  N   UNL     1       3.869   6.382  18.034  0.00  0.00    +0.000 N 
ATOM     34  H   UNL     1       2.987   8.773  17.119  0.00  0.00    +0.000 HD
ATOM     35  H   UNL     1       4.438   6.574  17.197  0.00  0.00    +0.000 HD
ENDBRANCH  27  28
ENDBRANCH  13  26
TORSDOF 4
ENDMDL
MODEL 5
REMARK VINA RESULT:      -7.2      0.369      8.906
REMARK  Name = 
REMARK  5 active torsions:
REMARK  status: ('A' for Active; 'I' for Inactive)
REMARK    1  A    between atoms: C_1  and  C_2
REMARK    2  A    between atoms: C_6  and  C_7
REMARK    3  A    between atoms: N_8  and  N_9
REMARK    4  A    between atoms: C_21  and  C_22
REMARK    5  A    between atoms: N_23  and  N_24
REMARK                            x       y       z     vdW  Elec       q    Type
REMARK                         _______ _______ _______ _____ _____    ______ ____
ROOT
ATOM      1  C   UNL     1       3.748  14.155  21.109  0.00  0.00    +0.000 C 
ATOM      2  C   UNL     1       2.293  13.899  20.849  0.00  0.00    +0.000 A 
ATOM      3  C   UNL     1       1.353  14.781  21.322  0.00  0.00    +0.000 A 
ATOM      4  C   UNL     1       0.013  14.551  21.116  0.00  0.00    +0.000 A 
ATOM      5  C   UNL     1      -0.479  13.425  20.390  0.00  0.00    +0.000 A 
ATOM      6  C   UNL     1      -1.889  13.207  20.183  0.00  0.00    +0.000 A 
ATOM      7  C   UNL     1      -2.284  12.126  19.325  0.00  0.00    +0.000 A 
ATOM      8  C   UNL     1      -3.659  11.914  18.999  0.00  0.00    +0.000 A 
ATOM      9  C   UNL     1      -4.072  10.900  18.150  0.00  0.00    +0.000 A 
ATOM     10  C   UNL     1      -3.147  10.051  17.596  0.00  0.00    +0.000 A 
ATOM     11  C   UNL     1      -1.802  10.203  17.887  0.00  0.00    +0.000 A 
ATOM     12  C   UNL     1      -1.311  11.232  18.751  0.00  0.00    +0.000 A 
ATOM     13  C   UNL     1       0.094  11.389  19.047  0.00  0.00    +0.000 A 
ATOM     14  C   UNL     1       0.495  12.515  19.850  0.00  0.00    +0.000 A 
ATOM     15  C   UNL     1       1.877  12.781  20.129  0.00  0.00    +0.000 A 
ENDROOT
BRANCH   6  16
ATOM     16  C   UNL     1      -2.971  14.070  20.854  0.00  0.00    +0.000 C 
ATOM     17  N   UNL     1      -3.334  13.913  22.076  0.00  0.00    +0.000 NA
BRANCH  17  18
ATOM     18  N   UNL     1      -4.331  14.633  22.692  0.00  0.00    +0.000 N 
ATOM     19  C   UNL     1      -5.465  13.945  23.206  0.00  0.00    +0.000 C 
ATOM     20  N   UNL     1      -5.607  12.677  23.118  0.00  0.00    +0.000 NA
ATOM     21  C   UNL     1      -6.844  12.265  23.741  0.00  0.00    +0.000 C 
ATOM     22  C   UNL     1      -7.418  13.558  24.354  0.00  0.00    +0.000 C 
ATOM     23  N   UNL     1      -6.514  14.571  23.882  0.00  0.00    +0.000 N 
ATOM     24  H   UNL     1      -4.255  15.653  22.810  0.00  0.00    +0.000 HD
ATOM     25  H   UNL     1      -6.581  15.580  24.092  0.00  0.00    +0.000 HD
ENDBRANCH  17  18
ENDBRANCH   6  16
BRANCH  13  26
ATOM     26  C   UNL     1       1.171  10.424  18.532  0.00  0.00    +0.000 C 
ATOM     27  N   UNL     1       1.302   9.209  18.929  0.00  0.00    +0.000 NA
BRANCH  27  28
ATOM     28  N   UNL     1       2.294   8.371  18.465  0.00  0.00    +0.000 N 
ATOM     29  C   UNL     1       2.527   7.123  19.105  0.00  0.00    +0.000 C 
ATOM     30  N   UNL     1       1.865   6.727  20.122  0.00  0.00    +0.000 NA
ATOM     31  C   UNL     1       2.322   5.422  20.534  0.00  0.00    +0.000 C 
ATOM     32  C   UNL     1       3.352   5.011  19.460  0.00  0.00    +0.000 C 
ATOM     33  N   UNL     1       3.480   6.196  18.662  0.00  0.00    +0.000 N 
ATOM     34  H   UNL     1       2.856   8.624  17.637  0.00  0.00    +0.000 HD
ATOM     35  H   UNL     1       4.091   6.305  17.839  0.00  0.00    +0.000 HD
ENDBRANCH  27  28
ENDBRANCH  13  26
TORSDOF 4
ENDMDL
MODEL 6
REMARK VINA RESULT:      -7.2      2.228      3.106
REMARK  Name = 
REMARK  5 active torsions:
REMARK  status: ('A' for Active; 'I' for Inactive)
REMARK    1  A    between atoms: C_1  and  C_2
REMARK    2  A    between atoms: C_6  and  C_7
REMARK    3  A    between atoms: N_8  and  N_9
REMARK    4  A    between atoms: C_21  and  C_22
REMARK    5  A    between atoms: N_23  and  N_24
REMARK                            x       y       z     vdW  Elec       q    Type
REMARK                         _______ _______ _______ _____ _____    ______ ____
ROOT
ATOM      1  C   UNL     1      -1.090  17.390  18.984  0.00  0.00    +0.000 C 
ATOM      2  C   UNL     1      -0.652  15.979  19.242  0.00  0.00    +0.000 A 
ATOM      3  C   UNL     1       0.298  15.404  18.434  0.00  0.00    +0.000 A 
ATOM      4  C   UNL     1       0.695  14.104  18.638  0.00  0.00    +0.000 A 
ATOM      5  C   UNL     1       0.182  13.292  19.695  0.00  0.00    +0.000 A 
ATOM      6  C   UNL     1       0.615  11.932  19.892  0.00  0.00    +0.000 A 
ATOM      7  C   UNL     1       0.151  11.239  21.060  0.00  0.00    +0.000 A 
ATOM      8  C   UNL     1       0.618   9.924  21.368  0.00  0.00    +0.000 A 
ATOM      9  C   UNL     1       0.213   9.241  22.503  0.00  0.00    +0.000 A 
ATOM     10  C   UNL     1      -0.675   9.822  23.374  0.00  0.00    +0.000 A 
ATOM     11  C   UNL     1      -1.169  11.089  23.118  0.00  0.00    +0.000 A 
ATOM     12  C   UNL     1      -0.787  11.849  21.968  0.00  0.00    +0.000 A 
ATOM     13  C   UNL     1      -1.303  13.174  21.710  0.00  0.00    +0.000 A 
ATOM     14  C   UNL     1      -0.782  13.894  20.577  0.00  0.00    +0.000 A 
ATOM     15  C   UNL     1      -1.190  15.240  20.294  0.00  0.00    +0.000 A 
ENDROOT
BRANCH   6  16
ATOM     16  C   UNL     1       1.536  11.200  18.899  0.00  0.00    +0.000 C 
ATOM     17  N   UNL     1       1.321   9.998  18.503  0.00  0.00    +0.000 NA
BRANCH  17  18
ATOM     18  N   UNL     1       2.149   9.297  17.656  0.00  0.00    +0.000 N 
ATOM     19  C   UNL     1       2.643   8.027  18.066  0.00  0.00    +0.000 C 
ATOM     20  N   UNL     1       2.357   7.502  19.197  0.00  0.00    +0.000 NA
ATOM     21  C   UNL     1       2.988   6.209  19.324  0.00  0.00    +0.000 C 
ATOM     22  C   UNL     1       3.662   5.970  17.958  0.00  0.00    +0.000 C 
ATOM     23  N   UNL     1       3.455   7.216  17.271  0.00  0.00    +0.000 N 
ATOM     24  H   UNL     1       2.390   9.664  16.725  0.00  0.00    +0.000 HD
ATOM     25  H   UNL     1       3.775   7.433  16.314  0.00  0.00    +0.000 HD
ENDBRANCH  17  18
ENDBRANCH   6  16
BRANCH  13  26
ATOM     26  C   UNL     1      -2.362  13.847  22.594  0.00  0.00    +0.000 C 
ATOM     27  N   UNL     1      -3.620  13.863  22.330  0.00  0.00    +0.000 NA
BRANCH  27  28
ATOM     28  N   UNL     1      -4.547  14.495  23.132  0.00  0.00    +0.000 N 
ATOM     29  C   UNL     1      -5.801  13.877  23.391  0.00  0.00    +0.000 C 
ATOM     30  N   UNL     1      -6.136  12.747  22.900  0.00  0.00    +0.000 NA
ATOM     31  C   UNL     1      -7.456  12.380  23.354  0.00  0.00    +0.000 C 
ATOM     32  C   UNL     1      -7.844  13.484  24.360  0.00  0.00    +0.000 C 
ATOM     33  N   UNL     1      -6.773  14.431  24.234  0.00  0.00    +0.000 N 
ATOM     34  H   UNL     1      -4.334  15.403  23.572  0.00  0.00    +0.000 HD
ATOM     35  H   UNL     1      -6.687  15.315  24.756  0.00  0.00    +0.000 HD
ENDBRANCH  27  28
ENDBRANCH  13  26
TORSDOF 4
ENDMDL
MODEL 7
REMARK VINA RESULT:      -7.1      1.988      8.689
REMARK  Name = 
REMARK  5 active torsions:
REMARK  status: ('A' for Active; 'I' for Inactive)
REMARK    1  A    between atoms: C_1  and  C_2
REMARK    2  A    between atoms: C_6  and  C_7
REMARK    3  A    between atoms: N_8  and  N_9
REMARK    4  A    between atoms: C_21  and  C_22
REMARK    5  A    between atoms: N_23  and  N_24
REMARK                            x       y       z     vdW  Elec       q    Type
REMARK                         _______ _______ _______ _____ _____    ______ ____
ROOT
ATOM      1  C   UNL     1      -3.183  10.141  14.381  0.00  0.00    +0.000 C 
ATOM      2  C   UNL     1      -3.306  10.674  15.778  0.00  0.00    +0.000 A 
ATOM      3  C   UNL     1      -4.534  11.072  16.246  0.00  0.00    +0.000 A 
ATOM      4  C   UNL     1      -4.664  11.587  17.515  0.00  0.00    +0.000 A 
ATOM      5  C   UNL     1      -3.566  11.711  18.419  0.00  0.00    +0.000 A 
ATOM      6  C   UNL     1      -3.727  12.251  19.745  0.00  0.00    +0.000 A 
ATOM      7  C   UNL     1      -2.598  12.209  20.631  0.00  0.00    +0.000 A 
ATOM      8  C   UNL     1      -2.715  12.636  21.990  0.00  0.00    +0.000 A 
ATOM      9  C   UNL     1      -1.653  12.581  22.878  0.00  0.00    +0.000 A 
ATOM     10  C   UNL     1      -0.434  12.110  22.461  0.00  0.00    +0.000 A 
ATOM     11  C   UNL     1      -0.260  11.696  21.152  0.00  0.00    +0.000 A 
ATOM     12  C   UNL     1      -1.317  11.722  20.188  0.00  0.00    +0.000 A 
ATOM     13  C   UNL     1      -1.131  11.282  18.824  0.00  0.00    +0.000 A 
ATOM     14  C   UNL     1      -2.281  11.257  17.958  0.00  0.00    +0.000 A 
ATOM     15  C   UNL     1      -2.194  10.767  16.613  0.00  0.00    +0.000 A 
ENDROOT
BRANCH   6  16
ATOM     16  C   UNL     1      -5.045  12.875  20.235  0.00  0.00    +0.000 C 
ATOM     17  N   UNL     1      -5.348  14.108  20.045  0.00  0.00    +0.000 NA
BRANCH  17  18
ATOM     18  N   UNL     1      -6.494  14.710  20.511  0.00  0.00    +0.000 N 
ATOM     19  C   UNL     1      -6.434  15.478  21.707  0.00  0.00    +0.000 C 
ATOM     20  N   UNL     1      -5.357  15.634  22.380  0.00  0.00    +0.000 NA
ATOM     21  C   UNL     1      -5.601  16.473  23.530  0.00  0.00    +0.000 C 
ATOM     22  C   UNL     1      -7.070  16.917  23.382  0.00  0.00    +0.000 C 
ATOM     23  N   UNL     1      -7.525  16.163  22.246  0.00  0.00    +0.000 N 
ATOM     24  H   UNL     1      -7.381  14.637  19.994  0.00  0.00    +0.000 HD
ATOM     25  H   UNL     1      -8.475  16.199  21.844  0.00  0.00    +0.000 HD
ENDBRANCH  17  18
ENDBRANCH   6  16
BRANCH  13  26
ATOM     26  C   UNL     1       0.226  10.827  18.268  0.00  0.00    +0.000 C 
ATOM     27  N   UNL     1       0.627   9.607  18.251  0.00  0.00    +0.000 NA
BRANCH  27  28
ATOM     28  N   UNL     1       1.861   9.229  17.765  0.00  0.00    +0.000 N 
ATOM     29  C   UNL     1       2.467   8.025  18.219  0.00  0.00    +0.000 C 
ATOM     30  N   UNL     1       1.928   7.259  19.086  0.00  0.00    +0.000 NA
ATOM     31  C   UNL     1       2.774   6.116  19.331  0.00  0.00    +0.000 C 
ATOM     32  C   UNL     1       3.929   6.260  18.318  0.00  0.00    +0.000 C 
ATOM     33  N   UNL     1       3.692   7.550  17.736  0.00  0.00    +0.000 N 
ATOM     34  H   UNL     1       2.344   9.796  17.051  0.00  0.00    +0.000 HD
ATOM     35  H   UNL     1       4.270   7.997  17.009  0.00  0.00    +0.000 HD
ENDBRANCH  27  28
ENDBRANCH  13  26
TORSDOF 4
ENDMDL
MODEL 8
REMARK VINA RESULT:      -7.1      0.683      3.790
REMARK  Name = 
REMARK  5 active torsions:
REMARK  status: ('A' for Active; 'I' for Inactive)
REMARK    1  A    between atoms: C_1  and  C_2
REMARK    2  A    between atoms: C_6  and  C_7
REMARK    3  A    between atoms: N_8  and  N_9
REMARK    4  A    between atoms: C_21  and  C_22
REMARK    5  A    between atoms: N_23  and  N_24
REMARK                            x       y       z     vdW  Elec       q    Type
REMARK                         _______ _______ _______ _____ _____    ______ ____
ROOT
ATOM      1  C   UNL     1       1.561  15.386  22.360  0.00  0.00    +0.000 C 
ATOM      2  C   UNL     1       1.132  14.313  21.402  0.00  0.00    +0.000 A 
ATOM      3  C   UNL     1       2.073  13.477  20.854  0.00  0.00    +0.000 A 
ATOM      4  C   UNL     1       1.703  12.504  19.955  0.00  0.00    +0.000 A 
ATOM      5  C   UNL     1       0.348  12.282  19.564  0.00  0.00    +0.000 A 
ATOM      6  C   UNL     1      -0.016  11.254  18.622  0.00  0.00    +0.000 A 
ATOM      7  C   UNL     1      -1.413  11.013  18.394  0.00  0.00    +0.000 A 
ATOM      8  C   UNL     1      -1.845   9.945  17.549  0.00  0.00    +0.000 A 
ATOM      9  C   UNL     1      -3.185   9.667  17.333  0.00  0.00    +0.000 A 
ATOM     10  C   UNL     1      -4.151  10.436  17.933  0.00  0.00    +0.000 A 
ATOM     11  C   UNL     1      -3.788  11.491  18.751  0.00  0.00    +0.000 A 
ATOM     12  C   UNL     1      -2.424  11.827  19.020  0.00  0.00    +0.000 A 
ATOM     13  C   UNL     1      -2.053  12.927  19.879  0.00  0.00    +0.000 A 
ATOM     14  C   UNL     1      -0.654  13.123  20.163  0.00  0.00    +0.000 A 
ATOM     15  C   UNL     1      -0.210  14.147  21.063  0.00  0.00    +0.000 A 
ENDROOT
BRANCH   6  16
ATOM     16  C   UNL     1       1.026  10.425  17.852  0.00  0.00    +0.000 C 
ATOM     17  N   UNL     1       1.477   9.299  18.276  0.00  0.00    +0.000 NA
BRANCH  17  18
ATOM     18  N   UNL     1       2.443   8.557  17.639  0.00  0.00    +0.000 N 
ATOM     19  C   UNL     1       2.891   7.346  18.236  0.00  0.00    +0.000 C 
ATOM     20  N   UNL     1       2.438   6.912  19.350  0.00  0.00    +0.000 NA
ATOM     21  C   UNL     1       3.067   5.657  19.694  0.00  0.00    +0.000 C 
ATOM     22  C   UNL     1       3.956   5.324  18.479  0.00  0.00    +0.000 C 
ATOM     23  N   UNL     1       3.837   6.497  17.657  0.00  0.00    +0.000 N 
ATOM     24  H   UNL     1       2.823   8.849  16.728  0.00  0.00    +0.000 HD
ATOM     25  H   UNL     1       4.302   6.641  16.746  0.00  0.00    +0.000 HD
ENDBRANCH  17  18
ENDBRANCH   6  16
BRANCH  13  26
ATOM     26  C   UNL     1      -3.078  13.879  20.511  0.00  0.00    +0.000 C 
ATOM     27  N   UNL     1      -3.750  13.614  21.574  0.00  0.00    +0.000 NA
BRANCH  27  28
ATOM     28  N   UNL     1      -4.681  14.480  22.108  0.00  0.00    +0.000 N 
ATOM     29  C   UNL     1      -5.791  13.971  22.836  0.00  0.00    +0.000 C 
ATOM     30  N   UNL     1      -5.991  12.724  23.018  0.00  0.00    +0.000 NA
ATOM     31  C   UNL     1      -7.186  12.521  23.802  0.00  0.00    +0.000 C 
ATOM     32  C   UNL     1      -7.640  13.943  24.195  0.00  0.00    +0.000 C 
ATOM     33  N   UNL     1      -6.749  14.787  23.451  0.00  0.00    +0.000 N 
ATOM     34  H   UNL     1      -4.571  15.502  22.010  0.00  0.00    +0.000 HD
ATOM     35  H   UNL     1      -6.751  15.817  23.456  0.00  0.00    +0.000 HD
ENDBRANCH  27  28
ENDBRANCH  13  26
TORSDOF 4
ENDMDL
MODEL 9
REMARK VINA RESULT:      -6.9      2.573      3.751
REMARK  Name = 
REMARK  5 active torsions:
REMARK  status: ('A' for Active; 'I' for Inactive)
REMARK    1  A    between atoms: C_1  and  C_2
REMARK    2  A    between atoms: C_6  and  C_7
REMARK    3  A    between atoms: N_8  and  N_9
REMARK    4  A    between atoms: C_21  and  C_22
REMARK    5  A    between atoms: N_23  and  N_24
REMARK                            x       y       z     vdW  Elec       q    Type
REMARK                         _______ _______ _______ _____ _____    ______ ____
ROOT
ATOM      1  C   UNL     1       2.131  16.286  18.458  0.00  0.00    +0.000 C 
ATOM      2  C   UNL     1       1.848  14.843  18.757  0.00  0.00    +0.000 A 
ATOM      3  C   UNL     1       2.342  13.868  17.927  0.00  0.00    +0.000 A 
ATOM      4  C   UNL     1       2.073  12.542  18.170  0.00  0.00    +0.000 A 
ATOM      5  C   UNL     1       1.308  12.097  19.290  0.00  0.00    +0.000 A 
ATOM      6  C   UNL     1       1.042  10.700  19.526  0.00  0.00    +0.000 A 
ATOM      7  C   UNL     1       0.383  10.337  20.749  0.00  0.00    +0.000 A 
ATOM      8  C   UNL     1       0.177   8.966  21.092  0.00  0.00    +0.000 A 
ATOM      9  C   UNL     1      -0.428   8.581  22.278  0.00  0.00    +0.000 A 
ATOM     10  C   UNL     1      -0.859   9.533  23.168  0.00  0.00    +0.000 A 
ATOM     11  C   UNL     1      -0.696  10.877  22.880  0.00  0.00    +0.000 A 
ATOM     12  C   UNL     1      -0.076  11.339  21.677  0.00  0.00    +0.000 A 
ATOM     13  C   UNL     1       0.097  12.743  21.386  0.00  0.00    +0.000 A 
ATOM     14  C   UNL     1       0.820  13.104  20.194  0.00  0.00    +0.000 A 
ATOM     15  C   UNL     1       1.095  14.474  19.871  0.00  0.00    +0.000 A 
ENDROOT
BRANCH   6  16
ATOM     16  C   UNL     1       1.421   9.599  18.520  0.00  0.00    +0.000 C 
ATOM     17  N   UNL     1       2.239   8.649  18.798  0.00  0.00    +0.000 NA
BRANCH  17  18
ATOM     18  N   UNL     1       2.638   7.679  17.909  0.00  0.00    +0.000 N 
ATOM     19  C   UNL     1       2.957   6.381  18.398  0.00  0.00    +0.000 C 
ATOM     20  N   UNL     1       2.895   6.071  19.637  0.00  0.00    +0.000 NA
ATOM     21  C   UNL     1       3.259   4.686  19.827  0.00  0.00    +0.000 C 
ATOM     22  C   UNL     1       3.464   4.139  18.400  0.00  0.00    +0.000 C 
ATOM     23  N   UNL     1       3.333   5.314  17.580  0.00  0.00    +0.000 N 
ATOM     24  H   UNL     1       2.680   7.869  16.898  0.00  0.00    +0.000 HD
ATOM     25  H   UNL     1       3.412   5.338  16.551  0.00  0.00    +0.000 HD
ENDBRANCH  17  18
ENDBRANCH   6  16
BRANCH  13  26
ATOM     26  C   UNL     1      -0.439  13.859  22.294  0.00  0.00    +0.000 C 
ATOM     27  N   UNL     1      -1.687  14.111  22.469  0.00  0.00    +0.000 NA
BRANCH  27  28
ATOM     28  N   UNL     1      -2.139  15.135  23.275  0.00  0.00    +0.000 N 
ATOM     29  C   UNL     1      -3.535  15.374  23.403  0.00  0.00    +0.000 C 
ATOM     30  N   UNL     1      -4.419  14.689  22.788  0.00  0.00    +0.000 NA
ATOM     31  C   UNL     1      -5.739  15.161  23.130  0.00  0.00    +0.000 C 
ATOM     32  C   UNL     1      -5.503  16.233  24.214  0.00  0.00    +0.000 C 
ATOM     33  N   UNL     1      -4.073  16.361  24.239  0.00  0.00    +0.000 N 
ATOM     34  H   UNL     1      -1.478  15.718  23.812  0.00  0.00    +0.000 HD
ATOM     35  H   UNL     1      -3.537  16.995  24.848  0.00  0.00    +0.000 HD
ENDBRANCH  27  28
ENDBRANCH  13  26
TORSDOF 4
ENDMDL
